#    Name: 6pv7_1_NCT_CAVITY_N1_12
#    Modification time : Fri May 22 19:34:59 2020

@<TRIPOS>MOLECULE
6pv7_1_NCT_CAVITY_N1_12
   78     0     6     0     0
SMALL
NO_CHARGES


@<TRIPOS>ATOM
      1 OG        143.1100  131.9900  185.0900 O.3       1 SER1        0.0000 
      2 OG        143.8800  132.9800  183.3700 O.3       1 SER1        0.0000 
      3 OG        143.3900  134.0800  182.4700 O.3       1 SER1        0.0000 
      4 OG        145.3100  134.9700  182.5300 O.3       1 SER1        0.0000 
      5 OG        143.5800  136.1900  182.4600 O.3       1 SER1        0.0000 
      6 OG        143.9600  140.4200  182.4200 O.3       1 SER1        0.0000 
      7 N         139.1700  128.0700  182.3900 N.am      2 ALA2        0.0000 
      8 N         138.6800  129.1700  181.5000 N.am      2 ALA2        0.0000 
      9 O         138.1100  130.3000  183.2000 O.2       2 ALA2        0.0000 
     10 N         138.8700  131.2800  181.4800 N.am      2 ALA2        0.0000 
     11 N         140.1200  131.1600  180.6600 N.am      2 ALA2        0.0000 
     12 N         141.2800  131.0700  182.4300 N.am      2 ALA2        0.0000 
     13 N         141.9500  132.0800  183.3100 N.am      2 ALA2        0.0000 
     14 N         142.7200  133.0700  181.5900 N.am      2 ALA2        0.0000 
     15 N         142.9000  135.1800  181.5800 N.am      2 ALA2        0.0000 
     16 N         142.4200  136.2800  180.6800 N.am      2 ALA2        0.0000 
     17 N         141.9300  137.3800  179.7900 N.am      2 ALA2        0.0000 
     18 N         146.5600  134.8500  181.7000 N.am      2 ALA2        0.0000 
     19 N         144.8300  136.0700  181.6300 N.am      2 ALA2        0.0000 
     20 O         146.0800  135.9500  180.8100 O.2       2 ALA2        0.0000 
     21 N         143.0900  137.2900  181.5600 N.am      2 ALA2        0.0000 
     22 N         142.6100  138.3900  180.6600 N.am      2 ALA2        0.0000 
     23 N         145.9900  135.9800  183.4100 N.am      2 ALA2        0.0000 
     24 N         143.7700  138.3000  182.4400 N.am      2 ALA2        0.0000 
     25 N         145.0200  138.1900  181.6200 N.am      2 ALA2        0.0000 
     26 N         144.4400  139.3200  183.3200 N.am      2 ALA2        0.0000 
     27 OD1       140.9000  126.8500  182.4700 O.co2     3 ASP3        0.0000 
     28 OD1       139.8400  129.0800  183.2700 O.co2     3 ASP3        0.0000 
     29 OD1       143.5000  128.7500  183.4000 O.co2     3 ASP3        0.0000 
     30 OD1       140.5100  130.0900  184.1500 O.co2     3 ASP3        0.0000 
     31 OD1       141.7600  129.9700  183.3300 O.co2     3 ASP3        0.0000 
     32 OD1       141.6800  130.0000  185.9300 O.co2     3 ASP3        0.0000 
     33 OD1       142.9200  129.8800  185.1000 O.co2     3 ASP3        0.0000 
     34 OD1       141.1900  131.1000  185.0300 O.co2     3 ASP3        0.0000 
     35 NZ        139.7400  126.9400  180.6900 N.4       4 LYS4        0.0000 
     36 NZ        141.8600  132.1100  185.9100 N.4       4 LYS4        0.0000 
     37 CZ        141.8500  137.4100  182.3800 C.ar      5 PHE5        0.0000 
     38 CZ        141.3600  138.5100  181.4900 C.ar      5 PHE5        0.0000 
     39 CZ        142.1200  139.4900  179.7700 C.ar      5 PHE5        0.0000 
     40 CZ        143.3700  139.3800  178.9500 C.ar      5 PHE5        0.0000 
     41 CZ        144.2500  137.2000  183.3300 C.ar      5 PHE5        0.0000 
     42 CZ        142.5200  138.4200  183.2600 C.ar      5 PHE5        0.0000 
     43 CZ        142.0300  139.5200  182.3700 C.ar      5 PHE5        0.0000 
     44 CZ        143.2800  139.4000  181.5400 C.ar      5 PHE5        0.0000 
     45 CZ        144.5300  139.2900  180.7200 C.ar      5 PHE5        0.0000 
     46 CZ        142.8000  140.5100  180.6500 C.ar      5 PHE5        0.0000 
     47 CZ        144.0500  140.3900  179.8200 C.ar      5 PHE5        0.0000 
     48 CZ        143.1900  139.4300  184.1400 C.ar      5 PHE5        0.0000 
     49 CZ        142.7100  140.5300  183.2400 C.ar      5 PHE5        0.0000 
     50 CA        140.4100  127.9500  181.5700 C.3       6 GLY6        0.0000 
     51 CA        139.9300  129.0500  180.6800 C.3       6 GLY6        0.0000 
     52 CA        142.8200  127.7400  182.5200 C.3       6 GLY6        0.0000 
     53 CA        138.5900  129.2000  184.1000 C.3       6 GLY6        0.0000 
     54 CA        141.0900  128.9600  182.4500 C.3       6 GLY6        0.0000 
     55 CA        139.3500  130.1800  182.3800 C.3       6 GLY6        0.0000 
     56 CA        140.6000  130.0600  181.5600 C.3       6 GLY6        0.0000 
     57 CA        139.2700  130.2100  184.9700 C.3       6 GLY6        0.0000 
     58 CA        143.0100  129.8500  182.5100 C.3       6 GLY6        0.0000 
     59 CA        140.0300  131.1900  183.2600 C.3       6 GLY6        0.0000 
     60 CA        142.5300  130.9500  181.6100 C.3       6 GLY6        0.0000 
     61 CA        144.1700  129.7600  184.2800 C.3       6 GLY6        0.0000 
     62 CA        139.9400  131.2200  185.8500 C.3       6 GLY6        0.0000 
     63 CA        142.4400  130.9800  184.2100 C.3       6 GLY6        0.0000 
     64 CA        143.6900  130.8600  183.3800 C.3       6 GLY6        0.0000 
     65 CA        140.7000  132.2000  184.1300 C.3       6 GLY6        0.0000 
     66 CA        143.2000  131.9700  182.4900 C.3       6 GLY6        0.0000 
     67 CA        143.9600  132.9500  180.7700 C.3       6 GLY6        0.0000 
     68 CA        145.1200  132.8600  182.5400 C.3       6 GLY6        0.0000 
     69 CA        144.6400  133.9600  181.6500 C.3       6 GLY6        0.0000 
     70 CA        145.8900  133.8400  180.8300 C.3       6 GLY6        0.0000 
     71 CA        144.1500  135.0600  180.7500 C.3       6 GLY6        0.0000 
     72 CA        145.4000  134.9400  179.9300 C.3       6 GLY6        0.0000 
     73 CA        143.6700  136.1600  179.8600 C.3       6 GLY6        0.0000 
     74 CA        143.1800  137.2600  178.9600 C.3       6 GLY6        0.0000 
     75 CA        145.8000  133.8700  183.4200 C.3       6 GLY6        0.0000 
     76 CA        144.3400  137.1700  180.7400 C.3       6 GLY6        0.0000 
     77 CA        145.5900  137.0600  179.9100 C.3       6 GLY6        0.0000 
     78 CA        143.8600  138.2700  179.8400 C.3       6 GLY6        0.0000 
@<TRIPOS>BOND
@<TRIPOS>SUBSTRUCTURE
     1 SER1        1 GROUP   
     2 ALA2        7 GROUP   
     3 ASP3       27 GROUP   
     4 LYS4       35 GROUP   
     5 PHE5       37 GROUP   
     6 GLY6       50 GROUP   
@<TRIPOS>SET

