#    Name: 6pv7_1_NCT_CAVITY_N1_4
#    Modification time : Fri May 22 19:34:59 2020

@<TRIPOS>MOLECULE
6pv7_1_NCT_CAVITY_N1_4
   48     0     4     0     0
SMALL
NO_CHARGES


@<TRIPOS>ATOM
      1 OG        143.1100  131.9900  185.0900 O.3       1 SER1        0.0000 
      2 OG        143.8800  132.9800  183.3700 O.3       1 SER1        0.0000 
      3 OG        143.3900  134.0800  182.4700 O.3       1 SER1        0.0000 
      4 OG        145.3100  134.9700  182.5300 O.3       1 SER1        0.0000 
      5 OG        143.5800  136.1900  182.4600 O.3       1 SER1        0.0000 
      6 OG        143.9600  140.4200  182.4200 O.3       1 SER1        0.0000 
      7 N         141.9500  132.0800  183.3100 N.am      2 ALA2        0.0000 
      8 N         142.7200  133.0700  181.5900 N.am      2 ALA2        0.0000 
      9 N         142.9000  135.1800  181.5800 N.am      2 ALA2        0.0000 
     10 N         142.4200  136.2800  180.6800 N.am      2 ALA2        0.0000 
     11 N         141.9300  137.3800  179.7900 N.am      2 ALA2        0.0000 
     12 N         146.5600  134.8500  181.7000 N.am      2 ALA2        0.0000 
     13 N         144.8300  136.0700  181.6300 N.am      2 ALA2        0.0000 
     14 O         146.0800  135.9500  180.8100 O.2       2 ALA2        0.0000 
     15 N         143.0900  137.2900  181.5600 N.am      2 ALA2        0.0000 
     16 N         142.6100  138.3900  180.6600 N.am      2 ALA2        0.0000 
     17 N         145.9900  135.9800  183.4100 N.am      2 ALA2        0.0000 
     18 N         143.7700  138.3000  182.4400 N.am      2 ALA2        0.0000 
     19 N         145.0200  138.1900  181.6200 N.am      2 ALA2        0.0000 
     20 N         144.4400  139.3200  183.3200 N.am      2 ALA2        0.0000 
     21 CZ        141.8500  137.4100  182.3800 C.ar      3 PHE5        0.0000 
     22 CZ        141.3600  138.5100  181.4900 C.ar      3 PHE5        0.0000 
     23 CZ        142.1200  139.4900  179.7700 C.ar      3 PHE5        0.0000 
     24 CZ        143.3700  139.3800  178.9500 C.ar      3 PHE5        0.0000 
     25 CZ        144.2500  137.2000  183.3300 C.ar      3 PHE5        0.0000 
     26 CZ        142.5200  138.4200  183.2600 C.ar      3 PHE5        0.0000 
     27 CZ        142.0300  139.5200  182.3700 C.ar      3 PHE5        0.0000 
     28 CZ        143.2800  139.4000  181.5400 C.ar      3 PHE5        0.0000 
     29 CZ        144.5300  139.2900  180.7200 C.ar      3 PHE5        0.0000 
     30 CZ        142.8000  140.5100  180.6500 C.ar      3 PHE5        0.0000 
     31 CZ        144.0500  140.3900  179.8200 C.ar      3 PHE5        0.0000 
     32 CZ        143.1900  139.4300  184.1400 C.ar      3 PHE5        0.0000 
     33 CZ        142.7100  140.5300  183.2400 C.ar      3 PHE5        0.0000 
     34 CA        142.5300  130.9500  181.6100 C.3       4 GLY6        0.0000 
     35 CA        143.6900  130.8600  183.3800 C.3       4 GLY6        0.0000 
     36 CA        143.2000  131.9700  182.4900 C.3       4 GLY6        0.0000 
     37 CA        143.9600  132.9500  180.7700 C.3       4 GLY6        0.0000 
     38 CA        145.1200  132.8600  182.5400 C.3       4 GLY6        0.0000 
     39 CA        144.6400  133.9600  181.6500 C.3       4 GLY6        0.0000 
     40 CA        145.8900  133.8400  180.8300 C.3       4 GLY6        0.0000 
     41 CA        144.1500  135.0600  180.7500 C.3       4 GLY6        0.0000 
     42 CA        145.4000  134.9400  179.9300 C.3       4 GLY6        0.0000 
     43 CA        143.6700  136.1600  179.8600 C.3       4 GLY6        0.0000 
     44 CA        143.1800  137.2600  178.9600 C.3       4 GLY6        0.0000 
     45 CA        145.8000  133.8700  183.4200 C.3       4 GLY6        0.0000 
     46 CA        144.3400  137.1700  180.7400 C.3       4 GLY6        0.0000 
     47 CA        145.5900  137.0600  179.9100 C.3       4 GLY6        0.0000 
     48 CA        143.8600  138.2700  179.8400 C.3       4 GLY6        0.0000 
@<TRIPOS>BOND
@<TRIPOS>SUBSTRUCTURE
     1 SER1        1 GROUP   
     2 ALA2        7 GROUP   
     3 PHE5       21 GROUP   
     4 GLY6       34 GROUP   
@<TRIPOS>SET

