#    Name: 6jwv_4_ATP_CAVITY_N1_8
#    Modification time : Fri May 22 19:34:39 2020

@<TRIPOS>MOLECULE
6jwv_4_ATP_CAVITY_N1_8
   70     0     6     0     0
SMALL
NO_CHARGES


@<TRIPOS>ATOM
      1 OG        -31.3300   91.2100   65.2200 O.3       1 SER1        0.0000 
      2 OG        -30.4700   90.3600   64.3300 O.3       1 SER1        0.0000 
      3 OG        -30.4800   93.9200   63.4300 O.3       1 SER1        0.0000 
      4 OG        -30.2900   92.9400   64.5500 O.3       1 SER1        0.0000 
      5 OG        -30.1100   91.9600   65.6700 O.3       1 SER1        0.0000 
      6 N         -36.0300   90.8000   63.6400 N.am      2 ALA2        0.0000 
      7 N         -35.6600   92.4000   64.9800 N.am      2 ALA2        0.0000 
      8 N         -34.8100   91.5500   64.0900 N.am      2 ALA2        0.0000 
      9 N         -34.4400   93.1500   65.4300 N.am      2 ALA2        0.0000 
     10 O         -31.3200   87.6500   66.1200 O.2       2 ALA2        0.0000 
     11 N         -33.2200   93.9000   65.8800 N.am      2 ALA2        0.0000 
     12 N         -32.0000   94.6500   66.3300 N.am      2 ALA2        0.0000 
     13 O         -30.7800   95.4000   66.7800 O.2       2 ALA2        0.0000 
     14 O         -30.5900   94.4200   67.9000 O.2       2 ALA2        0.0000 
     15 OD1       -35.3600   90.9300   61.6300 O.co2     3 ASP3        0.0000 
     16 OD1       -35.0000   92.5300   62.9700 O.co2     3 ASP3        0.0000 
     17 OD1       -34.1400   91.6700   62.0800 O.co2     3 ASP3        0.0000 
     18 OD1       -33.2900   90.8200   61.1900 O.co2     3 ASP3        0.0000 
     19 OD1       -33.1000   89.8400   62.3100 O.co2     3 ASP3        0.0000 
     20 OD1       -33.7800   93.2800   63.4200 O.co2     3 ASP3        0.0000 
     21 OD1       -32.9200   92.4200   62.5300 O.co2     3 ASP3        0.0000 
     22 OD1       -32.7400   91.4400   63.6500 O.co2     3 ASP3        0.0000 
     23 OD1       -31.8800   90.5900   62.7600 O.co2     3 ASP3        0.0000 
     24 OD1       -31.7000   89.6100   63.8800 O.co2     3 ASP3        0.0000 
     25 OD1       -30.8400   88.7500   62.9900 O.co2     3 ASP3        0.0000 
     26 OD1       -31.8900   94.1500   61.8600 O.co2     3 ASP3        0.0000 
     27 OD1       -31.7000   93.1700   62.9800 O.co2     3 ASP3        0.0000 
     28 OD1       -31.5200   92.1900   64.1000 O.co2     3 ASP3        0.0000 
     29 OD1       -29.6200   89.5000   63.4400 O.co2     3 ASP3        0.0000 
     30 CZ        -35.4700   91.4200   66.1000 C.ar      4 PHE5        0.0000 
     31 CZ        -34.6200   90.5700   65.2100 C.ar      4 PHE5        0.0000 
     32 CZ        -34.2500   92.1700   66.5500 C.ar      4 PHE5        0.0000 
     33 CZ        -33.4000   91.3200   65.6600 C.ar      4 PHE5        0.0000 
     34 CZ        -32.3600   89.4800   65.8900 C.ar      4 PHE5        0.0000 
     35 CZ        -33.0300   92.9200   67.0000 C.ar      4 PHE5        0.0000 
     36 CZ        -32.1800   92.0700   66.1100 C.ar      4 PHE5        0.0000 
     37 CZ        -31.1400   90.2300   66.3400 C.ar      4 PHE5        0.0000 
     38 CZ        -30.9500   89.2500   67.4600 C.ar      4 PHE5        0.0000 
     39 CZ        -30.2900   89.3800   65.4500 C.ar      4 PHE5        0.0000 
     40 CZ        -30.1000   88.4000   66.5700 C.ar      4 PHE5        0.0000 
     41 CZ        -29.4300   88.5200   64.5600 C.ar      4 PHE5        0.0000 
     42 CZ        -31.8100   93.6700   67.4500 C.ar      4 PHE5        0.0000 
     43 CZ        -30.9600   92.8100   66.5600 C.ar      4 PHE5        0.0000 
     44 CZ        -29.9200   90.9800   66.7900 C.ar      4 PHE5        0.0000 
     45 CZ        -29.7300   90.0000   67.9100 C.ar      4 PHE5        0.0000 
     46 CZ        -29.0700   90.1200   65.9000 C.ar      4 PHE5        0.0000 
     47 CZ        -28.8800   89.1400   67.0200 C.ar      4 PHE5        0.0000 
     48 CZ        -30.1100   95.5200   64.7700 C.ar      4 PHE5        0.0000 
     49 CZ        -29.9300   94.5400   65.8900 C.ar      4 PHE5        0.0000 
     50 CZ        -29.7400   93.5600   67.0100 C.ar      4 PHE5        0.0000 
     51 CZ        -29.2600   94.6700   63.8800 C.ar      4 PHE5        0.0000 
     52 CA        -34.6300   94.1300   64.3100 C.3       5 GLY6        0.0000 
     53 CA        -33.9600   94.2600   62.3000 C.3       5 GLY6        0.0000 
     54 CA        -33.4100   94.8800   64.7600 C.3       5 GLY6        0.0000 
     55 CA        -32.7400   95.0000   62.7500 C.3       5 GLY6        0.0000 
     56 CA        -32.5600   94.0200   63.8700 C.3       5 GLY6        0.0000 
     57 CA        -32.1900   95.6300   65.2100 C.3       5 GLY6        0.0000 
     58 CA        -31.3400   94.7700   64.3200 C.3       5 GLY6        0.0000 
     59 CA        -30.6700   94.9000   62.3100 C.3       5 GLY6        0.0000 
     60 CA        -30.9700   96.3800   65.6600 C.3       5 GLY6        0.0000 
     61 CA        -29.5500   92.5800   68.1300 C.3       5 GLY6        0.0000 
     62 DU        -33.9600   90.6900   63.2000 H         6 CUB7        0.0000 
     63 DU        -33.7700   89.7100   64.3200 H         6 CUB7        0.0000 
     64 DU        -32.9200   88.8600   63.4300 H         6 CUB7        0.0000 
     65 DU        -33.5900   92.3000   64.5400 H         6 CUB7        0.0000 
     66 DU        -32.5500   90.4600   64.7700 H         6 CUB7        0.0000 
     67 DU        -31.5100   88.6300   65.0000 H         6 CUB7        0.0000 
     68 DU        -30.6500   87.7700   64.1100 H         6 CUB7        0.0000 
     69 DU        -32.3700   93.0400   64.9900 H         6 CUB7        0.0000 
     70 DU        -31.1500   93.7900   65.4400 H         6 CUB7        0.0000 
@<TRIPOS>BOND
@<TRIPOS>SUBSTRUCTURE
     1 SER1        1 GROUP   
     2 ALA2        6 GROUP   
     3 ASP3       15 GROUP   
     4 PHE5       30 GROUP   
     5 GLY6       52 GROUP   
     6 CUB7       62 GROUP   
@<TRIPOS>SET

