#    Name: 6jwv_4_ATP
#    Modification time : Fri May 22 19:34:38 2020

@<TRIPOS>MOLECULE
6jwv_4_ATP
   31    33     1     0     1
SMALL
NO_CHARGES


@<TRIPOS>ATOM
      1 PG        -29.2710   89.0900   62.8640 P.3       1 ATP804      0.0000 
      2 O1G       -28.7760   89.3230   61.4510 O.co2     1 ATP804      0.0000 
      3 O2G       -29.7900   90.3400   63.5520 O.co2     1 ATP804      0.0000 
      4 O3G       -28.3470   88.2450   63.7100 O.co2     1 ATP804      0.0000 
      5 PB        -31.7440   88.2510   61.6350 P.3       1 ATP804      0.0000 
      6 O1B       -31.3310   87.5920   60.3470 O.co2     1 ATP804      0.0000 
      7 O2B       -33.0250   87.8010   62.2840 O.co2     1 ATP804      0.0000 
      8 O3B       -30.5660   88.1220   62.7390 O.3       1 ATP804      0.0000 
      9 PA        -33.2080   90.4780   60.8140 P.3       1 ATP804      0.0000 
     10 O1A       -33.8890   89.4710   59.9130 O.co2     1 ATP804      0.0000 
     11 O2A       -32.9050   91.8670   60.3050 O.co2     1 ATP804      0.0000 
     12 O3A       -31.8270   89.8220   61.3110 O.3       1 ATP804      0.0000 
     13 O5'       -34.0660   90.5910   62.1810 O.3       1 ATP804      0.0000 
     14 C5'       -33.4460   90.6430   63.4700 C.3       1 ATP804      0.0000 
     15 C4'       -34.2120   91.5350   64.4150 C.3       1 ATP804      0.0000 
     16 O4'       -33.3490   91.8160   65.5000 O.3       1 ATP804      0.0000 
     17 C3'       -34.5170   92.8980   63.8280 C.3       1 ATP804      0.0000 
     18 O3'       -35.7600   92.8920   63.1280 O.3       1 ATP804      0.0000 
     19 C2'       -34.5470   93.8120   65.0260 C.3       1 ATP804      0.0000 
     20 O2'       -35.8680   93.9310   65.5390 O.3       1 ATP804      0.0000 
     21 C1'       -33.6800   93.0890   66.0400 C.3       1 ATP804      0.0000 
     22 N9        -32.4630   93.8850   66.3500 N.pl3     1 ATP804      0.0000 
     23 C8        -32.0670   94.1740   67.5960 C.2       1 ATP804      0.0000 
     24 N7        -30.9420   94.9190   67.5950 N.2       1 ATP804      0.0000 
     25 C5        -30.5850   95.1180   66.3170 C.ar      1 ATP804      0.0000 
     26 C6        -29.4890   95.8190   65.6030 C.ar      1 ATP804      0.0000 
     27 N6        -28.5190   96.4750   66.2740 N.pl3     1 ATP804      0.0000 
     28 N1        -29.4900   95.7800   64.2510 N.ar      1 ATP804      0.0000 
     29 C2        -30.4380   95.1390   63.5510 C.ar      1 ATP804      0.0000 
     30 N3        -31.4510   94.4880   64.1390 N.ar      1 ATP804      0.0000 
     31 C4        -31.5870   94.4340   65.4900 C.ar      1 ATP804      0.0000 
@<TRIPOS>BOND
     1    1    2 ar   
     2    1    3 ar   
     3    1    4 ar   
     4    1    8 1    
     5    5    6 ar   
     6    5    7 ar   
     7    5    8 1    
     8    5   12 1    
     9    9   10 ar   
    10    9   11 ar   
    11    9   12 1    
    12    9   13 1    
    13   13   14 1    
    14   14   15 1    
    15   15   16 1    
    16   15   17 1    
    17   16   21 1    
    18   17   18 1    
    19   17   19 1    
    20   19   20 1    
    21   19   21 1    
    22   21   22 1    
    23   22   23 1    
    24   22   31 1    
    25   23   24 2    
    26   24   25 1    
    27   25   26 ar   
    28   25   31 ar   
    29   26   27 1    
    30   26   28 ar   
    31   28   29 ar   
    32   29   30 ar   
    33   30   31 ar   
@<TRIPOS>SUBSTRUCTURE
     1 ATP804      1 GROUP   
@<TRIPOS>SET
ATOM$ORANGE STATIC     ATOMS   COLORGROUP SYSTEM 
20 14 14 15 15 17 17 19 19 21 21 23 23 25 25 26 26 29 \
29 31 31 

