#    Name: 6qu0_2_FMN_CAVITY_N1_6
#    Modification time : Fri May 22 19:29:46 2020

@<TRIPOS>MOLECULE
6qu0_2_FMN_CAVITY_N1_6
   62     0     5     0     0
SMALL
NO_CHARGES


@<TRIPOS>ATOM
      1 OG        -19.1500  -44.4100    6.4100 O.3       1 SER1        0.0000 
      2 OG        -20.0800  -44.4200    7.5900 O.3       1 SER1        0.0000 
      3 OG        -16.0600  -43.7400   14.5600 O.3       1 SER1        0.0000 
      4 O         -21.8800  -45.4300    8.0800 O.2       2 ALA2        0.0000 
      5 O         -21.0800  -46.5400    8.7000 O.2       2 ALA2        0.0000 
      6 O         -17.4300  -45.5300    5.8500 O.2       2 ALA2        0.0000 
      7 O         -20.2100  -45.5300    9.3800 O.2       2 ALA2        0.0000 
      8 O         -17.3500  -43.4100    5.9200 O.2       2 ALA2        0.0000 
      9 O         -16.5600  -44.5200    6.5400 O.2       2 ALA2        0.0000 
     10 O         -16.4700  -42.4000    6.6100 O.2       2 ALA2        0.0000 
     11 O         -17.4000  -42.4000    7.7900 O.2       2 ALA2        0.0000 
     12 N         -21.0200  -40.3000   12.5700 N.am      2 ALA2        0.0000 
     13 O         -17.4500  -41.4000    9.6500 O.2       2 ALA2        0.0000 
     14 O         -18.3800  -41.4100   10.8300 O.2       2 ALA2        0.0000 
     15 N         -19.3000  -41.4100   12.0100 N.am      2 ALA2        0.0000 
     16 N         -20.2300  -41.4100   13.1900 N.am      2 ALA2        0.0000 
     17 O         -18.5100  -42.5200   12.6300 O.2       2 ALA2        0.0000 
     18 O         -17.7200  -43.6400   13.2500 O.2       2 ALA2        0.0000 
     19 N         -18.3000  -39.2900   10.9000 N.am      2 ALA2        0.0000 
     20 O         -17.5000  -40.4000   11.5200 O.2       2 ALA2        0.0000 
     21 N         -17.6400  -41.5200   13.3200 N.am      2 ALA2        0.0000 
     22 N         -18.5700  -41.5200   14.5000 N.am      2 ALA2        0.0000 
     23 O         -16.8500  -42.6300   13.9400 O.2       2 ALA2        0.0000 
     24 N         -15.9700  -41.6300   14.6300 N.am      2 ALA2        0.0000 
     25 O         -15.3200  -43.8600   17.0500 O.2       2 ALA2        0.0000 
     26 CZ        -19.0100  -43.3000    4.6100 C.ar      3 PHE5        0.0000 
     27 CZ        -19.9400  -43.3000    5.7900 C.ar      3 PHE5        0.0000 
     28 CZ        -18.1400  -42.2900    5.3000 C.ar      3 PHE5        0.0000 
     29 CZ        -18.2700  -43.4100    7.1000 C.ar      3 PHE5        0.0000 
     30 CZ        -19.2000  -43.4100    8.2800 C.ar      3 PHE5        0.0000 
     31 CZ        -17.2600  -41.2900    5.9900 C.ar      3 PHE5        0.0000 
     32 CZ        -18.3300  -42.4100    8.9600 C.ar      3 PHE5        0.0000 
     33 CZ        -20.8900  -39.1800   10.7800 C.ar      3 PHE5        0.0000 
     34 CZ        -21.8200  -39.1800   11.9500 C.ar      3 PHE5        0.0000 
     35 CZ        -18.2400  -40.2900    9.0400 C.ar      3 PHE5        0.0000 
     36 CZ        -19.1700  -40.2900   10.2100 C.ar      3 PHE5        0.0000 
     37 CZ        -20.1000  -40.3000   11.3900 C.ar      3 PHE5        0.0000 
     38 CA        -18.0900  -43.3000    3.4300 C.3       4 GLY6        0.0000 
     39 CA        -17.3000  -44.4100    4.0500 C.3       4 GLY6        0.0000 
     40 CA        -18.3600  -45.5300    7.0300 C.3       4 GLY6        0.0000 
     41 CA        -19.2800  -45.5300    8.2000 C.3       4 GLY6        0.0000 
     42 CA        -18.0000  -41.1800    3.5000 C.3       4 GLY6        0.0000 
     43 CA        -16.2900  -42.2900    2.9400 C.3       4 GLY6        0.0000 
     44 CA        -17.2100  -42.2900    4.1200 C.3       4 GLY6        0.0000 
     45 CA        -15.4900  -43.4000    3.5600 C.3       4 GLY6        0.0000 
     46 CA        -16.4200  -43.4000    4.7400 C.3       4 GLY6        0.0000 
     47 CA        -17.4800  -44.5200    7.7100 C.3       4 GLY6        0.0000 
     48 CA        -16.3400  -41.2900    4.8100 C.3       4 GLY6        0.0000 
     49 CA        -21.9000  -41.3000   11.8800 C.3       4 GLY6        0.0000 
     50 CA        -19.2500  -42.4100   10.1400 C.3       4 GLY6        0.0000 
     51 CA        -20.1800  -42.4100   11.3200 C.3       4 GLY6        0.0000 
     52 CA        -21.1100  -42.4200   12.5000 C.3       4 GLY6        0.0000 
     53 CA        -17.5900  -42.5200   11.4500 C.3       4 GLY6        0.0000 
     54 CA        -17.3700  -39.2800    9.7200 C.3       4 GLY6        0.0000 
     55 CA        -16.9000  -41.6300   15.8100 C.3       4 GLY6        0.0000 
     56 CA        -15.1800  -42.7400   15.2500 C.3       4 GLY6        0.0000 
     57 CA        -16.1100  -42.7400   16.4300 C.3       4 GLY6        0.0000 
     58 CA        -17.0300  -42.7500   17.6100 C.3       4 GLY6        0.0000 
     59 DU        -18.2200  -44.4100    5.2300 H         5 CUB7        0.0000 
     60 DU        -19.4400  -42.5300   13.8100 H         5 CUB7        0.0000 
     61 DU        -17.7700  -42.6300   15.1200 H         5 CUB7        0.0000 
     62 DU        -16.9800  -43.7500   15.7400 H         5 CUB7        0.0000 
@<TRIPOS>BOND
@<TRIPOS>SUBSTRUCTURE
     1 SER1        1 GROUP   
     2 ALA2        4 GROUP   
     3 PHE5       26 GROUP   
     4 GLY6       38 GROUP   
     5 CUB7       59 GROUP   
@<TRIPOS>SET

