#    Name: 6qu0_1_FMN_CAVITY_N1_4
#    Modification time : Fri May 22 19:29:38 2020

@<TRIPOS>MOLECULE
6qu0_1_FMN_CAVITY_N1_4
   87     0     6     0     0
SMALL
NO_CHARGES


@<TRIPOS>ATOM
      1 OG        -27.9700  -11.5500   18.6400 O.3       1 SER1        0.0000 
      2 OG        -26.0800   -8.4300   18.2200 O.3       1 SER1        0.0000 
      3 OG        -24.3600   -9.5400   17.6600 O.3       1 SER1        0.0000 
      4 OG        -25.2900   -9.5400   18.8400 O.3       1 SER1        0.0000 
      5 OG        -17.5400  -12.9800   17.2900 O.3       1 SER1        0.0000 
      6 N         -25.3200  -12.6600   16.9000 N.am      2 ALA2        0.0000 
      7 N         -24.4500  -11.6600   17.5900 N.am      2 ALA2        0.0000 
      8 N         -23.6500  -12.7700   18.2100 N.am      2 ALA2        0.0000 
      9 N         -27.9300   -8.4300   20.5800 N.am      2 ALA2        0.0000 
     10 N         -27.1400   -9.5500   21.2000 N.am      2 ALA2        0.0000 
     11 O         -23.5700  -10.6500   18.2800 O.2       2 ALA2        0.0000 
     12 N         -22.7800  -11.7600   18.9000 N.am      2 ALA2        0.0000 
     13 N         -22.9100  -12.8800   20.7000 N.am      2 ALA2        0.0000 
     14 N         -26.6200  -12.8900   25.4100 N.am      2 ALA2        0.0000 
     15 N         -19.3400  -13.9900   17.7800 N.am      2 ALA2        0.0000 
     16 O         -23.9800  -14.0000   23.6700 O.2       2 ALA2        0.0000 
     17 N         -25.8300  -14.0100   26.0300 N.am      2 ALA2        0.0000 
     18 O         -18.5500  -15.1000   18.3900 O.2       2 ALA2        0.0000 
     19 O         -23.1800  -15.1100   24.2900 O.2       2 ALA2        0.0000 
     20 O         -20.5400  -16.2200   22.5500 O.2       2 ALA2        0.0000 
     21 O         -24.4200   -8.5400   19.5300 O.2       2 ALA2        0.0000 
     22 N         -25.3400   -8.5400   20.7100 N.am      2 ALA2        0.0000 
     23 O         -22.7000   -9.6500   18.9700 O.2       2 ALA2        0.0000 
     24 O         -23.6200   -9.6500   20.1500 O.2       2 ALA2        0.0000 
     25 O         -21.9100  -10.7600   19.5900 O.2       2 ALA2        0.0000 
     26 O         -22.8300  -10.7600   20.7700 O.2       2 ALA2        0.0000 
     27 O         -19.2600  -11.8700   17.8500 O.2       2 ALA2        0.0000 
     28 N         -20.1900  -11.8700   19.0300 N.am      2 ALA2        0.0000 
     29 N         -21.1100  -11.8700   20.2100 N.am      2 ALA2        0.0000 
     30 O         -22.9700  -11.8800   22.5600 O.2       2 ALA2        0.0000 
     31 N         -24.8200  -11.8900   24.9200 N.am      2 ALA2        0.0000 
     32 N         -25.7500  -11.8900   26.1000 N.am      2 ALA2        0.0000 
     33 N         -19.4000  -12.9800   19.6400 N.am      2 ALA2        0.0000 
     34 O         -22.1800  -12.9900   23.1800 O.2       2 ALA2        0.0000 
     35 O         -18.6000  -14.1000   20.2600 O.2       2 ALA2        0.0000 
     36 N         -25.2600   -6.4200   20.7800 N.am      2 ALA2        0.0000 
     37 N         -24.4700   -7.5300   21.4000 N.am      2 ALA2        0.0000 
     38 O         -23.6800   -8.6500   22.0200 O.2       2 ALA2        0.0000 
     39 O         -22.8800   -9.7600   22.6300 O.2       2 ALA2        0.0000 
     40 O         -21.1700  -10.8700   22.0700 O.2       2 ALA2        0.0000 
     41 O         -22.0900  -10.8700   23.2500 O.2       2 ALA2        0.0000 
     42 N         -23.5900   -6.5300   22.0900 N.am      2 ALA2        0.0000 
     43 O         -22.8000   -7.6400   22.7100 O.2       2 ALA2        0.0000 
     44 NZ        -28.0700   -9.5500   22.3800 N.4       3 LYS4        0.0000 
     45 CZ        -27.8800   -9.4400   18.7100 C.ar      4 PHE5        0.0000 
     46 CZ        -25.7800  -15.0100   24.1600 C.ar      4 PHE5        0.0000 
     47 CZ        -24.0600  -16.1200   23.6000 C.ar      4 PHE5        0.0000 
     48 CZ        -27.0100   -8.4300   19.4000 C.ar      4 PHE5        0.0000 
     49 CZ        -22.1200  -13.9900   21.3100 C.ar      4 PHE5        0.0000 
     50 CZ        -23.0500  -14.0000   22.4900 C.ar      4 PHE5        0.0000 
     51 CZ        -21.3300  -15.1100   21.9300 C.ar      4 PHE5        0.0000 
     52 CZ        -22.2600  -15.1100   23.1100 C.ar      4 PHE5        0.0000 
     53 CZ        -21.4700  -16.2200   23.7300 C.ar      4 PHE5        0.0000 
     54 CZ        -25.2100   -7.4200   18.9100 C.ar      4 PHE5        0.0000 
     55 CZ        -26.1300   -7.4300   20.0900 C.ar      4 PHE5        0.0000 
     56 CZ        -18.4700  -12.9800   18.4600 C.ar      4 PHE5        0.0000 
     57 CZ        -20.3200  -12.9900   20.8200 C.ar      4 PHE5        0.0000 
     58 CZ        -17.6800  -14.0900   19.0800 C.ar      4 PHE5        0.0000 
     59 CZ        -19.5300  -14.1000   21.4400 C.ar      4 PHE5        0.0000 
     60 CZ        -20.4600  -14.1000   22.6200 C.ar      4 PHE5        0.0000 
     61 CA        -27.0400  -11.5500   17.4600 C.3       5 GLY6        0.0000 
     62 CA        -26.2500  -12.6600   18.0800 C.3       5 GLY6        0.0000 
     63 CA        -26.9600   -9.4300   17.5300 C.3       5 GLY6        0.0000 
     64 CA        -25.2400  -10.5400   16.9700 C.3       5 GLY6        0.0000 
     65 CA        -26.1600  -10.5500   18.1500 C.3       5 GLY6        0.0000 
     66 CA        -25.3700  -11.6600   18.7700 C.3       5 GLY6        0.0000 
     67 CA        -24.5800  -12.7700   19.3900 C.3       5 GLY6        0.0000 
     68 CA        -24.9000  -14.0000   24.8500 C.3       5 GLY6        0.0000 
     69 CA        -20.4000  -15.1100   20.7500 C.3       5 GLY6        0.0000 
     70 CA        -24.1100  -15.1200   25.4700 C.3       5 GLY6        0.0000 
     71 CA        -21.2500  -12.9900   22.0000 C.3       5 GLY6        0.0000 
     72 CA        -23.1000  -13.0000   24.3600 C.3       5 GLY6        0.0000 
     73 CA        -24.0300  -13.0000   25.5400 C.3       5 GLY6        0.0000 
     74 CA        -21.3800  -14.1100   23.8000 C.3       5 GLY6        0.0000 
     75 CA        -22.3100  -14.1100   24.9800 C.3       5 GLY6        0.0000 
     76 CA        -23.8100   -9.7600   23.8100 C.3       5 GLY6        0.0000 
     77 CA        -20.2400  -10.8700   20.8900 C.3       5 GLY6        0.0000 
     78 CA        -23.9500  -10.8800   25.6100 C.3       5 GLY6        0.0000 
     79 DU        -27.0900  -10.5500   19.3300 H         6 CUB7        0.0000 
     80 DU        -26.2200   -9.5400   20.0200 H         6 CUB7        0.0000 
     81 DU        -24.5000  -10.6500   19.4600 H         6 CUB7        0.0000 
     82 DU        -23.7100  -11.7700   20.0800 H         6 CUB7        0.0000 
     83 DU        -25.6900  -12.8900   24.2300 H         6 CUB7        0.0000 
     84 DU        -26.2700   -8.5400   21.8900 H         6 CUB7        0.0000 
     85 DU        -22.0400  -11.8800   21.3800 H         6 CUB7        0.0000 
     86 DU        -25.3900   -7.5400   22.5800 H         6 CUB7        0.0000 
     87 DU        -24.6000   -8.6500   23.2000 H         6 CUB7        0.0000 
@<TRIPOS>BOND
@<TRIPOS>SUBSTRUCTURE
     1 SER1        1 GROUP   
     2 ALA2        6 GROUP   
     3 LYS4       44 GROUP   
     4 PHE5       45 GROUP   
     5 GLY6       61 GROUP   
     6 CUB7       79 GROUP   
@<TRIPOS>SET

