#    Name: 6qu0_2_FMN_CAVITY_N1_4
#    Modification time : Fri May 22 19:29:46 2020

@<TRIPOS>MOLECULE
6qu0_2_FMN_CAVITY_N1_4
   42     0     5     0     0
SMALL
NO_CHARGES


@<TRIPOS>ATOM
      1 OG        -16.0600  -43.7400   14.5600 O.3       1 SER1        0.0000 
      2 O         -17.3500  -43.4100    5.9200 O.2       2 ALA2        0.0000 
      3 O         -16.4700  -42.4000    6.6100 O.2       2 ALA2        0.0000 
      4 O         -17.4000  -42.4000    7.7900 O.2       2 ALA2        0.0000 
      5 N         -21.0200  -40.3000   12.5700 N.am      2 ALA2        0.0000 
      6 O         -17.4500  -41.4000    9.6500 O.2       2 ALA2        0.0000 
      7 O         -18.3800  -41.4100   10.8300 O.2       2 ALA2        0.0000 
      8 N         -19.3000  -41.4100   12.0100 N.am      2 ALA2        0.0000 
      9 N         -20.2300  -41.4100   13.1900 N.am      2 ALA2        0.0000 
     10 O         -18.5100  -42.5200   12.6300 O.2       2 ALA2        0.0000 
     11 O         -17.7200  -43.6400   13.2500 O.2       2 ALA2        0.0000 
     12 N         -18.3000  -39.2900   10.9000 N.am      2 ALA2        0.0000 
     13 O         -17.5000  -40.4000   11.5200 O.2       2 ALA2        0.0000 
     14 N         -17.6400  -41.5200   13.3200 N.am      2 ALA2        0.0000 
     15 N         -18.5700  -41.5200   14.5000 N.am      2 ALA2        0.0000 
     16 O         -16.8500  -42.6300   13.9400 O.2       2 ALA2        0.0000 
     17 N         -15.9700  -41.6300   14.6300 N.am      2 ALA2        0.0000 
     18 O         -15.3200  -43.8600   17.0500 O.2       2 ALA2        0.0000 
     19 CZ        -18.1400  -42.2900    5.3000 C.ar      3 PHE5        0.0000 
     20 CZ        -18.2700  -43.4100    7.1000 C.ar      3 PHE5        0.0000 
     21 CZ        -19.2000  -43.4100    8.2800 C.ar      3 PHE5        0.0000 
     22 CZ        -17.2600  -41.2900    5.9900 C.ar      3 PHE5        0.0000 
     23 CZ        -18.3300  -42.4100    8.9600 C.ar      3 PHE5        0.0000 
     24 CZ        -20.8900  -39.1800   10.7800 C.ar      3 PHE5        0.0000 
     25 CZ        -21.8200  -39.1800   11.9500 C.ar      3 PHE5        0.0000 
     26 CZ        -18.2400  -40.2900    9.0400 C.ar      3 PHE5        0.0000 
     27 CZ        -19.1700  -40.2900   10.2100 C.ar      3 PHE5        0.0000 
     28 CZ        -20.1000  -40.3000   11.3900 C.ar      3 PHE5        0.0000 
     29 CA        -16.3400  -41.2900    4.8100 C.3       4 GLY6        0.0000 
     30 CA        -21.9000  -41.3000   11.8800 C.3       4 GLY6        0.0000 
     31 CA        -19.2500  -42.4100   10.1400 C.3       4 GLY6        0.0000 
     32 CA        -20.1800  -42.4100   11.3200 C.3       4 GLY6        0.0000 
     33 CA        -21.1100  -42.4200   12.5000 C.3       4 GLY6        0.0000 
     34 CA        -17.5900  -42.5200   11.4500 C.3       4 GLY6        0.0000 
     35 CA        -17.3700  -39.2800    9.7200 C.3       4 GLY6        0.0000 
     36 CA        -16.9000  -41.6300   15.8100 C.3       4 GLY6        0.0000 
     37 CA        -15.1800  -42.7400   15.2500 C.3       4 GLY6        0.0000 
     38 CA        -16.1100  -42.7400   16.4300 C.3       4 GLY6        0.0000 
     39 CA        -17.0300  -42.7500   17.6100 C.3       4 GLY6        0.0000 
     40 DU        -19.4400  -42.5300   13.8100 H         5 CUB7        0.0000 
     41 DU        -17.7700  -42.6300   15.1200 H         5 CUB7        0.0000 
     42 DU        -16.9800  -43.7500   15.7400 H         5 CUB7        0.0000 
@<TRIPOS>BOND
@<TRIPOS>SUBSTRUCTURE
     1 SER1        1 GROUP   
     2 ALA2        2 GROUP   
     3 PHE5       19 GROUP   
     4 GLY6       29 GROUP   
     5 CUB7       40 GROUP   
@<TRIPOS>SET

