#    Name: 6qu0_2_FMN
#    Modification time : Fri May 22 19:29:44 2020

@<TRIPOS>MOLECULE
6qu0_2_FMN
   31    33     1     0     1
SMALL
NO_CHARGES


@<TRIPOS>ATOM
      1 N1        -18.0420  -40.6810   10.0020 N.2       1 FMN301      0.0000 
      2 C2        -17.5250  -39.8650    9.0430 C.2       1 FMN301      0.0000 
      3 O2        -16.5920  -40.3190    8.3290 O.2       1 FMN301      0.0000 
      4 N3        -17.9640  -38.5840    8.8870 N.am      1 FMN301      0.0000 
      5 C4        -18.9770  -38.0840    9.6140 C.2       1 FMN301      0.0000 
      6 O4        -19.3330  -36.8990    9.5070 O.2       1 FMN301      0.0000 
      7 C4A       -19.6050  -38.9180   10.6350 C.2       1 FMN301      0.0000 
      8 N5        -20.6780  -38.4620   11.3090 N.2       1 FMN301      0.0000 
      9 C5A       -21.2140  -39.2980   12.2640 C.ar      1 FMN301      0.0000 
     10 C6        -22.3160  -38.8640   12.9990 C.ar      1 FMN301      0.0000 
     11 C7        -22.8580  -39.6960   13.9740 C.ar      1 FMN301      0.0000 
     12 C7M       -23.9840  -39.2210   14.8050 C.3       1 FMN301      0.0000 
     13 C8        -22.3480  -41.0370   14.1930 C.ar      1 FMN301      0.0000 
     14 C8M       -22.8800  -41.9870   15.2400 C.3       1 FMN301      0.0000 
     15 C9        -21.2520  -41.4500   13.4510 C.ar      1 FMN301      0.0000 
     16 C9A       -20.6930  -40.6360   12.4690 C.ar      1 FMN301      0.0000 
     17 N10       -19.5850  -41.1040   11.7070 N.pl3     1 FMN301      0.0000 
     18 C10       -19.0750  -40.2660   10.7540 C.2       1 FMN301      0.0000 
     19 C1'       -18.8900  -42.3390   11.9230 C.3       1 FMN301      0.0000 
     20 C2'       -17.9510  -41.8950   13.1270 C.3       1 FMN301      0.0000 
     21 O2'       -17.0300  -40.7590   12.9230 O.3       1 FMN301      0.0000 
     22 C3'       -17.0510  -42.9900   13.7320 C.3       1 FMN301      0.0000 
     23 O3'       -17.9230  -44.0720   14.1340 O.3       1 FMN301      0.0000 
     24 C4'       -16.0530  -42.6210   14.8570 C.3       1 FMN301      0.0000 
     25 O4'       -15.3040  -43.7900   15.2810 O.3       1 FMN301      0.0000 
     26 C5'       -16.7710  -42.0310   16.0780 C.3       1 FMN301      0.0000 
     27 O5'       -15.9300  -41.9800   17.2420 O.3       1 FMN301      0.0000 
     28 P         -16.0840  -43.0460   18.4350 P.3       1 FMN301      0.0000 
     29 O1P       -17.5580  -43.0140   18.8320 O.co2     1 FMN301      0.0000 
     30 O2P       -15.1000  -42.5000   19.4080 O.co2     1 FMN301      0.0000 
     31 O3P       -15.7080  -44.3690   17.8460 O.co2     1 FMN301      0.0000 
@<TRIPOS>BOND
     1    1    2 1    
     2    1   18 2    
     3    2    3 2    
     4    2    4 am   
     5    4    5 am   
     6    5    6 2    
     7    5    7 1    
     8    7    8 2    
     9    7   18 1    
    10    8    9 1    
    11    9   10 ar   
    12    9   16 ar   
    13   10   11 ar   
    14   11   12 1    
    15   11   13 ar   
    16   13   14 1    
    17   13   15 ar   
    18   15   16 ar   
    19   16   17 1    
    20   17   18 1    
    21   17   19 1    
    22   19   20 1    
    23   20   21 1    
    24   20   22 1    
    25   22   23 1    
    26   22   24 1    
    27   24   25 1    
    28   24   26 1    
    29   26   27 1    
    30   27   28 1    
    31   28   29 ar   
    32   28   30 ar   
    33   28   31 ar   
@<TRIPOS>SUBSTRUCTURE
     1 FMN301      1 GROUP   
@<TRIPOS>SET
ATOM$ORANGE STATIC     ATOMS   COLORGROUP SYSTEM 
34 2 2 5 5 7 7 9 9 10 10 11 11 12 12 13 13 14 \
14 15 15 16 16 18 18 19 19 20 20 22 22 24 24 26 26 

