#    Name: 6qu0_1_FMN
#    Modification time : Fri May 22 19:29:36 2020

@<TRIPOS>MOLECULE
6qu0_1_FMN
   31    33     1     0     1
SMALL
NO_CHARGES


@<TRIPOS>ATOM
      1 N1        -18.9660  -11.4550   18.4870 N.2       1 FMN301      0.0000 
      2 C2        -17.9450  -11.7300   17.6450 C.2       1 FMN301      0.0000 
      3 O2        -17.5810  -10.8980   16.8000 O.2       1 FMN301      0.0000 
      4 N3        -17.3220  -12.8980   17.6230 N.am      1 FMN301      0.0000 
      5 C4        -17.6480  -13.8870   18.4540 C.2       1 FMN301      0.0000 
      6 O4        -17.0110  -14.9620   18.3580 O.2       1 FMN301      0.0000 
      7 C4A       -18.7170  -13.6840   19.4130 C.2       1 FMN301      0.0000 
      8 N5        -19.0690  -14.5990   20.3440 N.2       1 FMN301      0.0000 
      9 C5A       -20.0840  -14.3720   21.1890 C.ar      1 FMN301      0.0000 
     10 C6        -20.4610  -15.3410   22.1250 C.ar      1 FMN301      0.0000 
     11 C7        -21.5210  -15.1200   22.9960 C.ar      1 FMN301      0.0000 
     12 C7M       -21.9270  -16.1500   23.9880 C.3       1 FMN301      0.0000 
     13 C8        -22.2440  -13.8200   22.9620 C.ar      1 FMN301      0.0000 
     14 C8M       -23.3640  -13.5480   23.9250 C.3       1 FMN301      0.0000 
     15 C9        -21.8340  -12.8480   22.0460 C.ar      1 FMN301      0.0000 
     16 C9A       -20.7890  -13.0630   21.1630 C.ar      1 FMN301      0.0000 
     17 N10       -20.3880  -12.1160   20.2240 N.pl3     1 FMN301      0.0000 
     18 C10       -19.3730  -12.3760   19.3670 C.2       1 FMN301      0.0000 
     19 C1'       -21.1130  -10.8770   20.0350 C.3       1 FMN301      0.0000 
     20 C2'       -22.3660  -11.3860   19.1870 C.3       1 FMN301      0.0000 
     21 O2'       -22.0670  -12.0530   17.9140 O.3       1 FMN301      0.0000 
     22 C3'       -23.3800  -10.2990   18.8190 C.3       1 FMN301      0.0000 
     23 O3'       -24.0270   -9.8720   20.0270 O.3       1 FMN301      0.0000 
     24 C4'       -24.4920  -10.8180   17.8870 C.3       1 FMN301      0.0000 
     25 O4'       -25.3500   -9.7170   17.5890 O.3       1 FMN301      0.0000 
     26 C5'       -25.3970  -11.9090   18.4330 C.3       1 FMN301      0.0000 
     27 O5'       -26.6260  -12.0710   17.7000 O.3       1 FMN301      0.0000 
     28 P         -28.0230  -11.6350   18.3140 P.3       1 FMN301      0.0000 
     29 O1P       -28.1660  -12.0870   19.7300 O.co2     1 FMN301      0.0000 
     30 O2P       -29.1180  -12.0900   17.4260 O.co2     1 FMN301      0.0000 
     31 O3P       -27.8460  -10.1140   18.2710 O.co2     1 FMN301      0.0000 
@<TRIPOS>BOND
     1    1    2 1    
     2    1   18 2    
     3    2    3 2    
     4    2    4 am   
     5    4    5 am   
     6    5    6 2    
     7    5    7 1    
     8    7    8 2    
     9    7   18 1    
    10    8    9 1    
    11    9   10 ar   
    12    9   16 ar   
    13   10   11 ar   
    14   11   12 1    
    15   11   13 ar   
    16   13   14 1    
    17   13   15 ar   
    18   15   16 ar   
    19   16   17 1    
    20   17   18 1    
    21   17   19 1    
    22   19   20 1    
    23   20   21 1    
    24   20   22 1    
    25   22   23 1    
    26   22   24 1    
    27   24   25 1    
    28   24   26 1    
    29   26   27 1    
    30   27   28 1    
    31   28   29 ar   
    32   28   30 ar   
    33   28   31 ar   
@<TRIPOS>SUBSTRUCTURE
     1 FMN301      1 GROUP   
@<TRIPOS>SET
ATOM$ORANGE STATIC     ATOMS   COLORGROUP SYSTEM 
34 2 2 5 5 7 7 9 9 10 10 11 11 12 12 13 13 14 \
14 15 15 16 16 18 18 19 19 20 20 22 22 24 24 26 26 

