#    Name: 6rv4_5_Y01
#    Modification time : Fri May 22 19:27:44 2020

@<TRIPOS>MOLECULE
6rv4_5_Y01
   35    38     1     0     0
SMALL
NO_CHARGES


@<TRIPOS>ATOM
      1 CAA       -32.7610   25.6890   45.8410 C.3       1 Y01308      0.0000 
      2 CBA       -31.3510   25.7330   46.3640 C.3       1 Y01308      0.0000 
      3 CAB       -30.4980   26.6730   45.5120 C.3       1 Y01308      0.0000 
      4 CAN       -31.3970   25.9400   47.8890 C.3       1 Y01308      0.0000 
      5 CAJ       -30.0960   25.7380   48.6510 C.3       1 Y01308      0.0000 
      6 CAO       -30.2740   25.4480   50.1370 C.3       1 Y01308      0.0000 
      7 CBB       -29.0550   25.8110   51.0090 C.3       1 Y01308      0.0000 
      8 CAC       -29.1600   27.2670   51.4640 C.3       1 Y01308      0.0000 
      9 CBE       -28.8670   24.8070   52.1690 C.3       1 Y01308      0.0000 
     10 CAP       -28.7450   23.3450   51.6730 C.3       1 Y01308      0.0000 
     11 CAQ       -27.9520   22.5840   52.7560 C.3       1 Y01308      0.0000 
     12 CBG       -27.8140   23.6010   53.9040 C.3       1 Y01308      0.0000 
     13 CBI       -27.6870   24.9610   53.1700 C.3       1 Y01308      0.0000 
     14 CAE       -26.3330   25.1340   52.4420 C.3       1 Y01308      0.0000 
     15 CAU       -27.8520   26.0480   54.2510 C.3       1 Y01308      0.0000 
     16 CAS       -26.8770   25.8970   55.4230 C.3       1 Y01308      0.0000 
     17 CBF       -26.8960   24.5020   56.0750 C.3       1 Y01308      0.0000 
     18 CBD       -26.7840   23.3650   55.0300 C.3       1 Y01308      0.0000 
     19 CAK       -27.0180   22.0130   55.7090 C.3       1 Y01308      0.0000 
     20 CAI       -26.3220   21.8960   57.0320 C.2       1 Y01308      0.0000 
     21 CAZ       -25.8170   22.9130   57.7280 C.2       1 Y01308      0.0000 
     22 CAV       -25.1450   22.6680   59.0660 C.3       1 Y01308      0.0000 
     23 CBH       -25.8570   24.3640   57.2350 C.3       1 Y01308      0.0000 
     24 CAD       -24.4330   24.7630   56.7780 C.3       1 Y01308      0.0000 
     25 CAT       -26.3010   25.2780   58.4000 C.3       1 Y01308      0.0000 
     26 CAR       -25.5650   25.0440   59.7230 C.3       1 Y01308      0.0000 
     27 CBC       -25.6740   23.5960   60.1470 C.3       1 Y01308      0.0000 
     28 OAW       -24.8480   23.4180   61.3430 O.3       1 Y01308      0.0000 
     29 CAY       -25.4080   23.5770   62.5610 C.2       1 Y01308      0.0000 
     30 OAG       -26.5810   23.7650   62.7450 O.2       1 Y01308      0.0000 
     31 CAM       -24.3730   23.5090   63.6430 C.3       1 Y01308      0.0000 
     32 CAL       -23.6250   24.8180   63.8560 C.3       1 Y01308      0.0000 
     33 CAX       -24.5080   25.9740   64.2320 C.2       1 Y01308      0.0000 
     34 OAH       -24.6390   26.1350   65.5190 O.co2     1 Y01308      0.0000 
     35 OAF       -25.0490   26.6920   63.4150 O.co2     1 Y01308      0.0000 
@<TRIPOS>BOND
     1    1    2 1    
     2    2    3 1    
     3    2    4 1    
     4    4    5 1    
     5    5    6 1    
     6    6    7 1    
     7    7    8 1    
     8    7    9 1    
     9    9   10 1    
    10    9   13 1    
    11   10   11 1    
    12   11   12 1    
    13   12   13 1    
    14   12   18 1    
    15   13   14 1    
    16   13   15 1    
    17   15   16 1    
    18   16   17 1    
    19   17   18 1    
    20   17   23 1    
    21   18   19 1    
    22   19   20 1    
    23   20   21 2    
    24   21   22 1    
    25   21   23 1    
    26   22   27 1    
    27   23   24 1    
    28   23   25 1    
    29   25   26 1    
    30   26   27 1    
    31   27   28 1    
    32   28   29 1    
    33   29   30 2    
    34   29   31 1    
    35   31   32 1    
    36   32   33 1    
    37   33   34 ar   
    38   33   35 ar   
@<TRIPOS>SUBSTRUCTURE
     1 Y01308      1 GROUP   
@<TRIPOS>SET

