#    Name: 6rv4_3_Y01
#    Modification time : Fri May 22 19:27:38 2020

@<TRIPOS>MOLECULE
6rv4_3_Y01
   35    38     1     0     0
SMALL
NO_CHARGES


@<TRIPOS>ATOM
      1 CAA       -15.5120  -49.3250   32.8860 C.3       1 Y01301      0.0000 
      2 CBA       -16.3950  -49.9440   31.8040 C.3       1 Y01301      0.0000 
      3 CAB       -17.7410  -49.2530   31.7390 C.3       1 Y01301      0.0000 
      4 CAN       -16.5570  -51.4660   31.8430 C.3       1 Y01301      0.0000 
      5 CAJ       -15.2960  -52.2900   31.6200 C.3       1 Y01301      0.0000 
      6 CAO       -15.5490  -53.7540   31.2850 C.3       1 Y01301      0.0000 
      7 CBB       -14.4060  -54.7080   31.6810 C.3       1 Y01301      0.0000 
      8 CAC       -14.6150  -55.1970   33.1150 C.3       1 Y01301      0.0000 
      9 CBE       -14.2300  -55.8460   30.6470 C.3       1 Y01301      0.0000 
     10 CAP       -14.0090  -55.3110   29.2090 C.3       1 Y01301      0.0000 
     11 CAQ       -13.1920  -56.3850   28.4590 C.3       1 Y01301      0.0000 
     12 CBG       -13.1880  -57.5820   29.4270 C.3       1 Y01301      0.0000 
     13 CBI       -13.1140  -56.9150   30.8240 C.3       1 Y01301      0.0000 
     14 CAE       -11.7350  -56.2750   31.1120 C.3       1 Y01301      0.0000 
     15 CAU       -13.4070  -58.0300   31.8490 C.3       1 Y01301      0.0000 
     16 CAS       -12.4960  -59.2530   31.7050 C.3       1 Y01301      0.0000 
     17 CBF       -12.4630  -59.8430   30.2820 C.3       1 Y01301      0.0000 
     18 CBD       -12.2080  -58.7560   29.2070 C.3       1 Y01301      0.0000 
     19 CAK       -12.3820  -59.3560   27.8110 C.3       1 Y01301      0.0000 
     20 CAI       -11.7670  -60.7160   27.6770 C.2       1 Y01301      0.0000 
     21 CAZ       -11.3830  -61.4920   28.6880 C.2       1 Y01301      0.0000 
     22 CAV       -10.7780  -62.8560   28.4190 C.3       1 Y01301      0.0000 
     23 CBH       -11.4920  -61.0630   30.1560 C.3       1 Y01301      0.0000 
     24 CAD       -10.0740  -60.7200   30.6720 C.3       1 Y01301      0.0000 
     25 CAT       -12.0720  -62.2390   30.9760 C.3       1 Y01301      0.0000 
     26 CAR       -11.4020  -63.5950   30.7250 C.3       1 Y01301      0.0000 
     27 CBC       -11.4270  -63.9470   29.2530 C.3       1 Y01301      0.0000 
     28 OAW       -10.6380  -65.1680   29.0690 O.3       1 Y01301      0.0000 
     29 CAY       -11.2550  -66.3660   29.1220 C.2       1 Y01301      0.0000 
     30 OAG       -12.4430  -66.5050   29.2220 O.2       1 Y01301      0.0000 
     31 CAM       -10.2630  -67.4900   29.0590 C.3       1 Y01301      0.0000 
     32 CAL        -9.6070  -67.8020   30.3980 C.3       1 Y01301      0.0000 
     33 CAX       -10.5700  -68.1670   31.4910 C.2       1 Y01301      0.0000 
     34 OAH       -10.3220  -67.5450   32.6120 O.co2     1 Y01301      0.0000 
     35 OAF       -11.4740  -68.9700   31.3580 O.co2     1 Y01301      0.0000 
@<TRIPOS>BOND
     1    1    2 1    
     2    2    3 1    
     3    2    4 1    
     4    4    5 1    
     5    5    6 1    
     6    6    7 1    
     7    7    8 1    
     8    7    9 1    
     9    9   10 1    
    10    9   13 1    
    11   10   11 1    
    12   11   12 1    
    13   12   13 1    
    14   12   18 1    
    15   13   14 1    
    16   13   15 1    
    17   15   16 1    
    18   16   17 1    
    19   17   18 1    
    20   17   23 1    
    21   18   19 1    
    22   19   20 1    
    23   20   21 2    
    24   21   22 1    
    25   21   23 1    
    26   22   27 1    
    27   23   24 1    
    28   23   25 1    
    29   25   26 1    
    30   26   27 1    
    31   27   28 1    
    32   28   29 1    
    33   29   30 2    
    34   29   31 1    
    35   31   32 1    
    36   32   33 1    
    37   33   34 ar   
    38   33   35 ar   
@<TRIPOS>SUBSTRUCTURE
     1 Y01301      1 GROUP   
@<TRIPOS>SET

