#    Name: 6exi_2_ADN
#    Modification time : Fri May 22 19:40:42 2020

@<TRIPOS>MOLECULE
6exi_2_ADN
   19    21     1     0     0
SMALL
NO_CHARGES


@<TRIPOS>ATOM
      1 O5'        -5.2530   57.8080   13.5980 O.3       1 ADN503      0.0000 
      2 C5'        -4.6410   58.0240   14.8570 C.3       1 ADN503      0.0000 
      3 C4'        -3.5050   57.0540   15.0440 C.3       1 ADN503      0.0000 
      4 O4'        -4.0300   55.7210   14.9560 O.3       1 ADN503      0.0000 
      5 C3'        -2.4260   57.1620   13.9460 C.3       1 ADN503      0.0000 
      6 O3'        -1.1500   57.4690   14.5060 O.3       1 ADN503      0.0000 
      7 C2'        -2.3970   55.7690   13.2860 C.3       1 ADN503      0.0000 
      8 O2'        -1.0960   55.2870   13.0000 O.3       1 ADN503      0.0000 
      9 C1'        -3.0790   54.8930   14.3260 C.3       1 ADN503      0.0000 
     10 N9         -3.7530   53.7300   13.7830 N.pl3     1 ADN503      0.0000 
     11 C8         -4.4310   53.6800   12.6480 C.2       1 ADN503      0.0000 
     12 N7         -4.9090   52.3910   12.5340 N.2       1 ADN503      0.0000 
     13 C5         -4.5180   51.6480   13.6200 C.ar      1 ADN503      0.0000 
     14 C6         -4.6930   50.3160   14.0440 C.ar      1 ADN503      0.0000 
     15 N6         -5.4360   49.3600   13.2850 N.pl3     1 ADN503      0.0000 
     16 N1         -4.1790   49.9190   15.2270 N.ar      1 ADN503      0.0000 
     17 C2         -3.4470   50.7690   15.9790 C.ar      1 ADN503      0.0000 
     18 N3         -3.2560   52.0230   15.6160 N.ar      1 ADN503      0.0000 
     19 C4         -3.7650   52.4830   14.4230 C.ar      1 ADN503      0.0000 
@<TRIPOS>BOND
     1    1    2 1    
     2    2    3 1    
     3    3    4 1    
     4    3    5 1    
     5    4    9 1    
     6    5    6 1    
     7    5    7 1    
     8    7    8 1    
     9    7    9 1    
    10    9   10 1    
    11   10   11 1    
    12   10   19 1    
    13   11   12 2    
    14   12   13 1    
    15   13   14 ar   
    16   13   19 ar   
    17   14   15 1    
    18   14   16 ar   
    19   16   17 ar   
    20   17   18 ar   
    21   18   19 ar   
@<TRIPOS>SUBSTRUCTURE
     1 ADN503      1 GROUP   
@<TRIPOS>SET

