#    Name: 6exi_2_ADN_CAVITY_N1_4
#    Modification time : Fri May 22 19:40:42 2020

@<TRIPOS>MOLECULE
6exi_2_ADN_CAVITY_N1_4
   57     0     5     0     0
SMALL
NO_CHARGES


@<TRIPOS>ATOM
      1 N          -7.3500   59.0800   11.7100 N.am      1 ALA2        0.0000 
      2 N          -6.4900   57.9200   11.2800 N.am      1 ALA2        0.0000 
      3 N          -5.6400   56.7700   10.8400 N.am      1 ALA2        0.0000 
      4 N          -5.4400   54.7400   11.4400 N.am      1 ALA2        0.0000 
      5 N          -6.1000   53.8700   12.4700 N.am      1 ALA2        0.0000 
      6 O          -5.2400   52.7200   12.0300 O.2       1 ALA2        0.0000 
      7 O          -5.0400   50.6900   12.6300 O.2       1 ALA2        0.0000 
      8 N          -6.3000   59.4700   12.7100 N.am      1 ALA2        0.0000 
      9 N          -6.9600   58.6000   13.7400 N.am      1 ALA2        0.0000 
     10 N          -5.4500   58.3200   12.2800 N.am      1 ALA2        0.0000 
     11 N          -4.5900   57.1700   11.8500 N.am      1 ALA2        0.0000 
     12 N          -4.4000   55.1400   12.4400 N.am      1 ALA2        0.0000 
     13 N          -5.0500   54.2700   13.4700 N.am      1 ALA2        0.0000 
     14 N          -5.9200   59.0000   14.7400 N.am      1 ALA2        0.0000 
     15 N          -4.4100   58.7200   13.2800 N.am      1 ALA2        0.0000 
     16 N          -5.0600   57.8400   14.3100 N.am      1 ALA2        0.0000 
     17 N          -4.2100   56.6900   13.8800 N.am      1 ALA2        0.0000 
     18 N          -4.8700   55.8200   14.9100 N.am      1 ALA2        0.0000 
     19 N          -3.3500   55.5400   13.4400 N.am      1 ALA2        0.0000 
     20 N          -4.0100   54.6600   14.4700 N.am      1 ALA2        0.0000 
     21 O          -4.0200   58.2400   15.3100 O.2       1 ALA2        0.0000 
     22 OD1        -3.5500   57.5600   12.8500 O.co2     2 ASP3        0.0000 
     23 OD1        -2.5100   57.9600   13.8500 O.co2     2 ASP3        0.0000 
     24 NZ         -3.1700   57.0900   14.8800 N.4       3 LYS4        0.0000 
     25 NZ         -2.3100   55.9300   14.4500 N.4       3 LYS4        0.0000 
     26 NZ         -2.9700   55.0600   15.4800 N.4       3 LYS4        0.0000 
     27 CA         -8.8600   59.3600   13.1700 C.3       4 GLY6        0.0000 
     28 CA         -6.6900   59.9500   10.6800 C.3       4 GLY6        0.0000 
     29 CA         -4.9800   57.6400    9.8200 C.3       4 GLY6        0.0000 
     30 CA         -4.7800   55.6200   10.4100 C.3       4 GLY6        0.0000 
     31 CA         -4.5800   53.5900   11.0100 C.3       4 GLY6        0.0000 
     32 CA         -5.9000   51.8400   13.0600 C.3       4 GLY6        0.0000 
     33 CA         -4.3800   51.5600   11.6000 C.3       4 GLY6        0.0000 
     34 CA         -7.1600   60.6300   13.1500 C.3       4 GLY6        0.0000 
     35 CA         -5.6500   60.3500   11.6900 C.3       4 GLY6        0.0000 
     36 CA         -3.5400   53.9900   12.0100 C.3       4 GLY6        0.0000 
     37 CA         -4.2000   53.1100   13.0400 C.3       4 GLY6        0.0000 
     38 CA         -4.8500   52.2400   14.0600 C.3       4 GLY6        0.0000 
     39 CA         -4.0000   51.0900   13.6300 C.3       4 GLY6        0.0000 
     40 CA         -4.6600   50.2100   14.6600 C.3       4 GLY6        0.0000 
     41 CA         -3.7500   59.5900   12.2600 C.3       4 GLY6        0.0000 
     42 CA         -4.6700   53.7900   15.5000 C.3       4 GLY6        0.0000 
     43 CA         -2.5000   54.3800   13.0100 C.3       4 GLY6        0.0000 
     44 CA         -3.1500   53.5100   14.0400 C.3       4 GLY6        0.0000 
     45 CA         -3.8100   52.6400   15.0700 C.3       4 GLY6        0.0000 
     46 CA         -4.4700   51.7600   16.0900 C.3       4 GLY6        0.0000 
     47 CA         -2.9600   51.4800   14.6300 C.3       4 GLY6        0.0000 
     48 CA         -3.6100   50.6100   15.6600 C.3       4 GLY6        0.0000 
     49 CA         -2.7100   59.9900   13.2600 C.3       4 GLY6        0.0000 
     50 CA         -3.3600   59.1100   14.2900 C.3       4 GLY6        0.0000 
     51 CA         -3.8200   56.2100   15.9100 C.3       4 GLY6        0.0000 
     52 CA         -2.7700   53.0300   16.0700 C.3       4 GLY6        0.0000 
     53 DU         -5.8400   58.8000   10.2500 H         5 CUB7        0.0000 
     54 DU         -4.7900   59.1900   11.2500 H         5 CUB7        0.0000 
     55 DU         -6.1200   61.0200   14.1500 H         5 CUB7        0.0000 
     56 DU         -4.6100   60.7400   12.6900 H         5 CUB7        0.0000 
     57 DU         -5.2600   59.8700   13.7200 H         5 CUB7        0.0000 
@<TRIPOS>BOND
@<TRIPOS>SUBSTRUCTURE
     1 ALA2        1 GROUP   
     2 ASP3       22 GROUP   
     3 LYS4       24 GROUP   
     4 GLY6       27 GROUP   
     5 CUB7       53 GROUP   
@<TRIPOS>SET

