#    Name: 6hu9_1_UQ6
#    Modification time : Fri May 22 19:30:02 2020

@<TRIPOS>MOLECULE
6hu9_1_UQ6
   43    43     1     0     0
SMALL
NO_CHARGES


@<TRIPOS>ATOM
      1 C1        211.5640  218.0400  221.9230 C.ar      1 UQ6603      0.0000 
      2 C1M       210.9670  216.6560  221.9240 C.3       1 UQ6603      0.0000 
      3 C2        210.9280  219.1250  222.7210 C.ar      1 UQ6603      0.0000 
      4 O2        209.8070  218.8800  223.4470 O.3       1 UQ6603      0.0000 
      5 C3        211.5140  220.4920  222.7230 C.ar      1 UQ6603      0.0000 
      6 C4        212.7350  220.7780  221.9260 C.ar      1 UQ6603      0.0000 
      7 C5        213.3720  219.6990  221.1320 C.ar      1 UQ6603      0.0000 
      8 O5        214.4900  219.9680  220.4050 O.3       1 UQ6603      0.0000 
      9 C6        212.7910  218.3310  221.1300 C.ar      1 UQ6603      0.0000 
     10 O3        210.9280  221.4930  223.4510 O.3       1 UQ6603      0.0000 
     11 C3M       211.2950  221.7220  224.8100 C.3       1 UQ6603      0.0000 
     12 O4        213.2730  222.0360  221.9250 O.3       1 UQ6603      0.0000 
     13 C4M       214.3830  222.3450  222.7620 C.3       1 UQ6603      0.0000 
     14 C7        213.4550  217.2590  220.3000 C.3       1 UQ6603      0.0000 
     15 C8        212.8520  217.3590  218.9170 C.2       1 UQ6603      0.0000 
     16 C9        213.5650  217.5380  217.7970 C.2       1 UQ6603      0.0000 
     17 C10       215.0460  217.6640  217.8330 C.3       1 UQ6603      0.0000 
     18 C11       212.8820  217.6390  216.4610 C.3       1 UQ6603      0.0000 
     19 C12       213.5990  216.8090  215.4100 C.3       1 UQ6603      0.0000 
     20 C13       213.4980  217.5220  214.0850 C.2       1 UQ6603      0.0000 
     21 C14       212.6060  217.1740  213.1440 C.2       1 UQ6603      0.0000 
     22 C15       211.6420  216.0470  213.3540 C.3       1 UQ6603      0.0000 
     23 C16       212.5710  217.9230  211.8390 C.3       1 UQ6603      0.0000 
     24 C17       212.9690  217.0050  210.6850 C.3       1 UQ6603      0.0000 
     25 C18       214.3050  216.3220  210.9010 C.2       1 UQ6603      0.0000 
     26 C19       214.4620  215.0000  210.6990 C.2       1 UQ6603      0.0000 
     27 C20       213.3090  214.1570  210.2390 C.3       1 UQ6603      0.0000 
     28 C21       215.8130  214.3590  210.9220 C.3       1 UQ6603      0.0000 
     29 C22       215.6820  212.9240  211.4270 C.3       1 UQ6603      0.0000 
     30 C23       216.4560  212.0040  210.5130 C.2       1 UQ6603      0.0000 
     31 C24       216.1040  210.7300  210.2840 C.2       1 UQ6603      0.0000 
     32 C25       216.9570  209.9220  209.3530 C.3       1 UQ6603      0.0000 
     33 C26       214.8920  210.1270  210.9640 C.3       1 UQ6603      0.0000 
     34 C27       214.5070  208.7370  210.4470 C.3       1 UQ6603      0.0000 
     35 C28       213.4310  208.9080  209.3990 C.2       1 UQ6603      0.0000 
     36 C29       212.8630  207.9060  208.7100 C.2       1 UQ6603      0.0000 
     37 C30       211.8120  208.2590  207.7000 C.3       1 UQ6603      0.0000 
     38 C31       213.2340  206.4570  208.9370 C.3       1 UQ6603      0.0000 
     39 C32       211.9590  205.6270  209.0790 C.3       1 UQ6603      0.0000 
     40 C33       211.8000  204.6650  207.9180 C.2       1 UQ6603      0.0000 
     41 C34       210.7010  203.9020  207.7600 C.2       1 UQ6603      0.0000 
     42 C35       210.5860  202.9600  206.5960 C.3       1 UQ6603      0.0000 
     43 C36       209.5630  203.9850  208.7320 C.3       1 UQ6603      0.0000 
@<TRIPOS>BOND
     1    1    2 1    
     2    1    3 ar   
     3    1    9 ar   
     4    3    4 1    
     5    3    5 ar   
     6    5    6 ar   
     7    5   10 1    
     8    6    7 ar   
     9    6   12 1    
    10    7    8 1    
    11    7    9 ar   
    12    9   14 1    
    13   10   11 1    
    14   12   13 1    
    15   14   15 1    
    16   15   16 2    
    17   16   17 1    
    18   16   18 1    
    19   18   19 1    
    20   19   20 1    
    21   20   21 2    
    22   21   22 1    
    23   21   23 1    
    24   23   24 1    
    25   24   25 1    
    26   25   26 2    
    27   26   27 1    
    28   26   28 1    
    29   28   29 1    
    30   29   30 1    
    31   30   31 2    
    32   31   32 1    
    33   31   33 1    
    34   33   34 1    
    35   34   35 1    
    36   35   36 2    
    37   36   37 1    
    38   36   38 1    
    39   38   39 1    
    40   39   40 1    
    41   40   41 2    
    42   41   42 1    
    43   41   43 1    
@<TRIPOS>SUBSTRUCTURE
     1 UQ6603      1 GROUP   
@<TRIPOS>SET

