#    Name: 6aog_2_CP6
#    Modification time : Fri May 22 19:34:50 2020

@<TRIPOS>MOLECULE
6aog_2_CP6
   17    18     1     0     0
SMALL
NO_CHARGES


@<TRIPOS>ATOM
      1 N1         28.6380   96.0630  -72.3020 N.ar      1 CP6704      0.0000 
      2 C2         29.3110   95.4100  -71.3290 C.ar      1 CP6704      0.0000 
      3 C3         29.2600   96.9560  -73.1150 C.ar      1 CP6704      0.0000 
      4 C4         30.6230   97.2200  -72.9650 C.ar      1 CP6704      0.0000 
      5 C5         31.2920   96.5170  -71.9420 C.ar      1 CP6704      0.0000 
      6 N6         30.6240   95.6410  -71.1580 N.ar      1 CP6704      0.0000 
      7 C7         31.2720   98.1430  -73.8100 C.ar      1 CP6704      0.0000 
      8 C8         32.6360   98.4070  -73.6550 C.ar      1 CP6704      0.0000 
      9 C9         33.3240   99.3080  -74.4630 C.ar      1 CP6704      0.0000 
     10 C10        32.6490   99.9900  -75.4650 C.ar      1 CP6704      0.0000 
     11 C11        31.2870   99.7560  -75.6490 C.ar      1 CP6704      0.0000 
     12 C12        30.6060   98.8400  -74.8300 C.ar      1 CP6704      0.0000 
     13 N13        28.5270   97.5830  -74.0760 N.pl3     1 CP6704      0.0000 
     14 N14        28.6740   94.5220  -70.5280 N.pl3     1 CP6704      0.0000 
     15 C15        32.7740   96.6820  -71.6260 C.3       1 CP6704      0.0000 
     16 C16        33.6120   95.6970  -72.4280 C.3       1 CP6704      0.0000 
     17 CL1        33.5700  101.1500  -76.4870 Cl        1 CP6704      0.0000 
@<TRIPOS>BOND
     1    1    2 ar   
     2    1    3 ar   
     3    2    6 ar   
     4    2   14 1    
     5    3    4 ar   
     6    3   13 1    
     7    4    5 ar   
     8    4    7 1    
     9    5    6 ar   
    10    5   15 1    
    11    7    8 ar   
    12    7   12 ar   
    13    8    9 ar   
    14    9   10 ar   
    15   10   11 ar   
    16   10   17 1    
    17   11   12 ar   
    18   15   16 1    
@<TRIPOS>SUBSTRUCTURE
     1 CP6704      1 GROUP   
@<TRIPOS>SET

