#    Name: 6aog_4_CP6
#    Modification time : Fri May 22 19:35:02 2020

@<TRIPOS>MOLECULE
6aog_4_CP6
   17    18     1     0     0
SMALL
NO_CHARGES


@<TRIPOS>ATOM
      1 N1          6.2100   41.3800  -63.7350 N.ar      1 CP6704      0.0000 
      2 C2          6.3800   42.0240  -62.5610 C.ar      1 CP6704      0.0000 
      3 C3          5.1810   40.5200  -63.9250 C.ar      1 CP6704      0.0000 
      4 C4          4.2610   40.2800  -62.8990 C.ar      1 CP6704      0.0000 
      5 C5          4.4690   40.9680  -61.6890 C.ar      1 CP6704      0.0000 
      6 N6          5.5140   41.8140  -61.5520 N.ar      1 CP6704      0.0000 
      7 C7          3.1880   39.3900  -63.0900 C.ar      1 CP6704      0.0000 
      8 C8          2.2760   39.1510  -62.0570 C.ar      1 CP6704      0.0000 
      9 C9          1.2010   38.2780  -62.2010 C.ar      1 CP6704      0.0000 
     10 C10         1.0170   37.6090  -63.4030 C.ar      1 CP6704      0.0000 
     11 C11         1.9050   37.8210  -64.4570 C.ar      1 CP6704      0.0000 
     12 C12         2.9820   38.7050  -64.2990 C.ar      1 CP6704      0.0000 
     13 N13         5.0710   39.9090  -65.1390 N.pl3     1 CP6704      0.0000 
     14 N14         7.4200   42.8810  -62.4010 N.pl3     1 CP6704      0.0000 
     15 C15         3.5810   40.8220  -60.4600 C.3       1 CP6704      0.0000 
     16 C16         2.4310   41.8170  -60.4920 C.3       1 CP6704      0.0000 
     17 CL1        -0.3780   36.4910  -63.5540 Cl        1 CP6704      0.0000 
@<TRIPOS>BOND
     1    1    2 ar   
     2    1    3 ar   
     3    2    6 ar   
     4    2   14 1    
     5    3    4 ar   
     6    3   13 1    
     7    4    5 ar   
     8    4    7 1    
     9    5    6 ar   
    10    5   15 1    
    11    7    8 ar   
    12    7   12 ar   
    13    8    9 ar   
    14    9   10 ar   
    15   10   11 ar   
    16   10   17 1    
    17   11   12 ar   
    18   15   16 1    
@<TRIPOS>SUBSTRUCTURE
     1 CP6704      1 GROUP   
@<TRIPOS>SET

