#    Name: 6aog_3_CB3
#    Modification time : Fri May 22 19:34:57 2020

@<TRIPOS>MOLECULE
6aog_3_CB3
   35    37     1     0     0
SMALL
NO_CHARGES


@<TRIPOS>ATOM
      1 N1         42.1290   54.0780  -41.1500 N.pl3     1 CB3703      0.0000 
      2 C2         42.0040   54.2880  -42.4720 C.2       1 CB3703      0.0000 
      3 NA2        43.0040   54.9160  -43.1340 N.pl3     1 CB3703      0.0000 
      4 N3         40.9090   53.9080  -43.1740 N.2       1 CB3703      0.0000 
      5 C4         39.8670   53.2820  -42.5870 C.2       1 CB3703      0.0000 
      6 O4         38.8660   52.9380  -43.2520 O.2       1 CB3703      0.0000 
      7 C4A        39.9500   53.0200  -41.1320 C.ar      1 CB3703      0.0000 
      8 C5         38.9460   52.3840  -40.4190 C.ar      1 CB3703      0.0000 
      9 C6         39.1100   52.1800  -39.0540 C.ar      1 CB3703      0.0000 
     10 C7         40.2640   52.6040  -38.3980 C.ar      1 CB3703      0.0000 
     11 C8         41.2950   53.2450  -39.0780 C.ar      1 CB3703      0.0000 
     12 C8A        41.1730   53.4690  -40.4400 C.ar      1 CB3703      0.0000 
     13 C9         38.0260   51.4850  -38.2690 C.3       1 CB3703      0.0000 
     14 N10        37.1110   50.8190  -39.1830 N.pl3     1 CB3703      0.0000 
     15 C11        38.4270   48.0000  -42.0000 C.ar      1 CB3703      0.0000 
     16 C12        37.0830   48.3570  -41.9410 C.ar      1 CB3703      0.0000 
     17 C13        36.6520   49.2920  -41.0050 C.ar      1 CB3703      0.0000 
     18 C14        37.5580   49.8780  -40.1250 C.ar      1 CB3703      0.0000 
     19 C15        38.9010   49.5220  -40.1850 C.ar      1 CB3703      0.0000 
     20 C16        39.3300   48.5840  -41.1200 C.ar      1 CB3703      0.0000 
     21 C          38.9100   46.9900  -43.0050 C.2       1 CB3703      0.0000 
     22 O          39.9870   46.4440  -42.8300 O.2       1 CB3703      0.0000 
     23 N          38.1590   46.7120  -44.0660 N.am      1 CB3703      0.0000 
     24 CA         37.1290   45.6940  -44.0130 C.3       1 CB3703      0.0000 
     25 CB         36.1460   45.8740  -45.1650 C.3       1 CB3703      0.0000 
     26 CG         34.8570   46.5280  -44.6740 C.3       1 CB3703      0.0000 
     27 CD         34.2540   47.3560  -45.7840 C.2       1 CB3703      0.0000 
     28 OE1        33.8020   48.4930  -45.5170 O.co2     1 CB3703      0.0000 
     29 OE2        34.2300   46.8670  -46.9340 O.co2     1 CB3703      0.0000 
     30 CT         37.7130   44.3120  -44.0460 C.2       1 CB3703      0.0000 
     31 O1         38.5590   44.0020  -43.1810 O.co2     1 CB3703      0.0000 
     32 O2         37.3290   43.5210  -44.9330 O.co2     1 CB3703      0.0000 
     33 CP1        35.6980   51.1370  -39.1030 C.3       1 CB3703      0.0000 
     34 CP2        35.3180   52.0050  -40.2240 C.1       1 CB3703      0.0000 
     35 CP3        35.0610   52.8450  -41.1500 C.1       1 CB3703      0.0000 
@<TRIPOS>BOND
     1    1    2 1    
     2    1   12 1    
     3    2    3 1    
     4    2    4 2    
     5    4    5 1    
     6    5    6 2    
     7    5    7 1    
     8    7    8 ar   
     9    7   12 ar   
    10    8    9 ar   
    11    9   10 ar   
    12    9   13 1    
    13   10   11 ar   
    14   11   12 ar   
    15   13   14 1    
    16   14   18 1    
    17   14   33 1    
    18   15   16 ar   
    19   15   20 ar   
    20   15   21 1    
    21   16   17 ar   
    22   17   18 ar   
    23   18   19 ar   
    24   19   20 ar   
    25   21   22 2    
    26   21   23 am   
    27   23   24 1    
    28   24   25 1    
    29   24   30 1    
    30   25   26 1    
    31   26   27 1    
    32   27   28 ar   
    33   27   29 ar   
    34   30   31 ar   
    35   30   32 ar   
    36   33   34 1    
    37   34   35 3    
@<TRIPOS>SUBSTRUCTURE
     1 CB3703      1 GROUP   
@<TRIPOS>SET

