#    Name: 6aog_1_CB3
#    Modification time : Fri May 22 19:34:45 2020

@<TRIPOS>MOLECULE
6aog_1_CB3
   35    37     1     0     0
SMALL
NO_CHARGES


@<TRIPOS>ATOM
      1 N1         17.3450   83.1670  -31.7890 N.pl3     1 CB3703      0.0000 
      2 C2         16.5760   82.8920  -32.8590 C.2       1 CB3703      0.0000 
      3 NA2        15.4050   82.2360  -32.6690 N.pl3     1 CB3703      0.0000 
      4 N3         16.9300   83.2390  -34.1230 N.2       1 CB3703      0.0000 
      5 C4         18.0810   83.8890  -34.3940 C.2       1 CB3703      0.0000 
      6 O4         18.3900   84.2020  -35.5630 O.2       1 CB3703      0.0000 
      7 C4A        18.9640   84.2200  -33.2540 C.ar      1 CB3703      0.0000 
      8 C5         20.1680   84.8880  -33.4050 C.ar      1 CB3703      0.0000 
      9 C6         20.9330   85.1570  -32.2750 C.ar      1 CB3703      0.0000 
     10 C7         20.5130   84.7690  -31.0040 C.ar      1 CB3703      0.0000 
     11 C8         19.3090   84.0980  -30.8120 C.ar      1 CB3703      0.0000 
     12 C8A        18.5120   83.8070  -31.9090 C.ar      1 CB3703      0.0000 
     13 C9         22.2420   85.8830  -32.4340 C.3       1 CB3703      0.0000 
     14 N10        22.3190   86.4750  -33.7600 N.pl3     1 CB3703      0.0000 
     15 C11        19.4970   89.2390  -35.1510 C.ar      1 CB3703      0.0000 
     16 C12        20.6180   88.9380  -35.9120 C.ar      1 CB3703      0.0000 
     17 C13        21.5470   88.0160  -35.4410 C.ar      1 CB3703      0.0000 
     18 C14        21.3610   87.3890  -34.2150 C.ar      1 CB3703      0.0000 
     19 C15        20.2410   87.6900  -33.4510 C.ar      1 CB3703      0.0000 
     20 C16        19.3130   88.6150  -33.9210 C.ar      1 CB3703      0.0000 
     21 C          18.4900   90.2370  -35.6500 C.2       1 CB3703      0.0000 
     22 O          17.7510   90.7860  -34.8510 O.2       1 CB3703      0.0000 
     23 N          18.4280   90.5150  -36.9500 N.am      1 CB3703      0.0000 
     24 CA         19.2410   91.5600  -37.5390 C.3       1 CB3703      0.0000 
     25 CB         19.2820   91.4050  -39.0550 C.3       1 CB3703      0.0000 
     26 CG         20.4900   90.5700  -39.4700 C.3       1 CB3703      0.0000 
     27 CD         20.1760   89.8260  -40.7460 C.2       1 CB3703      0.0000 
     28 OE1        20.1570   88.5750  -40.7310 O.co2     1 CB3703      0.0000 
     29 OE2        19.9430   90.4960  -41.7750 O.co2     1 CB3703      0.0000 
     30 CT         18.7400   92.9260  -37.1760 C.2       1 CB3703      0.0000 
     31 O1         18.3300   93.1130  -36.0100 O.co2     1 CB3703      0.0000 
     32 O2         18.7540   93.8230  -38.0480 O.co2     1 CB3703      0.0000 
     33 CP1        23.4430   86.1390  -34.6110 C.3       1 CB3703      0.0000 
     34 CP2        23.0800   85.1300  -35.6150 C.1       1 CB3703      0.0000 
     35 CP3        22.7160   84.1810  -36.3940 C.1       1 CB3703      0.0000 
@<TRIPOS>BOND
     1    1    2 1    
     2    1   12 1    
     3    2    3 1    
     4    2    4 2    
     5    4    5 1    
     6    5    6 2    
     7    5    7 1    
     8    7    8 ar   
     9    7   12 ar   
    10    8    9 ar   
    11    9   10 ar   
    12    9   13 1    
    13   10   11 ar   
    14   11   12 ar   
    15   13   14 1    
    16   14   18 1    
    17   14   33 1    
    18   15   16 ar   
    19   15   20 ar   
    20   15   21 1    
    21   16   17 ar   
    22   17   18 ar   
    23   18   19 ar   
    24   19   20 ar   
    25   21   22 2    
    26   21   23 am   
    27   23   24 1    
    28   24   25 1    
    29   24   30 1    
    30   25   26 1    
    31   26   27 1    
    32   27   28 ar   
    33   27   29 ar   
    34   30   31 ar   
    35   30   32 ar   
    36   33   34 1    
    37   34   35 3    
@<TRIPOS>SUBSTRUCTURE
     1 CB3703      1 GROUP   
@<TRIPOS>SET

