#    Name: 6aog_4_CP6_CAVITY_N1_4
#    Modification time : Fri May 22 19:35:03 2020

@<TRIPOS>MOLECULE
6aog_4_CP6_CAVITY_N1_4
   75     0     6     0     0
SMALL
NO_CHARGES


@<TRIPOS>ATOM
      1 OG         -0.3600   35.0300  -62.3700 O.3       1 SER1        0.0000 
      2 OG          0.1000   36.1100  -61.4400 O.3       1 SER1        0.0000 
      3 OG          0.3200   35.0900  -60.3600 O.3       1 SER1        0.0000 
      4 N           2.4900   37.7500  -64.5400 N.am      2 ALA2        0.0000 
      5 N          -1.0900   35.2900  -59.8900 N.am      2 ALA2        0.0000 
      6 N           4.3600   38.6400  -64.0800 N.am      2 ALA2        0.0000 
      7 N           2.9500   38.8400  -63.6100 N.am      2 ALA2        0.0000 
      8 O           4.8300   39.7200  -63.1500 O.2       2 ALA2        0.0000 
      9 O           5.2900   40.8000  -62.2200 O.2       2 ALA2        0.0000 
     10 NZ          4.1000   39.9800  -60.6700 N.4       3 LYS4        0.0000 
     11 NZ          2.6900   40.1800  -60.2000 N.4       3 LYS4        0.0000 
     12 NZ          4.3500   42.0800  -60.8200 N.4       3 LYS4        0.0000 
     13 NZ          2.9400   42.2800  -60.3500 N.4       3 LYS4        0.0000 
     14 NZ          3.1500   41.2600  -59.2700 N.4       3 LYS4        0.0000 
     15 NZ          3.3700   40.2400  -58.1900 N.4       3 LYS4        0.0000 
     16 CZ         -0.5500   39.1700  -64.6700 C.ar      4 PHE5        0.0000 
     17 CZ          2.7400   39.8600  -64.6900 C.ar      4 PHE5        0.0000 
     18 CZ         -0.0800   40.2500  -63.7400 C.ar      4 PHE5        0.0000 
     19 CZ         -1.4900   40.4500  -63.2700 C.ar      4 PHE5        0.0000 
     20 CZ          4.6100   40.7400  -64.2300 C.ar      4 PHE5        0.0000 
     21 CZ          1.7900   41.1400  -63.2800 C.ar      4 PHE5        0.0000 
     22 CZ         -1.0300   41.5300  -62.3400 C.ar      4 PHE5        0.0000 
     23 CZ          3.4200   39.9200  -62.6800 C.ar      4 PHE5        0.0000 
     24 CZ          2.0100   40.1200  -62.2100 C.ar      4 PHE5        0.0000 
     25 CZ          0.6000   40.3100  -61.7300 C.ar      4 PHE5        0.0000 
     26 CZ         -0.8100   40.5100  -61.2600 C.ar      4 PHE5        0.0000 
     27 CZ         -0.6000   39.4900  -60.1800 C.ar      4 PHE5        0.0000 
     28 CZ          5.0800   41.8200  -63.3000 C.ar      4 PHE5        0.0000 
     29 CZ          3.8800   41.0000  -61.7500 C.ar      4 PHE5        0.0000 
     30 CZ          2.4700   41.2000  -61.2800 C.ar      4 PHE5        0.0000 
     31 CZ          1.0600   41.4000  -60.8000 C.ar      4 PHE5        0.0000 
     32 CZ          1.2800   40.3700  -59.7300 C.ar      4 PHE5        0.0000 
     33 CZ         -0.1300   40.5700  -59.2500 C.ar      4 PHE5        0.0000 
     34 CZ          1.7400   41.4600  -58.8000 C.ar      4 PHE5        0.0000 
     35 CZ          0.5500   40.6300  -57.2500 C.ar      4 PHE5        0.0000 
     36 CA          0.6200   36.8700  -65.0000 C.3       5 GLY6        0.0000 
     37 CA         -0.7900   37.0700  -64.5300 C.3       5 GLY6        0.0000 
     38 CA          0.8300   35.8500  -63.9200 C.3       5 GLY6        0.0000 
     39 CA         -0.5800   36.0500  -63.4500 C.3       5 GLY6        0.0000 
     40 CA         -1.9600   39.3700  -64.2000 C.3       5 GLY6        0.0000 
     41 CA          1.0800   37.9500  -64.0700 C.3       5 GLY6        0.0000 
     42 CA         -0.3300   38.1500  -63.6000 C.3       5 GLY6        0.0000 
     43 CA         -1.7400   38.3500  -63.1200 C.3       5 GLY6        0.0000 
     44 CA         -0.1100   37.1300  -62.5200 C.3       5 GLY6        0.0000 
     45 CA         -1.5200   37.3300  -62.0500 C.3       5 GLY6        0.0000 
     46 CA         -2.9300   37.5300  -61.5700 C.3       5 GLY6        0.0000 
     47 CA         -1.3100   36.3100  -60.9700 C.3       5 GLY6        0.0000 
     48 CA         -2.7200   36.5100  -60.5000 C.3       5 GLY6        0.0000 
     49 CA          1.7300   34.8900  -60.8300 C.3       5 GLY6        0.0000 
     50 CA          3.3900   36.7900  -61.4500 C.3       5 GLY6        0.0000 
     51 CA          1.9800   36.9900  -60.9800 C.3       5 GLY6        0.0000 
     52 CA          0.5700   37.1900  -60.5100 C.3       5 GLY6        0.0000 
     53 CA          0.7800   36.1700  -59.4300 C.3       5 GLY6        0.0000 
     54 CA          3.8500   37.8700  -60.5200 C.3       5 GLY6        0.0000 
     55 CA          1.0300   38.2700  -59.5800 C.3       5 GLY6        0.0000 
     56 CA         -0.3800   38.4700  -59.1100 C.3       5 GLY6        0.0000 
     57 CA          5.5100   39.7800  -61.1400 C.3       5 GLY6        0.0000 
     58 CA          4.3100   38.9600  -59.5900 C.3       5 GLY6        0.0000 
     59 CA          2.9100   39.1600  -59.1200 C.3       5 GLY6        0.0000 
     60 CA          1.5000   39.3500  -58.6500 C.3       5 GLY6        0.0000 
     61 CA          0.0900   39.5500  -58.1800 C.3       5 GLY6        0.0000 
     62 CA          1.9600   40.4400  -57.7200 C.3       5 GLY6        0.0000 
     63 DU          1.3000   36.9300  -62.9900 H         6 CUB7        0.0000 
     64 DU          1.5100   35.9100  -61.9100 H         6 CUB7        0.0000 
     65 DU          1.5400   39.0300  -63.1400 H         6 CUB7        0.0000 
     66 DU          0.1300   39.2300  -62.6600 H         6 CUB7        0.0000 
     67 DU         -1.2800   39.4300  -62.1900 H         6 CUB7        0.0000 
     68 DU          3.1700   37.8100  -62.5300 H         6 CUB7        0.0000 
     69 DU          1.7600   38.0100  -62.0600 H         6 CUB7        0.0000 
     70 DU          0.3500   38.2100  -61.5900 H         6 CUB7        0.0000 
     71 DU         -1.0600   38.4100  -61.1200 H         6 CUB7        0.0000 
     72 DU         -0.8400   37.3900  -60.0400 H         6 CUB7        0.0000 
     73 DU          3.6300   38.9000  -61.6000 H         6 CUB7        0.0000 
     74 DU          2.2200   39.0900  -61.1300 H         6 CUB7        0.0000 
     75 DU          0.8100   39.2900  -60.6600 H         6 CUB7        0.0000 
@<TRIPOS>BOND
@<TRIPOS>SUBSTRUCTURE
     1 SER1        1 GROUP   
     2 ALA2        4 GROUP   
     3 LYS4       10 GROUP   
     4 PHE5       16 GROUP   
     5 GLY6       36 GROUP   
     6 CUB7       63 GROUP   
@<TRIPOS>SET

