#    Name: 6s2j_1_ATP
#    Modification time : Fri May 22 19:25:58 2020

@<TRIPOS>MOLECULE
6s2j_1_ATP
   40    42     1     0     1
SMALL
NO_CHARGES


@<TRIPOS>ATOM
      1 PG         40.3780   73.7620  -11.3270 P.3       1 ATP601      0.0000 
      2 O1G        40.5100   72.3400  -11.8490 O.co2     1 ATP601      0.0000 
      3 O2G        39.8690   73.9250   -9.9240 O.co2     1 ATP601      0.0000 
      4 O3G        39.8100   74.7570  -12.3310 O.co2     1 ATP601      0.0000 
      5 PB         43.0160   74.0000  -10.2020 P.3       1 ATP601      0.0000 
      6 O1B        42.6690   75.0810   -9.2080 O.co2     1 ATP601      0.0000 
      7 O2B        43.1050   72.5520   -9.7670 O.co2     1 ATP601      0.0000 
      8 O3B        41.9200   74.2090  -11.3460 O.3       1 ATP601      0.0000 
      9 PA         45.0870   73.5010  -12.1090 P.3       1 ATP601      0.0000 
     10 O1A        44.1380   72.3570  -12.4560 O.co2     1 ATP601      0.0000 
     11 O2A        46.4870   73.1860  -11.6490 O.co2     1 ATP601      0.0000 
     12 O3A        44.3500   74.4440  -11.0180 O.3       1 ATP601      0.0000 
     13 O5'        45.2290   74.4750  -13.3850 O.3       1 ATP601      0.0000 
     14 C5'        44.3010   74.3850  -14.4640 C.3       1 ATP601      0.0000 
     15 C4'        45.0320   74.4220  -15.7880 C.3       1 ATP601      0.0000 
     16 O4'        46.0860   75.3790  -15.8250 O.3       1 ATP601      0.0000 
     17 C3'        45.6880   73.0920  -16.0680 C.3       1 ATP601      0.0000 
     18 O3'        44.8750   72.4100  -17.0310 O.3       1 ATP601      0.0000 
     19 C2'        47.0820   73.4300  -16.5790 C.3       1 ATP601      0.0000 
     20 O2'        47.4160   72.7390  -17.7840 O.3       1 ATP601      0.0000 
     21 C1'        46.9930   74.9180  -16.8230 C.3       1 ATP601      0.0000 
     22 N9         48.2850   75.6320  -16.7590 N.pl3     1 ATP601      0.0000 
     23 C8         49.1330   75.6490  -15.7190 C.2       1 ATP601      0.0000 
     24 N7         50.2190   76.4110  -15.9970 N.2       1 ATP601      0.0000 
     25 C5         50.0650   76.8990  -17.2320 C.ar      1 ATP601      0.0000 
     26 C6         50.8600   77.7730  -18.1120 C.ar      1 ATP601      0.0000 
     27 N6         52.0370   78.2470  -17.6540 N.pl3     1 ATP601      0.0000 
     28 N1         50.3650   78.0530  -19.3380 N.ar      1 ATP601      0.0000 
     29 C2         49.1820   77.5510  -19.7540 C.ar      1 ATP601      0.0000 
     30 N3         48.4050   76.7480  -18.9970 N.ar      1 ATP601      0.0000 
     31 C4         48.7880   76.3870  -17.7430 C.ar      1 ATP601      0.0000 
     32 H5'1       43.7350   73.4550  -14.3850 H         1 ATP601      0.0000 
     33 H5'2       43.5950   75.2160  -14.4120 H         1 ATP601      0.0000 
     34 H3'        45.7630   72.5130  -15.1360 H         1 ATP601      0.0000 
     35 H2'        47.8230   73.2290  -15.7920 H         1 ATP601      0.0000 
     36 H1'        46.5460   75.0730  -17.8150 H         1 ATP601      0.0000 
     37 H8         48.9740   75.1220  -14.7860 H         1 ATP601      0.0000 
     38 HN61       52.6010   78.8470  -18.2380 H         1 ATP601      0.0000 
     39 HN62       52.3540   78.0000  -16.7270 H         1 ATP601      0.0000 
     40 H2         48.8350   77.8130  -20.7460 H         1 ATP601      0.0000 
@<TRIPOS>BOND
     1    1    2 ar   
     2    1    3 ar   
     3    1    4 ar   
     4    1    8 1    
     5    5    6 ar   
     6    5    7 ar   
     7    5    8 1    
     8    5   12 1    
     9    9   10 ar   
    10    9   11 ar   
    11    9   12 1    
    12    9   13 1    
    13   13   14 1    
    14   14   15 1    
    15   14   32 1    
    16   14   33 1    
    17   15   16 1    
    18   15   17 1    
    19   16   21 1    
    20   17   18 1    
    21   17   19 1    
    22   17   34 1    
    23   19   20 1    
    24   19   21 1    
    25   19   35 1    
    26   21   22 1    
    27   21   36 1    
    28   22   23 1    
    29   22   31 1    
    30   23   24 2    
    31   23   37 1    
    32   24   25 1    
    33   25   26 ar   
    34   25   31 ar   
    35   26   27 1    
    36   26   28 ar   
    37   27   38 1    
    38   27   39 1    
    39   28   29 ar   
    40   29   30 ar   
    41   29   40 1    
    42   30   31 ar   
@<TRIPOS>SUBSTRUCTURE
     1 ATP601      1 GROUP   
@<TRIPOS>SET
ATOM$ORANGE STATIC     ATOMS   COLORGROUP SYSTEM 
20 14 14 15 15 17 17 19 19 21 21 23 23 25 25 26 26 29 \
29 31 31 

