#    Name: 6s2j_2_ATP
#    Modification time : Fri May 22 19:26:03 2020

@<TRIPOS>MOLECULE
6s2j_2_ATP
   40    42     1     0     1
SMALL
NO_CHARGES


@<TRIPOS>ATOM
      1 PG         39.8890   72.7520   -3.6710 P.3       1 ATP602      0.0000 
      2 O1G        41.2020   73.2530   -3.1050 O.co2     1 ATP602      0.0000 
      3 O2G        39.5950   73.1790   -5.0910 O.co2     1 ATP602      0.0000 
      4 O3G        38.7210   72.8830   -2.7120 O.co2     1 ATP602      0.0000 
      5 PB         41.1510   70.3120   -4.6300 P.3       1 ATP602      0.0000 
      6 O1B        40.4130   69.7270   -5.8100 O.co2     1 ATP602      0.0000 
      7 O2B        42.4160   71.1050   -4.8790 O.co2     1 ATP602      0.0000 
      8 O3B        40.0500   71.1510   -3.7950 O.3       1 ATP602      0.0000 
      9 PA         42.7300   68.8630   -2.7250 P.3       1 ATP602      0.0000 
     10 O1A        43.2910   70.1850   -2.2510 O.co2     1 ATP602      0.0000 
     11 O2A        43.6290   67.9300   -3.5040 O.co2     1 ATP602      0.0000 
     12 O3A        41.3870   69.1110   -3.5780 O.3       1 ATP602      0.0000 
     13 O5'        42.1230   68.1120   -1.4410 O.3       1 ATP602      0.0000 
     14 C5'        41.5060   68.8860   -0.3950 C.3       1 ATP602      0.0000 
     15 C4'        42.0050   68.5020    0.9980 C.3       1 ATP602      0.0000 
     16 O4'        41.7640   67.1350    1.3270 O.3       1 ATP602      0.0000 
     17 C3'        43.5010   68.7090    1.1100 C.3       1 ATP602      0.0000 
     18 O3'        43.7170   69.8020    2.0000 O.3       1 ATP602      0.0000 
     19 C2'        44.0850   67.4020    1.6210 C.3       1 ATP602      0.0000 
     20 O2'        45.0030   67.6240    2.7000 O.3       1 ATP602      0.0000 
     21 C1'        42.8670   66.6170    2.0750 C.3       1 ATP602      0.0000 
     22 N9         42.9920   65.1440    1.8990 N.pl3     1 ATP602      0.0000 
     23 C8         43.4200   64.4760    0.8030 C.2       1 ATP602      0.0000 
     24 N7         43.3850   63.1270    1.0080 N.2       1 ATP602      0.0000 
     25 C5         42.9230   62.9310    2.2660 C.ar      1 ATP602      0.0000 
     26 C6         42.6490   61.7550    3.1340 C.ar      1 ATP602      0.0000 
     27 N6         42.8780   60.5110    2.6520 N.pl3     1 ATP602      0.0000 
     28 N1         42.1710   61.9760    4.3820 N.ar      1 ATP602      0.0000 
     29 C2         41.9530   63.2260    4.8520 C.ar      1 ATP602      0.0000 
     30 N3         42.1860   64.3390    4.1250 N.ar      1 ATP602      0.0000 
     31 C4         42.6640   64.2580    2.8490 C.ar      1 ATP602      0.0000 
     32 H5'1       40.4230   68.7450   -0.4380 H         1 ATP602      0.0000 
     33 H5'2       41.7070   69.9450   -0.5670 H         1 ATP602      0.0000 
     34 H3'        43.9140   68.9310    0.1160 H         1 ATP602      0.0000 
     35 H2'        44.5770   66.8720    0.7940 H         1 ATP602      0.0000 
     36 H1'        42.7080   66.8340    3.1400 H         1 ATP602      0.0000 
     37 H8         43.7450   64.9490   -0.1160 H         1 ATP602      0.0000 
     38 HN61       42.6890   59.7030    3.2270 H         1 ATP602      0.0000 
     39 HN62       43.2290   60.3910    1.7120 H         1 ATP602      0.0000 
     40 H2         41.5740   63.3380    5.8600 H         1 ATP602      0.0000 
@<TRIPOS>BOND
     1    1    2 ar   
     2    1    3 ar   
     3    1    4 ar   
     4    1    8 1    
     5    5    6 ar   
     6    5    7 ar   
     7    5    8 1    
     8    5   12 1    
     9    9   10 ar   
    10    9   11 ar   
    11    9   12 1    
    12    9   13 1    
    13   13   14 1    
    14   14   15 1    
    15   14   32 1    
    16   14   33 1    
    17   15   16 1    
    18   15   17 1    
    19   16   21 1    
    20   17   18 1    
    21   17   19 1    
    22   17   34 1    
    23   19   20 1    
    24   19   21 1    
    25   19   35 1    
    26   21   22 1    
    27   21   36 1    
    28   22   23 1    
    29   22   31 1    
    30   23   24 2    
    31   23   37 1    
    32   24   25 1    
    33   25   26 ar   
    34   25   31 ar   
    35   26   27 1    
    36   26   28 ar   
    37   27   38 1    
    38   27   39 1    
    39   28   29 ar   
    40   29   30 ar   
    41   29   40 1    
    42   30   31 ar   
@<TRIPOS>SUBSTRUCTURE
     1 ATP602      1 GROUP   
@<TRIPOS>SET
ATOM$ORANGE STATIC     ATOMS   COLORGROUP SYSTEM 
20 14 14 15 15 17 17 19 19 21 21 23 23 25 25 26 26 29 \
29 31 31 

