#    Name: 6s2j_2_ATP_CAVITY_N1_12
#    Modification time : Fri May 22 19:26:04 2020

@<TRIPOS>MOLECULE
6s2j_2_ATP_CAVITY_N1_12
   68     0     6     0     0
SMALL
NO_CHARGES


@<TRIPOS>ATOM
      1 OG         39.5700   79.3800    1.1800 O.3       1 SER1        0.0000 
      2 OG         40.7200   77.6100    1.3300 O.3       1 SER1        0.0000 
      3 OG         38.6000   78.9100    3.0100 O.3       1 SER1        0.0000 
      4 OG         40.6200   80.1400    1.9400 O.3       1 SER1        0.0000 
      5 OG         42.8400   77.7200    1.2500 O.3       1 SER1        0.0000 
      6 OG         41.7800   78.3700    2.0900 O.3       1 SER1        0.0000 
      7 OG         39.6500   79.6600    3.7600 O.3       1 SER1        0.0000 
      8 OG         42.9300   76.5900    2.2400 O.3       1 SER1        0.0000 
      9 OG         42.8300   79.1200    2.8400 O.3       1 SER1        0.0000 
     10 OG         41.7700   79.7700    3.6800 O.3       1 SER1        0.0000 
     11 OG         43.9900   77.3500    3.0000 O.3       1 SER1        0.0000 
     12 OG         42.9300   78.0000    3.8300 O.3       1 SER1        0.0000 
     13 OG         40.8000   79.2900    5.5100 O.3       1 SER1        0.0000 
     14 OG         42.9200   79.4000    5.4300 O.3       1 SER1        0.0000 
     15 N          38.5100   78.6300    0.4200 N.am      2 ALA2        0.0000 
     16 N          37.4500   79.2800    1.2600 N.am      2 ALA2        0.0000 
     17 O          42.9400   75.1900    0.6500 O.2       2 ALA2        0.0000 
     18 N          41.5900   80.6100    0.1100 N.am      2 ALA2        0.0000 
     19 N          42.7500   78.8400    0.2600 N.am      2 ALA2        0.0000 
     20 N          43.0300   75.4700    3.2300 N.am      2 ALA2        0.0000 
     21 O          41.4900   83.1400    0.7100 O.2       2 ALA2        0.0000 
     22 O          41.5800   82.0100    1.7000 O.2       2 ALA2        0.0000 
     23 N          47.3500   75.9600    5.6500 N.am      2 ALA2        0.0000 
     24 OD1        39.5600   80.7900    2.7700 O.co2     3 ASP3        0.0000 
     25 OD1        38.4900   81.4300    3.6100 O.co2     3 ASP3        0.0000 
     26 OD1        40.6100   81.5400    3.5300 O.co2     3 ASP3        0.0000 
     27 OD1        40.7100   80.4100    4.5200 O.co2     3 ASP3        0.0000 
     28 OD1        41.7600   81.1700    5.2700 O.co2     3 ASP3        0.0000 
     29 OD1        41.8500   80.0400    6.2600 O.co2     3 ASP3        0.0000 
     30 CZ         44.0800   76.2200    3.9900 C.ar      4 PHE5        0.0000 
     31 CZ         41.9500   78.9200    7.2500 C.ar      4 PHE5        0.0000 
     32 CA         38.4200   79.7500   -0.5700 C.3       5 GLY6        0.0000 
     33 CA         39.3800   81.6300   -0.8000 C.3       5 GLY6        0.0000 
     34 CA         40.5400   79.8600   -0.6500 C.3       5 GLY6        0.0000 
     35 CA         39.4700   80.5100    0.1900 C.3       5 GLY6        0.0000 
     36 CA         40.6300   78.7400    0.3400 C.3       5 GLY6        0.0000 
     37 CA         38.5000   80.0300    2.0200 C.3       5 GLY6        0.0000 
     38 CA         37.4400   80.6800    2.8500 C.3       5 GLY6        0.0000 
     39 CA         42.8500   76.3200   -0.3400 C.3       5 GLY6        0.0000 
     40 CA         41.7900   76.9600    0.5000 C.3       5 GLY6        0.0000 
     41 CA         41.8800   75.8400    1.4800 C.3       5 GLY6        0.0000 
     42 CA         41.5000   81.7400   -0.8800 C.3       5 GLY6        0.0000 
     43 CA         40.4300   82.3800   -0.0400 C.3       5 GLY6        0.0000 
     44 CA         39.3700   83.0300    0.7900 C.3       5 GLY6        0.0000 
     45 CA         39.4600   81.9100    1.7800 C.3       5 GLY6        0.0000 
     46 CA         38.4000   82.5600    2.6200 C.3       5 GLY6        0.0000 
     47 CA         43.9000   77.0700    0.4100 C.3       5 GLY6        0.0000 
     48 CA         44.0000   75.9500    1.4000 C.3       5 GLY6        0.0000 
     49 CA         40.4200   83.7900    1.5500 C.3       5 GLY6        0.0000 
     50 CA         42.6400   81.3700    0.8700 C.3       5 GLY6        0.0000 
     51 CA         44.8600   78.9500    0.1800 C.3       5 GLY6        0.0000 
     52 CA         43.8000   79.5900    1.0200 C.3       5 GLY6        0.0000 
     53 CA         42.7400   80.2400    1.8500 C.3       5 GLY6        0.0000 
     54 CA         45.1400   75.5800    3.1500 C.3       5 GLY6        0.0000 
     55 CA         44.8500   80.3500    1.7700 C.3       5 GLY6        0.0000 
     56 CA         45.1400   76.9800    4.7400 C.3       5 GLY6        0.0000 
     57 CA         44.0700   77.6200    5.5800 C.3       5 GLY6        0.0000 
     58 CA         46.2900   75.2000    4.8900 C.3       5 GLY6        0.0000 
     59 CA         45.2300   75.8500    5.7300 C.3       5 GLY6        0.0000 
     60 DU         40.5300   81.2600    0.9500 H         6 CUB7        0.0000 
     61 DU         41.6800   79.4900    1.1000 H         6 CUB7        0.0000 
     62 DU         40.5200   82.6600    2.5400 H         6 CUB7        0.0000 
     63 DU         41.6700   80.8900    2.6900 H         6 CUB7        0.0000 
     64 DU         43.8900   78.4700    2.0100 H         6 CUB7        0.0000 
     65 DU         42.7300   81.6400    3.4500 H         6 CUB7        0.0000 
     66 DU         43.8900   79.8700    3.6000 H         6 CUB7        0.0000 
     67 DU         42.8200   80.5200    4.4400 H         6 CUB7        0.0000 
     68 DU         43.9800   78.7500    4.5900 H         6 CUB7        0.0000 
@<TRIPOS>BOND
@<TRIPOS>SUBSTRUCTURE
     1 SER1        1 GROUP   
     2 ALA2       15 GROUP   
     3 ASP3       24 GROUP   
     4 PHE5       30 GROUP   
     5 GLY6       32 GROUP   
     6 CUB7       60 GROUP   
@<TRIPOS>SET

