#    Name: 6s2j_2_ATP_CAVITY_N1_8
#    Modification time : Fri May 22 19:26:04 2020

@<TRIPOS>MOLECULE
6s2j_2_ATP_CAVITY_N1_8
   28     0     5     0     0
SMALL
NO_CHARGES


@<TRIPOS>ATOM
      1 OG         39.5700   79.3800    1.1800 O.3       1 SER1        0.0000 
      2 OG         40.7200   77.6100    1.3300 O.3       1 SER1        0.0000 
      3 OG         42.8400   77.7200    1.2500 O.3       1 SER1        0.0000 
      4 OG         41.7800   78.3700    2.0900 O.3       1 SER1        0.0000 
      5 OG         42.9300   76.5900    2.2400 O.3       1 SER1        0.0000 
      6 OG         43.9900   77.3500    3.0000 O.3       1 SER1        0.0000 
      7 N          38.5100   78.6300    0.4200 N.am      2 ALA2        0.0000 
      8 N          37.4500   79.2800    1.2600 N.am      2 ALA2        0.0000 
      9 O          42.9400   75.1900    0.6500 O.2       2 ALA2        0.0000 
     10 N          42.7500   78.8400    0.2600 N.am      2 ALA2        0.0000 
     11 N          43.0300   75.4700    3.2300 N.am      2 ALA2        0.0000 
     12 CZ         44.0800   76.2200    3.9900 C.ar      3 PHE5        0.0000 
     13 CA         38.4200   79.7500   -0.5700 C.3       4 GLY6        0.0000 
     14 CA         40.5400   79.8600   -0.6500 C.3       4 GLY6        0.0000 
     15 CA         40.6300   78.7400    0.3400 C.3       4 GLY6        0.0000 
     16 CA         42.8500   76.3200   -0.3400 C.3       4 GLY6        0.0000 
     17 CA         41.7900   76.9600    0.5000 C.3       4 GLY6        0.0000 
     18 CA         41.8800   75.8400    1.4800 C.3       4 GLY6        0.0000 
     19 CA         43.9000   77.0700    0.4100 C.3       4 GLY6        0.0000 
     20 CA         44.0000   75.9500    1.4000 C.3       4 GLY6        0.0000 
     21 CA         44.8600   78.9500    0.1800 C.3       4 GLY6        0.0000 
     22 CA         43.8000   79.5900    1.0200 C.3       4 GLY6        0.0000 
     23 CA         45.1400   75.5800    3.1500 C.3       4 GLY6        0.0000 
     24 CA         45.1400   76.9800    4.7400 C.3       4 GLY6        0.0000 
     25 CA         46.2900   75.2000    4.8900 C.3       4 GLY6        0.0000 
     26 CA         45.2300   75.8500    5.7300 C.3       4 GLY6        0.0000 
     27 DU         41.6800   79.4900    1.1000 H         5 CUB7        0.0000 
     28 DU         43.8900   78.4700    2.0100 H         5 CUB7        0.0000 
@<TRIPOS>BOND
@<TRIPOS>SUBSTRUCTURE
     1 SER1        1 GROUP   
     2 ALA2        7 GROUP   
     3 PHE5       12 GROUP   
     4 GLY6       13 GROUP   
     5 CUB7       27 GROUP   
@<TRIPOS>SET

