#    Name: 5ykf_2_AGS_CAVITY_N1_12
#    Modification time : Fri May 22 19:28:49 2020

@<TRIPOS>MOLECULE
5ykf_2_AGS_CAVITY_N1_12
   80     0     5     0     0
SMALL
NO_CHARGES


@<TRIPOS>ATOM
      1 N         165.3500  192.2600  164.2700 N.am      1 ALA2        0.0000 
      2 O         166.6700  194.6100  160.6800 O.2       1 ALA2        0.0000 
      3 O         165.9800  195.6500  159.8500 O.2       1 ALA2        0.0000 
      4 N         167.2200  192.9100  163.5100 N.am      1 ALA2        0.0000 
      5 N         166.5200  193.9500  162.6800 N.am      1 ALA2        0.0000 
      6 O         165.8200  194.9800  161.8500 O.2       1 ALA2        0.0000 
      7 N         166.3800  194.0000  168.2900 N.am      1 ALA2        0.0000 
      8 N         165.5200  194.3700  169.4700 N.am      1 ALA2        0.0000 
      9 N         170.8000  193.5400  164.0000 N.am      1 ALA2        0.0000 
     10 O         168.7100  196.6500  161.5100 O.2       1 ALA2        0.0000 
     11 N         167.3200  198.7200  159.8500 N.am      1 ALA2        0.0000 
     12 N         170.4900  192.2100  168.0200 N.am      1 ALA2        0.0000 
     13 N         168.9400  193.6100  168.3600 N.am      1 ALA2        0.0000 
     14 N         170.4300  196.6300  162.7600 N.am      1 ALA2        0.0000 
     15 O         169.7300  197.6700  161.9300 O.2       1 ALA2        0.0000 
     16 O         172.3600  192.8600  167.2500 O.2       1 ALA2        0.0000 
     17 N         171.4500  197.6500  163.1700 N.am      1 ALA2        0.0000 
     18 N         170.7500  198.6900  162.3400 N.am      1 ALA2        0.0000 
     19 N         170.0500  199.7300  161.5100 N.am      1 ALA2        0.0000 
     20 OD1       165.0400  190.9300  168.2900 O.co2     2 ASP3        0.0000 
     21 OD1       166.0500  191.9500  168.7100 O.co2     2 ASP3        0.0000 
     22 OD1       167.3800  194.3000  165.1100 O.co2     2 ASP3        0.0000 
     23 OD1       166.6900  195.3300  164.2800 O.co2     2 ASP3        0.0000 
     24 OD1       167.9300  192.5900  167.9500 O.co2     2 ASP3        0.0000 
     25 OD1       167.2300  193.6300  167.1200 O.co2     2 ASP3        0.0000 
     26 OD1       166.5300  194.6700  166.2900 O.co2     2 ASP3        0.0000 
     27 OD1       167.0700  192.9600  169.1200 O.co2     2 ASP3        0.0000 
     28 OD1       169.2500  194.9500  164.3500 O.co2     2 ASP3        0.0000 
     29 OD1       168.5600  195.9800  163.5200 O.co2     2 ASP3        0.0000 
     30 OD1       167.8600  197.0200  162.6900 O.co2     2 ASP3        0.0000 
     31 OD1       169.1000  194.2800  166.3600 O.co2     2 ASP3        0.0000 
     32 OD1       168.4000  195.3200  165.5300 O.co2     2 ASP3        0.0000 
     33 OD1       168.2500  194.6500  167.5300 O.co2     2 ASP3        0.0000 
     34 OD1       169.5800  197.0000  163.9300 O.co2     2 ASP3        0.0000 
     35 OD1       168.8800  198.0400  163.1000 O.co2     2 ASP3        0.0000 
     36 OD1       169.9000  199.0600  163.5200 O.co2     2 ASP3        0.0000 
     37 CZ        168.0700  192.5400  162.3400 C.ar      3 PHE5        0.0000 
     38 CZ        167.3700  193.5800  161.5100 C.ar      3 PHE5        0.0000 
     39 CZ        169.7800  192.5200  163.5800 C.ar      3 PHE5        0.0000 
     40 CZ        169.0900  193.5600  162.7500 C.ar      3 PHE5        0.0000 
     41 CZ        168.3900  194.5900  161.9200 C.ar      3 PHE5        0.0000 
     42 CZ        172.2000  191.4700  165.6600 C.ar      3 PHE5        0.0000 
     43 CA        165.1900  191.5900  166.2800 C.3       4 GLY6        0.0000 
     44 CA        168.7700  191.5000  163.1700 C.3       4 GLY6        0.0000 
     45 CA        167.9100  191.8700  164.3400 C.3       4 GLY6        0.0000 
     46 CA        165.1200  196.0200  161.0200 C.3       4 GLY6        0.0000 
     47 CA        167.0600  192.2400  165.5200 C.3       4 GLY6        0.0000 
     48 CA        166.9100  191.5800  167.5300 C.3       4 GLY6        0.0000 
     49 CA        166.2100  192.6100  166.7000 C.3       4 GLY6        0.0000 
     50 CA        171.1800  190.4500  165.2400 C.3       4 GLY6        0.0000 
     51 CA        170.4800  191.4800  164.4100 C.3       4 GLY6        0.0000 
     52 CA        167.6900  195.6300  161.0900 C.3       4 GLY6        0.0000 
     53 CA        167.0000  196.6700  160.2600 C.3       4 GLY6        0.0000 
     54 CA        166.3000  197.7100  159.4300 C.3       4 GLY6        0.0000 
     55 CA        170.3300  190.8200  166.4200 C.3       4 GLY6        0.0000 
     56 CA        169.6300  191.8500  165.5900 C.3       4 GLY6        0.0000 
     57 CA        169.4700  191.1900  167.6000 C.3       4 GLY6        0.0000 
     58 CA        168.7800  192.2200  166.7700 C.3       4 GLY6        0.0000 
     59 CA        171.5000  192.5000  164.8300 C.3       4 GLY6        0.0000 
     60 CA        170.1100  194.5800  163.1700 C.3       4 GLY6        0.0000 
     61 CA        169.4100  195.6100  162.3400 C.3       4 GLY6        0.0000 
     62 CA        168.0100  197.6900  160.6800 C.3       4 GLY6        0.0000 
     63 CA        172.0400  190.8000  167.6700 C.3       4 GLY6        0.0000 
     64 CA        171.3500  191.8400  166.8400 C.3       4 GLY6        0.0000 
     65 CA        169.8000  193.2400  167.1900 C.3       4 GLY6        0.0000 
     66 CA        169.0300  198.7100  161.1000 C.3       4 GLY6        0.0000 
     67 CA        171.6700  193.8900  166.4200 C.3       4 GLY6        0.0000 
     68 CA        170.2700  195.9700  164.7600 C.3       4 GLY6        0.0000 
     69 CA        170.5900  198.0200  164.3500 C.3       4 GLY6        0.0000 
     70 CA        169.2000  200.1000  162.6900 C.3       4 GLY6        0.0000 
     71 DU        166.3600  193.2800  164.6900 H         5 CUB7        0.0000 
     72 DU        168.9300  192.8900  164.7600 H         5 CUB7        0.0000 
     73 DU        168.2300  193.9300  163.9300 H         5 CUB7        0.0000 
     74 DU        167.5400  194.9600  163.1000 H         5 CUB7        0.0000 
     75 DU        166.8400  196.0000  162.2700 H         5 CUB7        0.0000 
     76 DU        166.1400  197.0400  161.4400 H         5 CUB7        0.0000 
     77 DU        168.0800  193.2600  165.9400 H         5 CUB7        0.0000 
     78 DU        170.6500  192.8700  166.0100 H         5 CUB7        0.0000 
     79 DU        169.9500  193.9100  165.1800 H         5 CUB7        0.0000 
     80 DU        168.1800  199.0800  162.2700 H         5 CUB7        0.0000 
@<TRIPOS>BOND
@<TRIPOS>SUBSTRUCTURE
     1 ALA2        1 GROUP   
     2 ASP3       20 GROUP   
     3 PHE5       37 GROUP   
     4 GLY6       43 GROUP   
     5 CUB7       71 GROUP   
@<TRIPOS>SET

