#    Name: 5ykf_2_AGS
#    Modification time : Fri May 22 19:28:48 2020

@<TRIPOS>MOLECULE
5ykf_2_AGS
   31    32     1     0     0
SMALL
NO_CHARGES


@<TRIPOS>ATOM
      1 PG        164.3500  197.9870  164.5320 P.3       1 AGS402      0.0000 
      2 S1G       163.2130  199.7780  164.5840 Du        1 AGS402      0.0000 
      3 O2G       165.9500  198.3490  164.7040 O.3       1 AGS402      0.0000 
      4 O3G       163.9160  197.1140  165.7190 O.3       1 AGS402      0.0000 
      5 PB        164.7810  197.8870  161.8440 P.3       1 AGS402      0.0000 
      6 O1B       163.6110  198.3390  161.0170 O.co2     1 AGS402      0.0000 
      7 O2B       165.4960  199.1940  162.0790 O.co2     1 AGS402      0.0000 
      8 O3B       164.1860  197.2990  163.1700 O.3       1 AGS402      0.0000 
      9 PA        166.5800  195.8990  161.7750 P.3       1 AGS402      0.0000 
     10 O1A       167.9420  195.7660  161.0110 O.co2     1 AGS402      0.0000 
     11 O2A       166.8040  196.5500  163.1760 O.co2     1 AGS402      0.0000 
     12 O3A       165.6040  196.8500  161.0870 O.3       1 AGS402      0.0000 
     13 O5'       165.8680  194.4210  161.9770 O.3       1 AGS402      0.0000 
     14 C5'       166.6740  193.3730  162.5030 C.3       1 AGS402      0.0000 
     15 C4'       165.8940  192.8060  163.6610 C.3       1 AGS402      0.0000 
     16 O4'       166.7850  192.1930  164.5900 O.3       1 AGS402      0.0000 
     17 C3'       165.1580  193.9020  164.3920 C.3       1 AGS402      0.0000 
     18 O3'       163.7720  193.5550  164.4410 O.3       1 AGS402      0.0000 
     19 C2'       165.7990  193.9730  165.7680 C.3       1 AGS402      0.0000 
     20 O2'       164.9050  193.5410  166.7890 O.3       1 AGS402      0.0000 
     21 C1'       166.9600  193.0050  165.7480 C.3       1 AGS402      0.0000 
     22 N9        168.2190  193.7700  165.6140 N.pl3     1 AGS402      0.0000 
     23 C8        168.3700  194.9210  164.9370 C.2       1 AGS402      0.0000 
     24 N7        169.6450  195.3690  164.9930 N.2       1 AGS402      0.0000 
     25 C5        170.3330  194.4860  165.7260 C.ar      1 AGS402      0.0000 
     26 C6        171.7290  194.3680  166.1630 C.ar      1 AGS402      0.0000 
     27 N6        172.6390  195.3120  165.8230 N.pl3     1 AGS402      0.0000 
     28 N1        172.0400  193.3000  166.9180 N.ar      1 AGS402      0.0000 
     29 C2        171.1290  192.3700  167.2530 C.ar      1 AGS402      0.0000 
     30 N3        169.8420  192.4140  166.8860 N.ar      1 AGS402      0.0000 
     31 C4        169.3950  193.4340  166.1330 C.ar      1 AGS402      0.0000 
@<TRIPOS>BOND
     1    1    3 1    
     2    1    4 1    
     3    1    8 1    
     4    5    6 ar   
     5    5    7 ar   
     6    5    8 1    
     7    5   12 1    
     8    9   10 ar   
     9    9   11 ar   
    10    9   12 1    
    11    9   13 1    
    12   13   14 1    
    13   14   15 1    
    14   15   16 1    
    15   15   17 1    
    16   16   21 1    
    17   17   18 1    
    18   17   19 1    
    19   19   20 1    
    20   19   21 1    
    21   21   22 1    
    22   22   23 1    
    23   22   31 1    
    24   23   24 2    
    25   24   25 1    
    26   25   26 ar   
    27   25   31 ar   
    28   26   27 1    
    29   26   28 ar   
    30   28   29 ar   
    31   29   30 ar   
    32   30   31 ar   
@<TRIPOS>SUBSTRUCTURE
     1 AGS402      1 GROUP   
@<TRIPOS>SET

