#    Name: 5ykf_5_AGS
#    Modification time : Fri May 22 19:29:23 2020

@<TRIPOS>MOLECULE
5ykf_5_AGS
   31    32     1     0     0
SMALL
NO_CHARGES


@<TRIPOS>ATOM
      1 PG        131.1730  164.3500  164.5320 P.3       1 AGS401      0.0000 
      2 S1G       129.3820  163.2130  164.5840 Du        1 AGS401      0.0000 
      3 O2G       130.8110  165.9500  164.7040 O.3       1 AGS401      0.0000 
      4 O3G       132.0460  163.9160  165.7190 O.3       1 AGS401      0.0000 
      5 PB        131.2730  164.7810  161.8440 P.3       1 AGS401      0.0000 
      6 O1B       130.8210  163.6110  161.0170 O.co2     1 AGS401      0.0000 
      7 O2B       129.9660  165.4960  162.0790 O.co2     1 AGS401      0.0000 
      8 O3B       131.8610  164.1860  163.1700 O.3       1 AGS401      0.0000 
      9 PA        133.2610  166.5800  161.7750 P.3       1 AGS401      0.0000 
     10 O1A       133.3940  167.9420  161.0110 O.co2     1 AGS401      0.0000 
     11 O2A       132.6100  166.8040  163.1760 O.co2     1 AGS401      0.0000 
     12 O3A       132.3100  165.6040  161.0870 O.3       1 AGS401      0.0000 
     13 O5'       134.7390  165.8680  161.9770 O.3       1 AGS401      0.0000 
     14 C5'       135.7870  166.6740  162.5030 C.3       1 AGS401      0.0000 
     15 C4'       136.3540  165.8940  163.6610 C.3       1 AGS401      0.0000 
     16 O4'       136.9670  166.7850  164.5900 O.3       1 AGS401      0.0000 
     17 C3'       135.2580  165.1580  164.3920 C.3       1 AGS401      0.0000 
     18 O3'       135.6050  163.7720  164.4410 O.3       1 AGS401      0.0000 
     19 C2'       135.1870  165.7990  165.7680 C.3       1 AGS401      0.0000 
     20 O2'       135.6190  164.9050  166.7890 O.3       1 AGS401      0.0000 
     21 C1'       136.1550  166.9600  165.7480 C.3       1 AGS401      0.0000 
     22 N9        135.3900  168.2190  165.6140 N.pl3     1 AGS401      0.0000 
     23 C8        134.2390  168.3700  164.9370 C.2       1 AGS401      0.0000 
     24 N7        133.7910  169.6450  164.9930 N.2       1 AGS401      0.0000 
     25 C5        134.6740  170.3330  165.7260 C.ar      1 AGS401      0.0000 
     26 C6        134.7920  171.7290  166.1630 C.ar      1 AGS401      0.0000 
     27 N6        133.8480  172.6390  165.8230 N.pl3     1 AGS401      0.0000 
     28 N1        135.8600  172.0400  166.9180 N.ar      1 AGS401      0.0000 
     29 C2        136.7900  171.1290  167.2530 C.ar      1 AGS401      0.0000 
     30 N3        136.7460  169.8420  166.8860 N.ar      1 AGS401      0.0000 
     31 C4        135.7260  169.3950  166.1330 C.ar      1 AGS401      0.0000 
@<TRIPOS>BOND
     1    1    3 1    
     2    1    4 1    
     3    1    8 1    
     4    5    6 ar   
     5    5    7 ar   
     6    5    8 1    
     7    5   12 1    
     8    9   10 ar   
     9    9   11 ar   
    10    9   12 1    
    11    9   13 1    
    12   13   14 1    
    13   14   15 1    
    14   15   16 1    
    15   15   17 1    
    16   16   21 1    
    17   17   18 1    
    18   17   19 1    
    19   19   20 1    
    20   19   21 1    
    21   21   22 1    
    22   22   23 1    
    23   22   31 1    
    24   23   24 2    
    25   24   25 1    
    26   25   26 ar   
    27   25   31 ar   
    28   26   27 1    
    29   26   28 ar   
    30   28   29 ar   
    31   29   30 ar   
    32   30   31 ar   
@<TRIPOS>SUBSTRUCTURE
     1 AGS401      1 GROUP   
@<TRIPOS>SET

