#    Name: 5ykf_3_GBM_CAVITY_N1_4
#    Modification time : Fri May 22 19:29:08 2020

@<TRIPOS>MOLECULE
5ykf_3_GBM_CAVITY_N1_4
   38     0     5     0     0
SMALL
NO_CHARGES


@<TRIPOS>ATOM
      1 OG        200.2700  218.7200  186.9600 O.3       1 SER1        0.0000 
      2 OG        199.5800  219.7500  186.1300 O.3       1 SER1        0.0000 
      3 OG        199.4200  219.0900  188.1400 O.3       1 SER1        0.0000 
      4 OG        200.5900  220.7700  186.5500 O.3       1 SER1        0.0000 
      5 OG        200.4400  220.1000  188.5600 O.3       1 SER1        0.0000 
      6 OG        199.7400  221.1400  187.7300 O.3       1 SER1        0.0000 
      7 OG        199.5900  220.4700  189.7300 O.3       1 SER1        0.0000 
      8 OG        198.0400  221.8800  190.0800 O.3       1 SER1        0.0000 
      9 OD1       199.9400  215.9400  183.7700 O.co2     2 ASP3        0.0000 
     10 OD1       201.1100  217.6200  182.1800 O.co2     2 ASP3        0.0000 
     11 OD1       200.9600  216.9600  184.1900 O.co2     2 ASP3        0.0000 
     12 OD1       200.2600  217.9900  183.3600 O.co2     2 ASP3        0.0000 
     13 OD1       197.3400  222.9200  189.2500 O.co2     2 ASP3        0.0000 
     14 OD1       198.3600  223.9400  189.6700 O.co2     2 ASP3        0.0000 
     15 CZ        198.3900  217.3400  184.1200 C.ar      3 PHE5        0.0000 
     16 CZ        200.1100  217.3300  185.3700 C.ar      3 PHE5        0.0000 
     17 CZ        199.4100  218.3600  184.5400 C.ar      3 PHE5        0.0000 
     18 CZ        200.4300  219.3800  184.9500 C.ar      3 PHE5        0.0000 
     19 CA        198.7400  220.8400  190.9100 C.3       4 GLY6        0.0000 
     20 CA        201.4600  221.1200  188.9700 C.3       4 GLY6        0.0000 
     21 CA        200.7600  222.1600  188.1400 C.3       4 GLY6        0.0000 
     22 CA        200.6100  221.4900  190.1500 C.3       4 GLY6        0.0000 
     23 CA        199.9100  222.5300  189.3200 C.3       4 GLY6        0.0000 
     24 CA        199.2100  223.5700  188.4900 C.3       4 GLY6        0.0000 
     25 CA        199.7500  221.8600  191.3300 C.3       4 GLY6        0.0000 
     26 CA        199.0600  222.9000  190.5000 C.3       4 GLY6        0.0000 
     27 CA        203.3300  221.7700  188.2100 C.3       4 GLY6        0.0000 
     28 CA        202.6300  222.8100  187.3800 C.3       4 GLY6        0.0000 
     29 CA        200.9300  223.5500  189.7400 C.3       4 GLY6        0.0000 
     30 CA        200.0800  223.9200  190.9200 C.3       4 GLY6        0.0000 
     31 CA        199.3800  224.9600  190.0900 C.3       4 GLY6        0.0000 
     32 DU        201.9800  217.9800  184.6100 H         5 CUB7        0.0000 
     33 DU        201.2800  219.0100  183.7800 H         5 CUB7        0.0000 
     34 DU        201.1300  218.3500  185.7800 H         5 CUB7        0.0000 
     35 DU        203.0000  218.9900  185.0200 H         5 CUB7        0.0000 
     36 DU        202.1400  219.3600  186.2000 H         5 CUB7        0.0000 
     37 DU        201.4500  220.4000  185.3700 H         5 CUB7        0.0000 
     38 DU        202.3100  220.7500  187.7900 H         5 CUB7        0.0000 
@<TRIPOS>BOND
@<TRIPOS>SUBSTRUCTURE
     1 SER1        1 GROUP   
     2 ASP3        9 GROUP   
     3 PHE5       15 GROUP   
     4 GLY6       19 GROUP   
     5 CUB7       32 GROUP   
@<TRIPOS>SET

