#    Name: 5ykf_5_AGS_CAVITY_N1_4
#    Modification time : Fri May 22 19:29:23 2020

@<TRIPOS>MOLECULE
5ykf_5_AGS_CAVITY_N1_4
   76     0     5     0     0
SMALL
NO_CHARGES


@<TRIPOS>ATOM
      1 N         130.1600  167.3600  160.0100 N.am      1 ALA2        0.0000 
      2 N         135.8300  164.8800  162.9900 N.am      1 ALA2        0.0000 
      3 N         135.1400  165.9200  162.1600 N.am      1 ALA2        0.0000 
      4 O         134.4400  166.9500  161.3300 O.2       1 ALA2        0.0000 
      5 O         132.8900  168.3600  161.6800 O.2       1 ALA2        0.0000 
      6 O         132.1900  169.4000  160.8500 O.2       1 ALA2        0.0000 
      7 N         131.3400  169.7700  162.0300 N.am      1 ALA2        0.0000 
      8 N         136.8500  165.9000  163.4100 N.am      1 ALA2        0.0000 
      9 N         136.1600  166.9300  162.5800 N.am      1 ALA2        0.0000 
     10 N         133.0600  169.7500  163.2700 N.am      1 ALA2        0.0000 
     11 N         132.3600  170.7900  162.4400 N.am      1 ALA2        0.0000 
     12 N         134.0800  170.7700  163.6900 N.am      1 ALA2        0.0000 
     13 N         133.2200  171.1400  164.8700 N.am      1 ALA2        0.0000 
     14 N         135.1000  171.7900  164.1100 N.am      1 ALA2        0.0000 
     15 N         136.3400  169.0500  167.7800 N.am      1 ALA2        0.0000 
     16 N         134.2400  172.1600  165.2900 N.am      1 ALA2        0.0000 
     17 O         136.6600  171.1000  167.3600 O.2       1 ALA2        0.0000 
     18 O         135.9600  172.1400  166.5300 O.2       1 ALA2        0.0000 
     19 OD1       130.1700  168.0800  163.6200 O.co2     2 ASP3        0.0000 
     20 OD1       132.7400  167.6900  163.6900 O.co2     2 ASP3        0.0000 
     21 OD1       132.0400  168.7300  162.8600 O.co2     2 ASP3        0.0000 
     22 OD1       131.1900  169.1000  164.0300 O.co2     2 ASP3        0.0000 
     23 OD1       134.4500  167.6700  164.9300 O.co2     2 ASP3        0.0000 
     24 OD1       133.7600  168.7100  164.1000 O.co2     2 ASP3        0.0000 
     25 OD1       134.3000  167.0100  166.9400 O.co2     2 ASP3        0.0000 
     26 OD1       136.0100  166.9900  168.1900 O.co2     2 ASP3        0.0000 
     27 OD1       135.3200  168.0300  167.3600 O.co2     2 ASP3        0.0000 
     28 OD1       134.6200  169.0600  166.5300 O.co2     2 ASP3        0.0000 
     29 CZ        135.4600  167.9700  161.7500 C.ar      3 PHE5        0.0000 
     30 CZ        134.6100  168.3400  162.9300 C.ar      3 PHE5        0.0000 
     31 CZ        133.9100  169.3800  162.1000 C.ar      3 PHE5        0.0000 
     32 CZ        137.1800  167.9500  162.9900 C.ar      3 PHE5        0.0000 
     33 CZ        136.3200  168.3200  164.1700 C.ar      3 PHE5        0.0000 
     34 CZ        135.6300  169.3600  163.3400 C.ar      3 PHE5        0.0000 
     35 CZ        136.6400  170.3800  163.7600 C.ar      3 PHE5        0.0000 
     36 CZ        137.8300  172.7900  165.7700 C.ar      3 PHE5        0.0000 
     37 CA        132.4000  164.9100  160.5000 C.3       4 GLY6        0.0000 
     38 CA        131.7100  165.9500  159.6700 C.3       4 GLY6        0.0000 
     39 CA        133.5800  166.6000  158.9100 C.3       4 GLY6        0.0000 
     40 CA        134.1200  164.9000  161.7400 C.3       4 GLY6        0.0000 
     41 CA        133.4200  165.9300  160.9100 C.3       4 GLY6        0.0000 
     42 CA        132.7200  166.9700  160.0800 C.3       4 GLY6        0.0000 
     43 CA        131.8700  167.3400  161.2600 C.3       4 GLY6        0.0000 
     44 CA        131.1800  168.3800  160.4300 C.3       4 GLY6        0.0000 
     45 CA        135.2900  166.5800  160.1500 C.3       4 GLY6        0.0000 
     46 CA        133.7400  167.9900  160.5000 C.3       4 GLY6        0.0000 
     47 CA        132.2100  170.1200  164.4500 C.3       4 GLY6        0.0000 
     48 CA        137.8700  166.9200  163.8200 C.3       4 GLY6        0.0000 
     49 CA        137.0200  167.2900  165.0000 C.3       4 GLY6        0.0000 
     50 CA        134.9300  170.4000  162.5100 C.3       4 GLY6        0.0000 
     51 CA        136.8700  166.6200  167.0100 C.3       4 GLY6        0.0000 
     52 CA        136.1700  167.6600  166.1800 C.3       4 GLY6        0.0000 
     53 CA        133.9200  170.1000  165.7000 C.3       4 GLY6        0.0000 
     54 CA        137.3400  169.3400  164.5900 C.3       4 GLY6        0.0000 
     55 CA        137.1900  168.6800  166.6000 C.3       4 GLY6        0.0000 
     56 CA        135.6400  170.0800  166.9500 C.3       4 GLY6        0.0000 
     57 CA        134.9400  171.1200  166.1200 C.3       4 GLY6        0.0000 
     58 CA        138.3600  170.3600  165.0100 C.3       4 GLY6        0.0000 
     59 CA        137.6600  171.4000  164.1800 C.3       4 GLY6        0.0000 
     60 CA        138.2100  169.6900  167.0100 C.3       4 GLY6        0.0000 
     61 CA        137.5100  170.7300  166.1800 C.3       4 GLY6        0.0000 
     62 CA        136.8100  171.7700  165.3500 C.3       4 GLY6        0.0000 
     63 CA        137.3500  170.0600  168.1900 C.3       4 GLY6        0.0000 
     64 CA        137.6800  172.1200  167.7800 C.3       4 GLY6        0.0000 
     65 DU        132.5700  166.3000  162.0900 H         5 CUB7        0.0000 
     66 DU        130.3200  168.7500  161.6100 H         5 CUB7        0.0000 
     67 DU        135.6800  164.2100  165.0000 H         5 CUB7        0.0000 
     68 DU        134.2900  166.2900  163.3400 H         5 CUB7        0.0000 
     69 DU        133.5900  167.3200  162.5100 H         5 CUB7        0.0000 
     70 DU        136.0000  166.2700  164.5900 H         5 CUB7        0.0000 
     71 DU        135.3000  167.3000  163.7600 H         5 CUB7        0.0000 
     72 DU        135.1500  166.6400  165.7600 H         5 CUB7        0.0000 
     73 DU        135.4700  168.6900  165.3500 H         5 CUB7        0.0000 
     74 DU        134.7700  169.7300  164.5200 H         5 CUB7        0.0000 
     75 DU        136.4900  169.7100  165.7700 H         5 CUB7        0.0000 
     76 DU        135.7900  170.7500  164.9400 H         5 CUB7        0.0000 
@<TRIPOS>BOND
@<TRIPOS>SUBSTRUCTURE
     1 ALA2        1 GROUP   
     2 ASP3       19 GROUP   
     3 PHE5       29 GROUP   
     4 GLY6       37 GROUP   
     5 CUB7       65 GROUP   
@<TRIPOS>SET

