#    Name: 5ykf_6_GBM_CAVITY_N1_4
#    Modification time : Fri May 22 19:29:42 2020

@<TRIPOS>MOLECULE
5ykf_6_GBM_CAVITY_N1_4
   76     0     6     0     0
SMALL
NO_CHARGES


@<TRIPOS>ATOM
      1 OG        106.0900  198.3100  186.3700 O.3       1 SER1        0.0000 
      2 OG        107.9600  198.9600  185.6100 O.3       1 SER1        0.0000 
      3 OG        107.1000  199.3300  186.7900 O.3       1 SER1        0.0000 
      4 N         105.4300  193.4800  183.5900 N.am      2 ALA2        0.0000 
      5 N         104.7300  194.5100  182.7600 N.am      2 ALA2        0.0000 
      6 N         106.6000  195.1600  182.0000 N.am      2 ALA2        0.0000 
      7 N         105.9100  196.2000  181.1700 N.am      2 ALA2        0.0000 
      8 O         105.0700  197.2900  185.9500 O.2       2 ALA2        0.0000 
      9 O         104.3700  198.3300  185.1200 O.2       2 ALA2        0.0000 
     10 O         103.6700  199.3600  184.2900 O.2       2 ALA2        0.0000 
     11 N         104.2100  197.6600  187.1300 N.am      2 ALA2        0.0000 
     12 OD1       104.7500  195.2400  186.3700 O.co2     3 ASP3        0.0000 
     13 OD1       104.9100  196.6200  187.9600 O.co2     3 ASP3        0.0000 
     14 OD1       110.3500  196.4600  180.4800 O.co2     3 ASP3        0.0000 
     15 OD1       109.4900  196.8300  181.6600 O.co2     3 ASP3        0.0000 
     16 OD1       108.8000  197.8700  180.8300 O.co2     3 ASP3        0.0000 
     17 OD1       110.6700  198.5200  180.0700 O.co2     3 ASP3        0.0000 
     18 OD1       109.9700  199.5500  179.2400 O.co2     3 ASP3        0.0000 
     19 OD1       109.8200  198.8900  181.2500 O.co2     3 ASP3        0.0000 
     20 OD1       110.9900  200.5700  179.6600 O.co2     3 ASP3        0.0000 
     21 OD1       110.8300  199.9000  181.6600 O.co2     3 ASP3        0.0000 
     22 CZ        106.4500  194.5000  184.0100 C.ar      4 PHE5        0.0000 
     23 CZ        105.7500  195.5300  183.1800 C.ar      4 PHE5        0.0000 
     24 CZ        105.6000  194.8700  185.1900 C.ar      4 PHE5        0.0000 
     25 CZ        107.2400  198.5500  177.5700 C.ar      4 PHE5        0.0000 
     26 CZ        106.3800  198.9200  178.7500 C.ar      4 PHE5        0.0000 
     27 CZ        107.6200  196.1800  182.4200 C.ar      4 PHE5        0.0000 
     28 CZ        105.5300  199.2900  179.9300 C.ar      4 PHE5        0.0000 
     29 CZ        106.7700  196.5500  183.6000 C.ar      4 PHE5        0.0000 
     30 CZ        105.9200  196.9200  184.7800 C.ar      4 PHE5        0.0000 
     31 CZ        105.7600  196.2500  186.7800 C.ar      4 PHE5        0.0000 
     32 CZ        108.2500  199.5700  177.9900 C.ar      4 PHE5        0.0000 
     33 CZ        107.4000  199.9400  179.1700 C.ar      4 PHE5        0.0000 
     34 CZ        108.6400  197.2000  182.8400 C.ar      4 PHE5        0.0000 
     35 CZ        106.5500  200.3100  180.3500 C.ar      4 PHE5        0.0000 
     36 CZ        107.7900  197.5700  184.0100 C.ar      4 PHE5        0.0000 
     37 CZ        105.7000  200.6800  181.5300 C.ar      4 PHE5        0.0000 
     38 CZ        106.9400  197.9400  185.1900 C.ar      4 PHE5        0.0000 
     39 CZ        109.2700  200.5900  178.4100 C.ar      4 PHE5        0.0000 
     40 CZ        109.6600  198.2200  183.2500 C.ar      4 PHE5        0.0000 
     41 CZ        108.8100  198.5900  184.4300 C.ar      4 PHE5        0.0000 
     42 CA        103.8800  194.8800  183.9400 C.3       5 GLY6        0.0000 
     43 CA        106.7600  195.8300  180.0000 C.3       5 GLY6        0.0000 
     44 CA        105.2100  197.2400  180.3400 C.3       5 GLY6        0.0000 
     45 CA        105.0500  196.5700  182.3500 C.3       5 GLY6        0.0000 
     46 CA        104.9000  195.9000  184.3600 C.3       5 GLY6        0.0000 
     47 CA        104.2000  196.9400  183.5300 C.3       5 GLY6        0.0000 
     48 CA        104.0500  196.2700  185.5400 C.3       5 GLY6        0.0000 
     49 CA        107.9300  197.5200  178.4000 C.3       5 GLY6        0.0000 
     50 CA        108.4700  195.8100  181.2400 C.3       5 GLY6        0.0000 
     51 CA        107.7800  196.8500  180.4100 C.3       5 GLY6        0.0000 
     52 CA        107.0800  197.8900  179.5800 C.3       5 GLY6        0.0000 
     53 CA        106.2300  198.2500  180.7600 C.3       5 GLY6        0.0000 
     54 CA        106.0700  197.5900  182.7700 C.3       5 GLY6        0.0000 
     55 CA        105.3800  198.6200  181.9400 C.3       5 GLY6        0.0000 
     56 CA        105.2200  197.9600  183.9500 C.3       5 GLY6        0.0000 
     57 CA        104.5200  198.9900  183.1200 C.3       5 GLY6        0.0000 
     58 CA        109.6500  197.5000  179.6500 C.3       5 GLY6        0.0000 
     59 CA        108.9500  198.5300  178.8200 C.3       5 GLY6        0.0000 
     60 CA        106.4000  199.6400  182.3500 C.3       5 GLY6        0.0000 
     61 CA        105.5400  200.0100  183.5300 C.3       5 GLY6        0.0000 
     62 CA        104.8500  201.0500  182.7000 C.3       5 GLY6        0.0000 
     63 CA        105.3900  199.3500  185.5400 C.3       5 GLY6        0.0000 
     64 CA        104.6900  200.3800  184.7100 C.3       5 GLY6        0.0000 
     65 CA        105.2300  198.6800  187.5500 C.3       5 GLY6        0.0000 
     66 DU        106.9300  197.2200  181.5900 H         6 CUB7        0.0000 
     67 DU        108.1000  198.9000  180.0000 H         6 CUB7        0.0000 
     68 DU        107.9400  198.2400  182.0100 H         6 CUB7        0.0000 
     69 DU        107.2500  199.2700  181.1800 H         6 CUB7        0.0000 
     70 DU        107.0900  198.6100  183.1800 H         6 CUB7        0.0000 
     71 DU        106.2400  198.9800  184.3600 H         6 CUB7        0.0000 
     72 DU        109.1200  199.9200  180.4200 H         6 CUB7        0.0000 
     73 DU        108.9600  199.2600  182.4200 H         6 CUB7        0.0000 
     74 DU        108.2700  200.2900  181.5900 H         6 CUB7        0.0000 
     75 DU        108.1100  199.6300  183.6000 H         6 CUB7        0.0000 
     76 DU        107.2600  200.0000  184.7800 H         6 CUB7        0.0000 
@<TRIPOS>BOND
@<TRIPOS>SUBSTRUCTURE
     1 SER1        1 GROUP   
     2 ALA2        4 GROUP   
     3 ASP3       12 GROUP   
     4 PHE5       22 GROUP   
     5 GLY6       42 GROUP   
     6 CUB7       66 GROUP   
@<TRIPOS>SET

