#    Name: 5ykf_1_AGS
#    Modification time : Fri May 22 19:28:32 2020

@<TRIPOS>MOLECULE
5ykf_1_AGS
   31    32     1     0     0
SMALL
NO_CHARGES


@<TRIPOS>ATOM
      1 PG        197.9870  164.8100  164.5320 P.3       1 AGS401      0.0000 
      2 S1G       199.7780  165.9470  164.5840 Du        1 AGS401      0.0000 
      3 O2G       198.3490  163.2100  164.7040 O.3       1 AGS401      0.0000 
      4 O3G       197.1140  165.2440  165.7190 O.3       1 AGS401      0.0000 
      5 PB        197.8870  164.3790  161.8440 P.3       1 AGS401      0.0000 
      6 O1B       198.3390  165.5490  161.0170 O.co2     1 AGS401      0.0000 
      7 O2B       199.1940  163.6640  162.0790 O.co2     1 AGS401      0.0000 
      8 O3B       197.2990  164.9740  163.1700 O.3       1 AGS401      0.0000 
      9 PA        195.8990  162.5800  161.7750 P.3       1 AGS401      0.0000 
     10 O1A       195.7660  161.2180  161.0110 O.co2     1 AGS401      0.0000 
     11 O2A       196.5500  162.3560  163.1760 O.co2     1 AGS401      0.0000 
     12 O3A       196.8500  163.5560  161.0870 O.3       1 AGS401      0.0000 
     13 O5'       194.4210  163.2920  161.9770 O.3       1 AGS401      0.0000 
     14 C5'       193.3730  162.4860  162.5030 C.3       1 AGS401      0.0000 
     15 C4'       192.8060  163.2660  163.6610 C.3       1 AGS401      0.0000 
     16 O4'       192.1930  162.3750  164.5900 O.3       1 AGS401      0.0000 
     17 C3'       193.9020  164.0020  164.3920 C.3       1 AGS401      0.0000 
     18 O3'       193.5550  165.3880  164.4410 O.3       1 AGS401      0.0000 
     19 C2'       193.9730  163.3610  165.7680 C.3       1 AGS401      0.0000 
     20 O2'       193.5410  164.2550  166.7890 O.3       1 AGS401      0.0000 
     21 C1'       193.0050  162.2000  165.7480 C.3       1 AGS401      0.0000 
     22 N9        193.7700  160.9410  165.6140 N.pl3     1 AGS401      0.0000 
     23 C8        194.9210  160.7900  164.9370 C.2       1 AGS401      0.0000 
     24 N7        195.3690  159.5150  164.9930 N.2       1 AGS401      0.0000 
     25 C5        194.4860  158.8270  165.7260 C.ar      1 AGS401      0.0000 
     26 C6        194.3680  157.4310  166.1630 C.ar      1 AGS401      0.0000 
     27 N6        195.3120  156.5210  165.8230 N.pl3     1 AGS401      0.0000 
     28 N1        193.3000  157.1200  166.9180 N.ar      1 AGS401      0.0000 
     29 C2        192.3700  158.0310  167.2530 C.ar      1 AGS401      0.0000 
     30 N3        192.4140  159.3180  166.8860 N.ar      1 AGS401      0.0000 
     31 C4        193.4340  159.7650  166.1330 C.ar      1 AGS401      0.0000 
@<TRIPOS>BOND
     1    1    3 1    
     2    1    4 1    
     3    1    8 1    
     4    5    6 ar   
     5    5    7 ar   
     6    5    8 1    
     7    5   12 1    
     8    9   10 ar   
     9    9   11 ar   
    10    9   12 1    
    11    9   13 1    
    12   13   14 1    
    13   14   15 1    
    14   15   16 1    
    15   15   17 1    
    16   16   21 1    
    17   17   18 1    
    18   17   19 1    
    19   19   20 1    
    20   19   21 1    
    21   21   22 1    
    22   22   23 1    
    23   22   31 1    
    24   23   24 2    
    25   24   25 1    
    26   25   26 ar   
    27   25   31 ar   
    28   26   27 1    
    29   26   28 ar   
    30   28   29 ar   
    31   29   30 ar   
    32   30   31 ar   
@<TRIPOS>SUBSTRUCTURE
     1 AGS401      1 GROUP   
@<TRIPOS>SET

