#    Name: 5ykf_3_GBM
#    Modification time : Fri May 22 19:29:07 2020

@<TRIPOS>MOLECULE
5ykf_3_GBM
   33    35     1     0     0
SMALL
NO_CHARGES


@<TRIPOS>ATOM
      1 O3        198.0670  216.4910  178.4400           1 GBM2001     0.0000 
      2 O4        199.8190  217.2740  180.4330           1 GBM2001     0.0000 
      3 O5        201.4960  218.6560  179.6100           1 GBM2001     0.0000 
      4 O6        199.4650  222.1610  182.6790           1 GBM2001     0.0000 
      5 CL1       197.0910  224.7380  187.9470           1 GBM2001     0.0000 
      6 S2        200.1110  218.2930  179.4590           1 GBM2001     0.0000 
      7 O7        200.6810  221.0900  184.8590           1 GBM2001     0.0000 
      8 N8        198.6030  216.7420  176.3190           1 GBM2001     0.0000 
      9 N9        199.8600  217.7480  177.9600           1 GBM2001     0.0000 
     10 N10       197.7300  223.5650  182.8370           1 GBM2001     0.0000 
     11 C11       199.2900  217.4340  175.2540           1 GBM2001     0.0000 
     12 C12       198.5740  218.7500  174.9930           1 GBM2001     0.0000 
     13 C13       199.2310  216.5560  174.0130           1 GBM2001     0.0000 
     14 C14       199.1340  219.4580  173.7690           1 GBM2001     0.0000 
     15 C15       199.7590  217.2670  172.7750           1 GBM2001     0.0000 
     16 C16       199.0030  218.5660  172.5430           1 GBM2001     0.0000 
     17 C17       198.8190  216.9800  177.6110           1 GBM2001     0.0000 
     18 C18       199.2030  219.5810  179.7590           1 GBM2001     0.0000 
     19 C19       197.6160  221.7980  180.3090           1 GBM2001     0.0000 
     20 C20       196.7530  222.9920  180.6350           1 GBM2001     0.0000 
     21 C21       199.3560  220.7530  179.0220           1 GBM2001     0.0000 
     22 C22       198.2570  219.5280  180.7770           1 GBM2001     0.0000 
     23 C23       198.5640  221.8630  179.2960           1 GBM2001     0.0000 
     24 C24       197.4670  220.6340  181.0510           1 GBM2001     0.0000 
     25 C25       196.5670  223.0290  182.1490           1 GBM2001     0.0000 
     26 C26       198.6960  222.8100  183.3650           1 GBM2001     0.0000 
     27 C27       198.8530  222.8000  184.8560           1 GBM2001     0.0000 
     28 C28       199.8480  221.9340  185.5480           1 GBM2001     0.0000 
     29 C29       198.0420  223.6320  185.6130           1 GBM2001     0.0000 
     30 C30       199.9290  221.9910  186.9330           1 GBM2001     0.0000 
     31 C31       198.1600  223.6510  186.9970           1 GBM2001     0.0000 
     32 C32       199.0890  222.8410  187.6460           1 GBM2001     0.0000 
     33 C33       202.0330  221.4620  184.5910           1 GBM2001     0.0000 
@<TRIPOS>BOND
     1    1   17 du   
     2    2    6 du   
     3    3    6 du   
     4    4   26 du   
     5    5   31 du   
     6    6    9 du   
     7    6   18 du   
     8    7   28 du   
     9    7   33 du   
    10    8   11 du   
    11    8   17 du   
    12    9   17 du   
    13   10   25 du   
    14   10   26 du   
    15   11   12 du   
    16   11   13 du   
    17   12   14 du   
    18   13   15 du   
    19   14   16 du   
    20   15   16 du   
    21   18   21 du   
    22   18   22 du   
    23   19   20 du   
    24   19   23 du   
    25   19   24 du   
    26   20   25 du   
    27   21   23 du   
    28   22   24 du   
    29   26   27 du   
    30   27   28 du   
    31   27   29 du   
    32   28   30 du   
    33   29   31 du   
    34   30   32 du   
    35   31   32 du   
@<TRIPOS>SUBSTRUCTURE
     1 GBM2001     1 GROUP   
@<TRIPOS>SET

