#    Name: 5ykf_9_GBM
#    Modification time : Fri May 22 19:30:16 2020

@<TRIPOS>MOLECULE
5ykf_9_GBM
   33    35     1     0     0
SMALL
NO_CHARGES


@<TRIPOS>ATOM
      1 O3        131.0930  112.6690  178.4400           1 GBM2001     0.0000 
      2 O4        129.3410  111.8860  180.4330           1 GBM2001     0.0000 
      3 O5        127.6640  110.5040  179.6100           1 GBM2001     0.0000 
      4 O6        129.6950  106.9990  182.6790           1 GBM2001     0.0000 
      5 CL1       132.0690  104.4220  187.9470           1 GBM2001     0.0000 
      6 S2        129.0490  110.8670  179.4590           1 GBM2001     0.0000 
      7 O7        128.4790  108.0700  184.8590           1 GBM2001     0.0000 
      8 N8        130.5570  112.4180  176.3190           1 GBM2001     0.0000 
      9 N9        129.3000  111.4120  177.9600           1 GBM2001     0.0000 
     10 N10       131.4300  105.5950  182.8370           1 GBM2001     0.0000 
     11 C11       129.8700  111.7260  175.2540           1 GBM2001     0.0000 
     12 C12       130.5860  110.4100  174.9930           1 GBM2001     0.0000 
     13 C13       129.9290  112.6040  174.0130           1 GBM2001     0.0000 
     14 C14       130.0260  109.7020  173.7690           1 GBM2001     0.0000 
     15 C15       129.4010  111.8930  172.7750           1 GBM2001     0.0000 
     16 C16       130.1570  110.5940  172.5430           1 GBM2001     0.0000 
     17 C17       130.3410  112.1800  177.6110           1 GBM2001     0.0000 
     18 C18       129.9570  109.5790  179.7590           1 GBM2001     0.0000 
     19 C19       131.5440  107.3620  180.3090           1 GBM2001     0.0000 
     20 C20       132.4070  106.1680  180.6350           1 GBM2001     0.0000 
     21 C21       129.8040  108.4070  179.0220           1 GBM2001     0.0000 
     22 C22       130.9030  109.6320  180.7770           1 GBM2001     0.0000 
     23 C23       130.5960  107.2970  179.2960           1 GBM2001     0.0000 
     24 C24       131.6930  108.5260  181.0510           1 GBM2001     0.0000 
     25 C25       132.5930  106.1310  182.1490           1 GBM2001     0.0000 
     26 C26       130.4640  106.3500  183.3650           1 GBM2001     0.0000 
     27 C27       130.3070  106.3600  184.8560           1 GBM2001     0.0000 
     28 C28       129.3120  107.2260  185.5480           1 GBM2001     0.0000 
     29 C29       131.1180  105.5280  185.6130           1 GBM2001     0.0000 
     30 C30       129.2310  107.1690  186.9330           1 GBM2001     0.0000 
     31 C31       131.0000  105.5090  186.9970           1 GBM2001     0.0000 
     32 C32       130.0710  106.3190  187.6460           1 GBM2001     0.0000 
     33 C33       127.1270  107.6980  184.5910           1 GBM2001     0.0000 
@<TRIPOS>BOND
     1    1   17 du   
     2    2    6 du   
     3    3    6 du   
     4    4   26 du   
     5    5   31 du   
     6    6    9 du   
     7    6   18 du   
     8    7   28 du   
     9    7   33 du   
    10    8   11 du   
    11    8   17 du   
    12    9   17 du   
    13   10   25 du   
    14   10   26 du   
    15   11   12 du   
    16   11   13 du   
    17   12   14 du   
    18   13   15 du   
    19   14   16 du   
    20   15   16 du   
    21   18   21 du   
    22   18   22 du   
    23   19   20 du   
    24   19   23 du   
    25   19   24 du   
    26   20   25 du   
    27   21   23 du   
    28   22   24 du   
    29   26   27 du   
    30   27   28 du   
    31   27   29 du   
    32   28   30 du   
    33   29   31 du   
    34   30   32 du   
    35   31   32 du   
@<TRIPOS>SUBSTRUCTURE
     1 GBM2001     1 GROUP   
@<TRIPOS>SET

