#    Name: 5ykf_1_AGS_CAVITY_N1_6
#    Modification time : Fri May 22 19:28:33 2020

@<TRIPOS>MOLECULE
5ykf_1_AGS_CAVITY_N1_6
   71     0     5     0     0
SMALL
NO_CHARGES


@<TRIPOS>ATOM
      1 O         193.2000  156.7000  166.9400 O.2       1 ALA2        0.0000 
      2 N         195.2200  158.0100  164.1700 N.am      1 ALA2        0.0000 
      3 N         192.6600  159.1200  167.7000 N.am      1 ALA2        0.0000 
      4 N         197.9400  158.2900  162.2300 N.am      1 ALA2        0.0000 
      5 O         197.2500  159.3300  161.4000 O.2       1 ALA2        0.0000 
      6 O         196.5500  160.3600  160.5700 O.2       1 ALA2        0.0000 
      7 N         197.0900  158.6600  163.4100 N.am      1 ALA2        0.0000 
      8 O         196.3900  159.7000  162.5800 O.2       1 ALA2        0.0000 
      9 O         195.7000  160.7300  161.7500 O.2       1 ALA2        0.0000 
     10 N         193.4500  163.1800  161.2600 N.am      1 ALA2        0.0000 
     11 N         193.3000  162.5100  163.2700 N.am      1 ALA2        0.0000 
     12 N         191.7500  163.9200  163.6200 N.am      1 ALA2        0.0000 
     13 N         198.9600  159.3100  162.6400 N.am      1 ALA2        0.0000 
     14 N         193.6200  164.5700  162.8600 N.am      1 ALA2        0.0000 
     15 N         194.1700  163.5900  169.3000 N.am      1 ALA2        0.0000 
     16 OD1       195.5400  160.0700  163.7500 O.co2     2 ASP3        0.0000 
     17 OD1       194.6900  160.4400  164.9300 O.co2     2 ASP3        0.0000 
     18 OD1       194.5400  159.7700  166.9400 O.co2     2 ASP3        0.0000 
     19 OD1       193.8400  160.8100  166.1100 O.co2     2 ASP3        0.0000 
     20 OD1       192.9900  161.1800  167.2900 O.co2     2 ASP3        0.0000 
     21 OD1       198.1100  159.6800  163.8200 O.co2     2 ASP3        0.0000 
     22 OD1       197.4100  160.7200  162.9900 O.co2     2 ASP3        0.0000 
     23 OD1       196.5600  161.0900  164.1700 O.co2     2 ASP3        0.0000 
     24 OD1       195.8600  162.1200  163.3400 O.co2     2 ASP3        0.0000 
     25 OD1       195.7100  161.4600  165.3500 O.co2     2 ASP3        0.0000 
     26 OD1       195.0100  162.4900  164.5200 O.co2     2 ASP3        0.0000 
     27 OD1       194.8600  161.8300  166.5300 O.co2     2 ASP3        0.0000 
     28 OD1       194.0100  162.2000  167.7000 O.co2     2 ASP3        0.0000 
     29 OD1       192.4600  163.6000  168.0500 O.co2     2 ASP3        0.0000 
     30 OD1       198.4300  161.7400  163.4100 O.co2     2 ASP3        0.0000 
     31 CZ        191.4800  156.7100  165.6900 C.ar      3 PHE5        0.0000 
     32 CZ        192.6500  158.4000  164.1000 C.ar      3 PHE5        0.0000 
     33 CZ        191.9600  159.4400  163.2700 C.ar      3 PHE5        0.0000 
     34 CZ        193.8300  160.0900  162.5100 C.ar      3 PHE5        0.0000 
     35 CZ        192.9700  160.4600  163.6800 C.ar      3 PHE5        0.0000 
     36 CZ        192.2800  161.4900  162.8500 C.ar      3 PHE5        0.0000 
     37 CZ        194.8500  161.1000  162.9200 C.ar      3 PHE5        0.0000 
     38 CZ        194.1500  162.1400  162.0900 C.ar      3 PHE5        0.0000 
     39 CA        190.7800  157.7500  164.8600 C.3       4 GLY6        0.0000 
     40 CA        193.3500  157.3600  164.9300 C.3       4 GLY6        0.0000 
     41 CA        192.5000  157.7300  166.1100 C.3       4 GLY6        0.0000 
     42 CA        191.8000  158.7700  165.2800 C.3       4 GLY6        0.0000 
     43 CA        191.1000  159.8100  164.4500 C.3       4 GLY6        0.0000 
     44 CA        191.6500  158.1000  167.2800 C.3       4 GLY6        0.0000 
     45 CA        190.9500  159.1400  166.4500 C.3       4 GLY6        0.0000 
     46 CA        195.3800  158.6800  162.1600 C.3       4 GLY6        0.0000 
     47 CA        194.5200  159.0500  163.3400 C.3       4 GLY6        0.0000 
     48 CA        195.0700  157.3500  166.1700 C.3       4 GLY6        0.0000 
     49 CA        194.3700  158.3800  165.3400 C.3       4 GLY6        0.0000 
     50 CA        193.5200  158.7500  166.5200 C.3       4 GLY6        0.0000 
     51 CA        192.1200  160.8300  164.8600 C.3       4 GLY6        0.0000 
     52 CA        191.4300  161.8600  164.0300 C.3       4 GLY6        0.0000 
     53 CA        191.9700  160.1600  166.8700 C.3       4 GLY6        0.0000 
     54 CA        196.2400  159.0300  164.5800 C.3       4 GLY6        0.0000 
     55 CA        195.3900  159.4000  165.7600 C.3       4 GLY6        0.0000 
     56 CA        193.1400  161.8400  165.2800 C.3       4 GLY6        0.0000 
     57 CA        192.4400  162.8800  164.4500 C.3       4 GLY6        0.0000 
     58 CA        193.6800  160.1400  168.1200 C.3       4 GLY6        0.0000 
     59 CA        192.2900  162.2100  166.4600 C.3       4 GLY6        0.0000 
     60 CA        191.5900  163.2500  165.6300 C.3       4 GLY6        0.0000 
     61 CA        191.4400  162.5800  167.6400 C.3       4 GLY6        0.0000 
     62 CA        193.1500  162.5700  168.8800 C.3       4 GLY6        0.0000 
     63 CA        191.7600  164.6400  167.2200 C.3       4 GLY6        0.0000 
     64 DU        193.6700  159.4200  164.5100 H         5 CUB7        0.0000 
     65 DU        192.8200  159.7900  165.6900 H         5 CUB7        0.0000 
     66 DU        193.9900  161.4700  164.1000 H         5 CUB7        0.0000 
     67 DU        198.2700  160.3500  161.8100 H         5 CUB7        0.0000 
     68 DU        196.7200  161.7500  162.1600 H         5 CUB7        0.0000 
     69 DU        195.1700  163.1600  162.5100 H         5 CUB7        0.0000 
     70 DU        194.1600  162.8600  165.7000 H         5 CUB7        0.0000 
     71 DU        193.3100  163.2300  166.8700 H         5 CUB7        0.0000 
@<TRIPOS>BOND
@<TRIPOS>SUBSTRUCTURE
     1 ALA2        1 GROUP   
     2 ASP3       16 GROUP   
     3 PHE5       31 GROUP   
     4 GLY6       39 GROUP   
     5 CUB7       64 GROUP   
@<TRIPOS>SET

