#    Name: 5ykf_11_GBM
#    Modification time : Fri May 22 19:30:35 2020

@<TRIPOS>MOLECULE
5ykf_11_GBM
   33    35     1     0     0
SMALL
NO_CHARGES


@<TRIPOS>ATOM
      1 O3        216.4910  131.0930  178.4400           1 GBM2001     0.0000 
      2 O4        217.2740  129.3410  180.4330           1 GBM2001     0.0000 
      3 O5        218.6560  127.6640  179.6100           1 GBM2001     0.0000 
      4 O6        222.1610  129.6950  182.6790           1 GBM2001     0.0000 
      5 CL1       224.7380  132.0690  187.9470           1 GBM2001     0.0000 
      6 S2        218.2930  129.0490  179.4590           1 GBM2001     0.0000 
      7 O7        221.0900  128.4790  184.8590           1 GBM2001     0.0000 
      8 N8        216.7420  130.5570  176.3190           1 GBM2001     0.0000 
      9 N9        217.7480  129.3000  177.9600           1 GBM2001     0.0000 
     10 N10       223.5650  131.4300  182.8370           1 GBM2001     0.0000 
     11 C11       217.4340  129.8700  175.2540           1 GBM2001     0.0000 
     12 C12       218.7500  130.5860  174.9930           1 GBM2001     0.0000 
     13 C13       216.5560  129.9290  174.0130           1 GBM2001     0.0000 
     14 C14       219.4580  130.0260  173.7690           1 GBM2001     0.0000 
     15 C15       217.2670  129.4010  172.7750           1 GBM2001     0.0000 
     16 C16       218.5660  130.1570  172.5430           1 GBM2001     0.0000 
     17 C17       216.9800  130.3410  177.6110           1 GBM2001     0.0000 
     18 C18       219.5810  129.9570  179.7590           1 GBM2001     0.0000 
     19 C19       221.7980  131.5440  180.3090           1 GBM2001     0.0000 
     20 C20       222.9920  132.4070  180.6350           1 GBM2001     0.0000 
     21 C21       220.7530  129.8040  179.0220           1 GBM2001     0.0000 
     22 C22       219.5280  130.9030  180.7770           1 GBM2001     0.0000 
     23 C23       221.8630  130.5960  179.2960           1 GBM2001     0.0000 
     24 C24       220.6340  131.6930  181.0510           1 GBM2001     0.0000 
     25 C25       223.0290  132.5930  182.1490           1 GBM2001     0.0000 
     26 C26       222.8100  130.4640  183.3650           1 GBM2001     0.0000 
     27 C27       222.8000  130.3070  184.8560           1 GBM2001     0.0000 
     28 C28       221.9340  129.3120  185.5480           1 GBM2001     0.0000 
     29 C29       223.6320  131.1180  185.6130           1 GBM2001     0.0000 
     30 C30       221.9910  129.2310  186.9330           1 GBM2001     0.0000 
     31 C31       223.6510  131.0000  186.9970           1 GBM2001     0.0000 
     32 C32       222.8410  130.0710  187.6460           1 GBM2001     0.0000 
     33 C33       221.4620  127.1270  184.5910           1 GBM2001     0.0000 
@<TRIPOS>BOND
     1    1   17 du   
     2    2    6 du   
     3    3    6 du   
     4    4   26 du   
     5    5   31 du   
     6    6    9 du   
     7    6   18 du   
     8    7   28 du   
     9    7   33 du   
    10    8   11 du   
    11    8   17 du   
    12    9   17 du   
    13   10   25 du   
    14   10   26 du   
    15   11   12 du   
    16   11   13 du   
    17   12   14 du   
    18   13   15 du   
    19   14   16 du   
    20   15   16 du   
    21   18   21 du   
    22   18   22 du   
    23   19   20 du   
    24   19   23 du   
    25   19   24 du   
    26   20   25 du   
    27   21   23 du   
    28   22   24 du   
    29   26   27 du   
    30   27   28 du   
    31   27   29 du   
    32   28   30 du   
    33   29   31 du   
    34   30   32 du   
    35   31   32 du   
@<TRIPOS>SUBSTRUCTURE
     1 GBM2001     1 GROUP   
@<TRIPOS>SET

