#    Name: 5ykf_3_GBM_CAVITY_N1_8
#    Modification time : Fri May 22 19:29:08 2020

@<TRIPOS>MOLECULE
5ykf_3_GBM_CAVITY_N1_8
   90     0     7     0     0
SMALL
NO_CHARGES


@<TRIPOS>ATOM
      1 OG        200.2700  218.7200  186.9600 O.3       1 SER1        0.0000 
      2 OG        199.5800  219.7500  186.1300 O.3       1 SER1        0.0000 
      3 OG        200.1200  218.0500  188.9700 O.3       1 SER1        0.0000 
      4 OG        199.4200  219.0900  188.1400 O.3       1 SER1        0.0000 
      5 OG        200.5900  220.7700  186.5500 O.3       1 SER1        0.0000 
      6 OG        200.4400  220.1000  188.5600 O.3       1 SER1        0.0000 
      7 OG        199.7400  221.1400  187.7300 O.3       1 SER1        0.0000 
      8 OG        199.5900  220.4700  189.7300 O.3       1 SER1        0.0000 
      9 OG        198.0400  221.8800  190.0800 O.3       1 SER1        0.0000 
     10 N         199.0900  216.3100  184.9500 N.am      2 ALA2        0.0000 
     11 O         201.5000  215.2500  187.0300 O.2       2 ALA2        0.0000 
     12 O         202.6700  216.9400  185.4400 O.2       2 ALA2        0.0000 
     13 O         202.5200  216.2700  187.4400 O.2       2 ALA2        0.0000 
     14 O         200.8200  217.0100  189.8000 O.2       2 ALA2        0.0000 
     15 O         199.9600  217.3800  190.9800 O.2       2 ALA2        0.0000 
     16 O         203.6900  217.9600  185.8500 O.2       2 ALA2        0.0000 
     17 O         202.8400  218.3300  187.0300 O.2       2 ALA2        0.0000 
     18 O         202.6900  217.6600  189.0400 O.2       2 ALA2        0.0000 
     19 O         201.8300  218.0300  190.2200 O.2       2 ALA2        0.0000 
     20 O         200.2900  219.4400  190.5600 O.2       2 ALA2        0.0000 
     21 O         205.5600  218.6100  185.0900 O.2       2 ALA2        0.0000 
     22 O         204.7100  218.9800  186.2700 O.2       2 ALA2        0.0000 
     23 O         203.7100  218.6800  189.4500 O.2       2 ALA2        0.0000 
     24 O         203.0100  219.7200  188.6200 O.2       2 ALA2        0.0000 
     25 O         202.8500  219.0500  190.6300 O.2       2 ALA2        0.0000 
     26 O         202.0000  219.4200  191.8100 O.2       2 ALA2        0.0000 
     27 O         201.1500  219.7900  192.9900 O.2       2 ALA2        0.0000 
     28 OD1       199.9400  215.9400  183.7700 O.co2     3 ASP3        0.0000 
     29 OD1       201.1100  217.6200  182.1800 O.co2     3 ASP3        0.0000 
     30 OD1       201.6600  215.9200  185.0200 O.co2     3 ASP3        0.0000 
     31 OD1       200.9600  216.9600  184.1900 O.co2     3 ASP3        0.0000 
     32 OD1       200.2600  217.9900  183.3600 O.co2     3 ASP3        0.0000 
     33 OD1       202.8300  217.6100  183.4300 O.co2     3 ASP3        0.0000 
     34 OD1       204.5500  217.5900  184.6700 O.co2     3 ASP3        0.0000 
     35 OD1       199.4300  219.8100  191.7400 O.co2     3 ASP3        0.0000 
     36 OD1       197.3400  222.9200  189.2500 O.co2     3 ASP3        0.0000 
     37 OD1       198.5800  220.1800  192.9200 O.co2     3 ASP3        0.0000 
     38 OD1       197.1900  222.2500  191.2600 O.co2     3 ASP3        0.0000 
     39 OD1       198.3600  223.9400  189.6700 O.co2     3 ASP3        0.0000 
     40 OD1       200.3000  220.1600  194.1700 O.co2     3 ASP3        0.0000 
     41 OD1       198.2100  223.2700  191.6800 O.co2     3 ASP3        0.0000 
     42 NZ        200.8000  216.2900  186.2000 N.4       4 LYS4        0.0000 
     43 NZ        199.9500  216.6600  187.3700 N.4       4 LYS4        0.0000 
     44 NZ        199.8000  215.9900  189.3800 N.4       4 LYS4        0.0000 
     45 NZ        199.1000  217.0300  188.5500 N.4       4 LYS4        0.0000 
     46 NZ        201.6700  216.6400  188.6200 N.4       4 LYS4        0.0000 
     47 CZ        198.3900  217.3400  184.1200 C.ar      5 PHE5        0.0000 
     48 CZ        200.1100  217.3300  185.3700 C.ar      5 PHE5        0.0000 
     49 CZ        199.4100  218.3600  184.5400 C.ar      5 PHE5        0.0000 
     50 CZ        199.2500  217.7000  186.5400 C.ar      5 PHE5        0.0000 
     51 CZ        198.4000  218.0700  187.7200 C.ar      5 PHE5        0.0000 
     52 CZ        200.4300  219.3800  184.9500 C.ar      5 PHE5        0.0000 
     53 CZ        205.2400  216.5500  185.5000 C.ar      5 PHE5        0.0000 
     54 CZ        204.3900  216.9200  186.6800 C.ar      5 PHE5        0.0000 
     55 CZ        204.2400  216.2500  188.6900 C.ar      5 PHE5        0.0000 
     56 CZ        203.5400  217.2900  187.8600 C.ar      5 PHE5        0.0000 
     57 CA        202.3600  215.6000  189.4500 C.3       6 GLY6        0.0000 
     58 CA        199.2700  218.4200  190.1500 C.3       6 GLY6        0.0000 
     59 CA        203.3800  216.6200  189.8700 C.3       6 GLY6        0.0000 
     60 CA        198.7400  220.8400  190.9100 C.3       6 GLY6        0.0000 
     61 CA        197.8800  221.2100  192.0900 C.3       6 GLY6        0.0000 
     62 CA        204.4000  217.6400  190.2800 C.3       6 GLY6        0.0000 
     63 CA        202.1600  220.0900  189.8000 C.3       6 GLY6        0.0000 
     64 CA        201.4600  221.1200  188.9700 C.3       6 GLY6        0.0000 
     65 CA        200.7600  222.1600  188.1400 C.3       6 GLY6        0.0000 
     66 CA        201.3000  220.4600  190.9800 C.3       6 GLY6        0.0000 
     67 CA        200.6100  221.4900  190.1500 C.3       6 GLY6        0.0000 
     68 CA        199.9100  222.5300  189.3200 C.3       6 GLY6        0.0000 
     69 CA        199.2100  223.5700  188.4900 C.3       6 GLY6        0.0000 
     70 CA        200.4500  220.8300  192.1600 C.3       6 GLY6        0.0000 
     71 CA        199.7500  221.8600  191.3300 C.3       6 GLY6        0.0000 
     72 CA        199.0600  222.9000  190.5000 C.3       6 GLY6        0.0000 
     73 CA        199.6000  221.2000  193.3400 C.3       6 GLY6        0.0000 
     74 CA        198.9000  222.2300  192.5100 C.3       6 GLY6        0.0000 
     75 CA        203.3300  221.7700  188.2100 C.3       6 GLY6        0.0000 
     76 CA        202.6300  222.8100  187.3800 C.3       6 GLY6        0.0000 
     77 CA        200.9300  223.5500  189.7400 C.3       6 GLY6        0.0000 
     78 CA        200.0800  223.9200  190.9200 C.3       6 GLY6        0.0000 
     79 CA        199.3800  224.9600  190.0900 C.3       6 GLY6        0.0000 
     80 DU        201.9800  217.9800  184.6100 H         7 CUB7        0.0000 
     81 DU        201.2800  219.0100  183.7800 H         7 CUB7        0.0000 
     82 DU        201.8200  217.3100  186.6100 H         7 CUB7        0.0000 
     83 DU        201.1300  218.3500  185.7800 H         7 CUB7        0.0000 
     84 DU        200.9700  217.6800  187.7900 H         7 CUB7        0.0000 
     85 DU        203.0000  218.9900  185.0200 H         7 CUB7        0.0000 
     86 DU        202.1400  219.3600  186.2000 H         7 CUB7        0.0000 
     87 DU        201.4500  220.4000  185.3700 H         7 CUB7        0.0000 
     88 DU        201.9900  218.7000  188.2100 H         7 CUB7        0.0000 
     89 DU        201.1400  219.0700  189.3900 H         7 CUB7        0.0000 
     90 DU        202.3100  220.7500  187.7900 H         7 CUB7        0.0000 
@<TRIPOS>BOND
@<TRIPOS>SUBSTRUCTURE
     1 SER1        1 GROUP   
     2 ALA2       10 GROUP   
     3 ASP3       28 GROUP   
     4 LYS4       42 GROUP   
     5 PHE5       47 GROUP   
     6 GLY6       57 GROUP   
     7 CUB7       80 GROUP   
@<TRIPOS>SET

