#    Name: 5ykf_8_AGS_CAVITY_N1_6
#    Modification time : Fri May 22 19:29:59 2020

@<TRIPOS>MOLECULE
5ykf_8_AGS_CAVITY_N1_6
   77     0     5     0     0
SMALL
NO_CHARGES


@<TRIPOS>ATOM
      1 N         159.5600  130.3900  162.3300 N.am      1 ALA2        0.0000 
      2 N         158.8600  131.4200  161.5000 N.am      1 ALA2        0.0000 
      3 N         158.0100  131.7900  162.6800 N.am      1 ALA2        0.0000 
      4 O         159.8800  132.4400  161.9100 O.2       1 ALA2        0.0000 
      5 N         159.0300  132.8100  163.0900 N.am      1 ALA2        0.0000 
      6 N         158.1700  133.1800  164.2700 N.am      1 ALA2        0.0000 
      7 N         157.3200  133.5500  165.4500 N.am      1 ALA2        0.0000 
      8 N         158.4900  135.2400  163.8600 N.am      1 ALA2        0.0000 
      9 O         162.7700  134.1100  161.5700 O.2       1 ALA2        0.0000 
     10 O         157.8100  137.0000  166.6300 O.2       1 ALA2        0.0000 
     11 O         156.9600  137.3700  167.8100 O.2       1 ALA2        0.0000 
     12 N         162.9300  135.5000  163.1700 N.am      1 ALA2        0.0000 
     13 N         162.2400  136.5400  162.3400 N.am      1 ALA2        0.0000 
     14 N         161.7700  134.5400  168.3600 N.am      1 ALA2        0.0000 
     15 N         160.2200  135.9400  168.7100 N.am      1 ALA2        0.0000 
     16 N         163.9500  136.5200  163.5800 N.am      1 ALA2        0.0000 
     17 N         162.7900  135.5600  168.7800 N.am      1 ALA2        0.0000 
     18 OD1       160.5700  131.4100  162.7400 O.co2     2 ASP3        0.0000 
     19 OD1       159.7200  131.7800  163.9200 O.co2     2 ASP3        0.0000 
     20 OD1       161.5900  132.4300  163.1600 O.co2     2 ASP3        0.0000 
     21 OD1       160.7400  132.8000  164.3400 O.co2     2 ASP3        0.0000 
     22 OD1       159.8900  133.1700  165.5200 O.co2     2 ASP3        0.0000 
     23 OD1       162.6100  133.4400  163.5800 O.co2     2 ASP3        0.0000 
     24 OD1       161.7600  133.8100  164.7600 O.co2     2 ASP3        0.0000 
     25 OD1       160.9100  134.1800  165.9300 O.co2     2 ASP3        0.0000 
     26 OD1       160.0600  134.5500  167.1100 O.co2     2 ASP3        0.0000 
     27 OD1       162.6200  134.1700  167.1800 O.co2     2 ASP3        0.0000 
     28 OD1       161.9300  135.2000  166.3500 O.co2     2 ASP3        0.0000 
     29 OD1       161.0800  135.5700  167.5300 O.co2     2 ASP3        0.0000 
     30 OD1       159.5300  136.9800  167.8800 O.co2     2 ASP3        0.0000 
     31 OD1       163.6400  135.1900  167.6000 O.co2     2 ASP3        0.0000 
     32 OD1       162.0900  136.5900  167.9500 O.co2     2 ASP3        0.0000 
     33 OD1       163.8100  136.5700  169.1900 O.co2     2 ASP3        0.0000 
     34 OD1       163.1100  137.6100  168.3600 O.co2     2 ASP3        0.0000 
     35 CZ        160.2000  134.5000  161.5000 C.ar      3 PHE5        0.0000 
     36 CZ        159.3500  134.8700  162.6800 C.ar      3 PHE5        0.0000 
     37 CZ        157.8000  136.2800  163.0300 C.ar      3 PHE5        0.0000 
     38 CZ        161.2200  135.5200  161.9200 C.ar      3 PHE5        0.0000 
     39 CZ        160.3700  135.8900  163.1000 C.ar      3 PHE5        0.0000 
     40 CZ        159.5100  136.2600  164.2700 C.ar      3 PHE5        0.0000 
     41 CZ        158.8200  137.2900  163.4400 C.ar      3 PHE5        0.0000 
     42 CA        159.7100  131.0500  160.3200 C.3       4 GLY6        0.0000 
     43 CA        160.7300  132.0700  160.7400 C.3       4 GLY6        0.0000 
     44 CA        161.7500  133.0900  161.1500 C.3       4 GLY6        0.0000 
     45 CA        159.1900  134.2000  164.6900 C.3       4 GLY6        0.0000 
     46 CA        158.3400  134.5700  165.8600 C.3       4 GLY6        0.0000 
     47 CA        157.6400  135.6100  165.0300 C.3       4 GLY6        0.0000 
     48 CA        156.9500  136.6500  164.2000 C.3       4 GLY6        0.0000 
     49 CA        157.4900  134.9400  167.0400 C.3       4 GLY6        0.0000 
     50 CA        156.7900  135.9800  166.2100 C.3       4 GLY6        0.0000 
     51 CA        159.3600  135.5900  166.2800 C.3       4 GLY6        0.0000 
     52 CA        157.9600  137.6600  164.6200 C.3       4 GLY6        0.0000 
     53 CA        158.5100  135.9600  167.4600 C.3       4 GLY6        0.0000 
     54 CA        157.1100  138.0300  165.8000 C.3       4 GLY6        0.0000 
     55 CA        161.3800  136.9100  163.5100 C.3       4 GLY6        0.0000 
     56 CA        161.2300  136.2400  165.5200 C.3       4 GLY6        0.0000 
     57 CA        160.5300  137.2800  164.6900 C.3       4 GLY6        0.0000 
     58 CA        160.3800  136.6100  166.7000 C.3       4 GLY6        0.0000 
     59 CA        159.6800  137.6500  165.8700 C.3       4 GLY6        0.0000 
     60 CA        158.8300  138.0200  167.0500 C.3       4 GLY6        0.0000 
     61 CA        163.1000  136.8900  164.7600 C.3       4 GLY6        0.0000 
     62 CA        162.4000  137.9300  163.9300 C.3       4 GLY6        0.0000 
     63 CA        162.9500  136.2200  166.7700 C.3       4 GLY6        0.0000 
     64 CA        162.2500  137.2600  165.9400 C.3       4 GLY6        0.0000 
     65 CA        161.4000  137.6300  167.1200 C.3       4 GLY6        0.0000 
     66 CA        163.9600  137.2400  167.1800 C.3       4 GLY6        0.0000 
     67 DU        161.4300  131.0400  161.5700 H         5 CUB7        0.0000 
     68 DU        160.9000  133.4600  162.3300 H         5 CUB7        0.0000 
     69 DU        160.0400  133.8300  163.5100 H         5 CUB7        0.0000 
     70 DU        161.9100  134.4800  162.7500 H         5 CUB7        0.0000 
     71 DU        161.0600  134.8500  163.9300 H         5 CUB7        0.0000 
     72 DU        160.2100  135.2200  165.1000 H         5 CUB7        0.0000 
     73 DU        158.6600  136.6300  165.4500 H         5 CUB7        0.0000 
     74 DU        163.6300  134.4600  164.0000 H         5 CUB7        0.0000 
     75 DU        162.7800  134.8300  165.1700 H         5 CUB7        0.0000 
     76 DU        162.0800  135.8700  164.3400 H         5 CUB7        0.0000 
     77 DU        163.8000  135.8500  165.5900 H         5 CUB7        0.0000 
@<TRIPOS>BOND
@<TRIPOS>SUBSTRUCTURE
     1 ALA2        1 GROUP   
     2 ASP3       18 GROUP   
     3 PHE5       35 GROUP   
     4 GLY6       42 GROUP   
     5 CUB7       67 GROUP   
@<TRIPOS>SET

