#    Name: 5ykf_6_GBM
#    Modification time : Fri May 22 19:29:42 2020

@<TRIPOS>MOLECULE
5ykf_6_GBM
   33    35     1     0     0
SMALL
NO_CHARGES


@<TRIPOS>ATOM
      1 O3        112.6690  198.0670  178.4400           1 GBM2001     0.0000 
      2 O4        111.8860  199.8190  180.4330           1 GBM2001     0.0000 
      3 O5        110.5040  201.4960  179.6100           1 GBM2001     0.0000 
      4 O6        106.9990  199.4650  182.6790           1 GBM2001     0.0000 
      5 CL1       104.4220  197.0910  187.9470           1 GBM2001     0.0000 
      6 S2        110.8670  200.1110  179.4590           1 GBM2001     0.0000 
      7 O7        108.0700  200.6810  184.8590           1 GBM2001     0.0000 
      8 N8        112.4180  198.6030  176.3190           1 GBM2001     0.0000 
      9 N9        111.4120  199.8600  177.9600           1 GBM2001     0.0000 
     10 N10       105.5950  197.7300  182.8370           1 GBM2001     0.0000 
     11 C11       111.7260  199.2900  175.2540           1 GBM2001     0.0000 
     12 C12       110.4100  198.5740  174.9930           1 GBM2001     0.0000 
     13 C13       112.6040  199.2310  174.0130           1 GBM2001     0.0000 
     14 C14       109.7020  199.1340  173.7690           1 GBM2001     0.0000 
     15 C15       111.8930  199.7590  172.7750           1 GBM2001     0.0000 
     16 C16       110.5940  199.0030  172.5430           1 GBM2001     0.0000 
     17 C17       112.1800  198.8190  177.6110           1 GBM2001     0.0000 
     18 C18       109.5790  199.2030  179.7590           1 GBM2001     0.0000 
     19 C19       107.3620  197.6160  180.3090           1 GBM2001     0.0000 
     20 C20       106.1680  196.7530  180.6350           1 GBM2001     0.0000 
     21 C21       108.4070  199.3560  179.0220           1 GBM2001     0.0000 
     22 C22       109.6320  198.2570  180.7770           1 GBM2001     0.0000 
     23 C23       107.2970  198.5640  179.2960           1 GBM2001     0.0000 
     24 C24       108.5260  197.4670  181.0510           1 GBM2001     0.0000 
     25 C25       106.1310  196.5670  182.1490           1 GBM2001     0.0000 
     26 C26       106.3500  198.6960  183.3650           1 GBM2001     0.0000 
     27 C27       106.3600  198.8530  184.8560           1 GBM2001     0.0000 
     28 C28       107.2260  199.8480  185.5480           1 GBM2001     0.0000 
     29 C29       105.5280  198.0420  185.6130           1 GBM2001     0.0000 
     30 C30       107.1690  199.9290  186.9330           1 GBM2001     0.0000 
     31 C31       105.5090  198.1600  186.9970           1 GBM2001     0.0000 
     32 C32       106.3190  199.0890  187.6460           1 GBM2001     0.0000 
     33 C33       107.6980  202.0330  184.5910           1 GBM2001     0.0000 
@<TRIPOS>BOND
     1    1   17 du   
     2    2    6 du   
     3    3    6 du   
     4    4   26 du   
     5    5   31 du   
     6    6    9 du   
     7    6   18 du   
     8    7   28 du   
     9    7   33 du   
    10    8   11 du   
    11    8   17 du   
    12    9   17 du   
    13   10   25 du   
    14   10   26 du   
    15   11   12 du   
    16   11   13 du   
    17   12   14 du   
    18   13   15 du   
    19   14   16 du   
    20   15   16 du   
    21   18   21 du   
    22   18   22 du   
    23   19   20 du   
    24   19   23 du   
    25   19   24 du   
    26   20   25 du   
    27   21   23 du   
    28   22   24 du   
    29   26   27 du   
    30   27   28 du   
    31   27   29 du   
    32   28   30 du   
    33   29   31 du   
    34   30   32 du   
    35   31   32 du   
@<TRIPOS>SUBSTRUCTURE
     1 GBM2001     1 GROUP   
@<TRIPOS>SET

