#    Name: 5zvh_1_SFG
#    Modification time : Fri May 22 19:26:03 2020

@<TRIPOS>MOLECULE
5zvh_1_SFG
   27    29     1     0     0
SMALL
NO_CHARGES


@<TRIPOS>ATOM
      1 N          -8.7110  -30.6770   58.1110 N.4       1 SFG401      0.0000 
      2 CA         -8.6560  -29.4730   57.3670 C.3       1 SFG401      0.0000 
      3 C          -9.0270  -28.3180   58.2820 C.2       1 SFG401      0.0000 
      4 O          -9.0420  -27.1330   57.8790 O.co2     1 SFG401      0.0000 
      5 OXT        -9.3060  -28.5500   59.4850 O.co2     1 SFG401      0.0000 
      6 CB         -9.5590  -29.5890   56.1130 C.3       1 SFG401      0.0000 
      7 CG         -9.1380  -30.8330   55.2310 C.3       1 SFG401      0.0000 
      8 CD         -9.5390  -30.6410   53.7600 C.3       1 SFG401      0.0000 
      9 NE        -10.9100  -30.5480   53.6580 N.4       1 SFG401      0.0000 
     10 C5'        -9.0550  -31.8220   52.9040 C.3       1 SFG401      0.0000 
     11 C4'        -7.5970  -31.5920   52.4580 C.3       1 SFG401      0.0000 
     12 O4'        -7.0600  -32.6990   51.9770 O.3       1 SFG401      0.0000 
     13 C3'        -7.5030  -30.5960   51.3140 C.3       1 SFG401      0.0000 
     14 O3'        -6.8410  -29.5020   51.7400 O.3       1 SFG401      0.0000 
     15 C2'        -6.6430  -31.3020   50.2190 C.3       1 SFG401      0.0000 
     16 O2'        -5.7060  -30.2920   49.6260 O.3       1 SFG401      0.0000 
     17 C1'        -5.9930  -32.1920   50.8820 C.3       1 SFG401      0.0000 
     18 N9         -5.6190  -33.3340   50.0870 N.pl3     1 SFG401      0.0000 
     19 C8         -6.3310  -33.9440   49.1220 C.2       1 SFG401      0.0000 
     20 N7         -5.6030  -34.9920   48.6550 N.2       1 SFG401      0.0000 
     21 C5         -4.4380  -35.0280   49.3470 C.ar      1 SFG401      0.0000 
     22 C6         -3.3400  -35.8800   49.2810 C.ar      1 SFG401      0.0000 
     23 N6         -3.0900  -37.0200   48.4350 N.pl3     1 SFG401      0.0000 
     24 N1         -2.2910  -35.6880   50.1000 N.ar      1 SFG401      0.0000 
     25 C2         -2.2980  -34.6510   51.0040 C.ar      1 SFG401      0.0000 
     26 N3         -3.3700  -33.8150   51.0710 N.ar      1 SFG401      0.0000 
     27 C4         -4.4430  -34.0120   50.2340 C.ar      1 SFG401      0.0000 
@<TRIPOS>BOND
     1    1    2 1    
     2    2    3 1    
     3    2    6 1    
     4    3    4 ar   
     5    3    5 ar   
     6    6    7 1    
     7    7    8 1    
     8    8    9 1    
     9    8   10 1    
    10   10   11 1    
    11   11   12 1    
    12   11   13 1    
    13   12   17 1    
    14   13   14 1    
    15   13   15 1    
    16   15   16 1    
    17   15   17 1    
    18   17   18 1    
    19   18   19 1    
    20   18   27 1    
    21   19   20 2    
    22   20   21 1    
    23   21   22 ar   
    24   21   27 ar   
    25   22   23 1    
    26   22   24 ar   
    27   24   25 ar   
    28   25   26 ar   
    29   26   27 ar   
@<TRIPOS>SUBSTRUCTURE
     1 SFG401      1 GROUP   
@<TRIPOS>SET

