#    Name: 5zvh_1_SFG_CAVITY_N1_8
#    Modification time : Fri May 22 19:26:04 2020

@<TRIPOS>MOLECULE
5zvh_1_SFG_CAVITY_N1_8
   66     0     7     0     0
SMALL
NO_CHARGES


@<TRIPOS>ATOM
      1 OG        -14.9200  -29.2500   57.8500 O.3       1 SER1        0.0000 
      2 OG        -14.1900  -28.7500   59.0500 O.3       1 SER1        0.0000 
      3 OG        -14.7300  -27.3700   58.8000 O.3       1 SER1        0.0000 
      4 OG        -15.9200  -27.6800   59.6600 O.3       1 SER1        0.0000 
      5 OG        -12.1500  -24.8600   58.0500 O.3       1 SER1        0.0000 
      6 OG        -14.0000  -26.8600   60.0100 O.3       1 SER1        0.0000 
      7 N         -10.4600  -32.9500   54.8200 N.am      2 ALA2        0.0000 
      8 N         -13.9200  -30.8200   56.0300 N.am      2 ALA2        0.0000 
      9 N         -15.1100  -31.1400   56.8900 N.am      2 ALA2        0.0000 
     10 N         -15.6500  -29.7600   56.6400 N.am      2 ALA2        0.0000 
     11 O         -16.8400  -30.0700   57.4900 O.2       2 ALA2        0.0000 
     12 N          -9.0700  -30.7500   54.9200 N.am      2 ALA2        0.0000 
     13 N          -9.6100  -29.3700   54.6700 N.am      2 ALA2        0.0000 
     14 O         -16.1100  -29.5700   58.7000 O.2       2 ALA2        0.0000 
     15 O         -16.6500  -28.1900   58.4500 O.2       2 ALA2        0.0000 
     16 N          -8.3400  -30.2400   56.1300 N.am      2 ALA2        0.0000 
     17 O         -16.4600  -26.3100   59.4100 O.2       2 ALA2        0.0000 
     18 N         -13.3500  -25.1700   58.9100 N.am      2 ALA2        0.0000 
     19 N         -13.8900  -23.8000   58.6600 N.am      2 ALA2        0.0000 
     20 N         -15.0800  -24.1100   59.5100 N.am      2 ALA2        0.0000 
     21 O         -11.5300  -27.4200   60.6100 O.2       2 ALA2        0.0000 
     22 OD1       -11.0800  -30.3900   52.2600 O.co2     3 ASP3        0.0000 
     23 OD1       -10.3500  -29.8800   53.4600 O.co2     3 ASP3        0.0000 
     24 OD1       -12.0800  -28.8200   54.0700 O.co2     3 ASP3        0.0000 
     25 OD1       -10.1600  -28.0000   54.4200 O.co2     3 ASP3        0.0000 
     26 OD1       -14.3800  -30.6300   58.0900 O.co2     3 ASP3        0.0000 
     27 OD1       -13.0000  -28.4300   58.2000 O.co2     3 ASP3        0.0000 
     28 OD1       -10.5300  -28.9900   58.8000 O.co2     3 ASP3        0.0000 
     29 OD1       -11.0700  -27.6100   58.5500 O.co2     3 ASP3        0.0000 
     30 OD1       -12.2600  -27.9300   59.4000 O.co2     3 ASP3        0.0000 
     31 NZ        -11.0000  -31.5700   54.5700 N.4       4 LYS4        0.0000 
     32 NZ        -12.1900  -31.8900   55.4200 N.4       4 LYS4        0.0000 
     33 NZ        -10.2600  -31.0600   55.7800 N.4       4 LYS4        0.0000 
     34 NZ        -10.8100  -29.6900   55.5300 N.4       4 LYS4        0.0000 
     35 NZ        -12.0000  -30.0000   56.3800 N.4       4 LYS4        0.0000 
     36 NZ        -13.1900  -30.3200   57.2400 N.4       4 LYS4        0.0000 
     37 NZ        -10.0700  -29.1800   56.7300 N.4       4 LYS4        0.0000 
     38 NZ        -11.2600  -29.5000   57.5900 N.4       4 LYS4        0.0000 
     39 NZ         -9.3400  -28.6800   57.9400 N.4       4 LYS4        0.0000 
     40 CZ        -12.6100  -24.6700   60.1100 C.ar      5 PHE5        0.0000 
     41 CA        -11.3500  -28.3100   55.2800 C.3       6 GLY6        0.0000 
     42 CA        -10.6100  -27.8100   56.4800 C.3       6 GLY6        0.0000 
     43 CA        -11.1500  -26.4300   56.2400 C.3       6 GLY6        0.0000 
     44 CA        -11.7000  -25.0500   55.9900 C.3       6 GLY6        0.0000 
     45 CA         -9.8800  -27.3000   57.6900 C.3       6 GLY6        0.0000 
     46 CA        -10.4200  -25.9200   57.4400 C.3       6 GLY6        0.0000 
     47 CA        -14.5400  -25.4900   59.7600 C.3       6 GLY6        0.0000 
     48 CA        -10.3400  -27.1100   59.7500 C.3       6 GLY6        0.0000 
     49 CA        -10.8800  -25.7300   59.5000 C.3       6 GLY6        0.0000 
     50 CA        -12.0700  -26.0400   60.3600 C.3       6 GLY6        0.0000 
     51 DU        -11.5400  -30.1900   54.3200 H         7 CUB7        0.0000 
     52 DU        -12.7300  -30.5100   55.1800 H         7 CUB7        0.0000 
     53 DU        -13.2700  -29.1300   54.9300 H         7 CUB7        0.0000 
     54 DU        -14.4600  -29.4500   55.7800 H         7 CUB7        0.0000 
     55 DU        -12.5400  -28.6300   56.1300 H         7 CUB7        0.0000 
     56 DU        -13.7300  -28.9400   56.9900 H         7 CUB7        0.0000 
     57 DU        -15.4600  -27.8800   57.6000 H         7 CUB7        0.0000 
     58 DU        -16.0000  -26.5000   57.3500 H         7 CUB7        0.0000 
     59 DU        -11.8000  -28.1200   57.3400 H         7 CUB7        0.0000 
     60 DU        -12.3500  -26.7400   57.0900 H         7 CUB7        0.0000 
     61 DU        -13.5400  -27.0600   57.9500 H         7 CUB7        0.0000 
     62 DU        -14.0800  -25.6800   57.7000 H         7 CUB7        0.0000 
     63 DU        -15.2700  -25.9900   58.5500 H         7 CUB7        0.0000 
     64 DU        -15.8100  -24.6200   58.3100 H         7 CUB7        0.0000 
     65 DU        -11.6100  -26.2400   58.3000 H         7 CUB7        0.0000 
     66 DU        -12.8000  -26.5500   59.1500 H         7 CUB7        0.0000 
@<TRIPOS>BOND
@<TRIPOS>SUBSTRUCTURE
     1 SER1        1 GROUP   
     2 ALA2        7 GROUP   
     3 ASP3       22 GROUP   
     4 LYS4       31 GROUP   
     5 PHE5       40 GROUP   
     6 GLY6       41 GROUP   
     7 CUB7       51 GROUP   
@<TRIPOS>SET

