#    Name: 5zvh_1_SFG_CAVITY_N1_4
#    Modification time : Fri May 22 19:26:04 2020

@<TRIPOS>MOLECULE
5zvh_1_SFG_CAVITY_N1_4
   40     0     6     0     0
SMALL
NO_CHARGES


@<TRIPOS>ATOM
      1 OG        -12.1500  -24.8600   58.0500 O.3       1 SER1        0.0000 
      2 N         -10.4600  -32.9500   54.8200 N.am      2 ALA2        0.0000 
      3 N         -13.9200  -30.8200   56.0300 N.am      2 ALA2        0.0000 
      4 N          -9.0700  -30.7500   54.9200 N.am      2 ALA2        0.0000 
      5 N          -9.6100  -29.3700   54.6700 N.am      2 ALA2        0.0000 
      6 N          -8.3400  -30.2400   56.1300 N.am      2 ALA2        0.0000 
      7 O         -11.5300  -27.4200   60.6100 O.2       2 ALA2        0.0000 
      8 OD1       -11.0800  -30.3900   52.2600 O.co2     3 ASP3        0.0000 
      9 OD1       -10.3500  -29.8800   53.4600 O.co2     3 ASP3        0.0000 
     10 OD1       -12.0800  -28.8200   54.0700 O.co2     3 ASP3        0.0000 
     11 OD1       -10.1600  -28.0000   54.4200 O.co2     3 ASP3        0.0000 
     12 OD1       -13.0000  -28.4300   58.2000 O.co2     3 ASP3        0.0000 
     13 OD1       -10.5300  -28.9900   58.8000 O.co2     3 ASP3        0.0000 
     14 OD1       -11.0700  -27.6100   58.5500 O.co2     3 ASP3        0.0000 
     15 OD1       -12.2600  -27.9300   59.4000 O.co2     3 ASP3        0.0000 
     16 NZ        -11.0000  -31.5700   54.5700 N.4       4 LYS4        0.0000 
     17 NZ        -12.1900  -31.8900   55.4200 N.4       4 LYS4        0.0000 
     18 NZ        -10.2600  -31.0600   55.7800 N.4       4 LYS4        0.0000 
     19 NZ        -10.8100  -29.6900   55.5300 N.4       4 LYS4        0.0000 
     20 NZ        -12.0000  -30.0000   56.3800 N.4       4 LYS4        0.0000 
     21 NZ        -13.1900  -30.3200   57.2400 N.4       4 LYS4        0.0000 
     22 NZ        -10.0700  -29.1800   56.7300 N.4       4 LYS4        0.0000 
     23 NZ        -11.2600  -29.5000   57.5900 N.4       4 LYS4        0.0000 
     24 NZ         -9.3400  -28.6800   57.9400 N.4       4 LYS4        0.0000 
     25 CA        -11.3500  -28.3100   55.2800 C.3       5 GLY6        0.0000 
     26 CA        -10.6100  -27.8100   56.4800 C.3       5 GLY6        0.0000 
     27 CA        -11.1500  -26.4300   56.2400 C.3       5 GLY6        0.0000 
     28 CA        -11.7000  -25.0500   55.9900 C.3       5 GLY6        0.0000 
     29 CA         -9.8800  -27.3000   57.6900 C.3       5 GLY6        0.0000 
     30 CA        -10.4200  -25.9200   57.4400 C.3       5 GLY6        0.0000 
     31 CA        -10.3400  -27.1100   59.7500 C.3       5 GLY6        0.0000 
     32 CA        -10.8800  -25.7300   59.5000 C.3       5 GLY6        0.0000 
     33 CA        -12.0700  -26.0400   60.3600 C.3       5 GLY6        0.0000 
     34 DU        -11.5400  -30.1900   54.3200 H         6 CUB7        0.0000 
     35 DU        -12.7300  -30.5100   55.1800 H         6 CUB7        0.0000 
     36 DU        -13.2700  -29.1300   54.9300 H         6 CUB7        0.0000 
     37 DU        -12.5400  -28.6300   56.1300 H         6 CUB7        0.0000 
     38 DU        -11.8000  -28.1200   57.3400 H         6 CUB7        0.0000 
     39 DU        -12.3500  -26.7400   57.0900 H         6 CUB7        0.0000 
     40 DU        -11.6100  -26.2400   58.3000 H         6 CUB7        0.0000 
@<TRIPOS>BOND
@<TRIPOS>SUBSTRUCTURE
     1 SER1        1 GROUP   
     2 ALA2        2 GROUP   
     3 ASP3        8 GROUP   
     4 LYS4       16 GROUP   
     5 GLY6       25 GROUP   
     6 CUB7       34 GROUP   
@<TRIPOS>SET

