#    Name: 6dw5_3_GTF
#    Modification time : Fri May 22 19:29:33 2020

@<TRIPOS>MOLECULE
6dw5_3_GTF
   30    31     1     0     0
SMALL
NO_CHARGES


@<TRIPOS>ATOM
      1 F1         30.3290   -5.9260  -29.5000 F         1 GTF701      0.0000 
      2 N1         32.2010   -5.8020  -31.6840 N.am      1 GTF701      0.0000 
      3 C2         32.1560   -7.2910  -32.0530 C.2       1 GTF701      0.0000 
      4 F2         32.0990   -4.4750  -29.6010 F         1 GTF701      0.0000 
      5 O2         31.1580   -8.0050  -32.1270 O.2       1 GTF701      0.0000 
      6 N3         33.4730   -7.8970  -32.3250 N.2       1 GTF701      0.0000 
      7 C4         34.7040   -7.1390  -32.3160 C.2       1 GTF701      0.0000 
      8 N4         35.8070   -7.9670  -32.6630 N.pl3     1 GTF701      0.0000 
      9 C5         34.8010   -5.6800  -31.9900 C.2       1 GTF701      0.0000 
     10 C6         33.5230   -5.0060  -31.6600 C.2       1 GTF701      0.0000 
     11 PA         32.0070   -0.0990  -33.3210 P.3       1 GTF701      0.0000 
     12 PB         34.4940    1.2140  -32.6160 P.3       1 GTF701      0.0000 
     13 PG         34.8400    0.1520  -29.6930 P.3       1 GTF701      0.0000 
     14 C1'        30.8730   -5.1690  -31.4120 C.3       1 GTF701      0.0000 
     15 O1A        31.6910    0.9980  -32.3390 O.co2     1 GTF701      0.0000 
     16 O1B        36.0040    0.9140  -32.9240 O.co2     1 GTF701      0.0000 
     17 O1G        34.7250    1.4770  -29.0300 O.co2     1 GTF701      0.0000 
     18 C2'        30.8140   -4.8020  -30.1330 C.3       1 GTF701      0.0000 
     19 O2A        30.9300    0.1230  -34.4450 O.co2     1 GTF701      0.0000 
     20 O2B        34.1060    2.7300  -32.6790 O.co2     1 GTF701      0.0000 
     21 O2G        34.3720   -1.0700  -28.9500 O.co2     1 GTF701      0.0000 
     22 C3'        29.7590   -3.6110  -30.1010 C.3       1 GTF701      0.0000 
     23 O3'        28.4410   -4.0060  -30.0870 O.3       1 GTF701      0.0000 
     24 O3A        33.5750    0.3740  -33.7470 O.3       1 GTF701      0.0000 
     25 O3B        34.0450    0.3000  -31.1720 O.3       1 GTF701      0.0000 
     26 O3G        36.3190    0.0830  -30.0570 O.co2     1 GTF701      0.0000 
     27 C4'        30.1940   -2.7950  -31.4290 C.3       1 GTF701      0.0000 
     28 O4'        30.5080   -3.7700  -32.2590 O.3       1 GTF701      0.0000 
     29 C5'        31.4140   -1.8240  -31.2000 C.3       1 GTF701      0.0000 
     30 O5'        32.0910   -1.5350  -32.4280 O.3       1 GTF701      0.0000 
@<TRIPOS>BOND
     1    1   18 1    
     2    2    3 am   
     3    2   10 1    
     4    2   14 1    
     5    3    5 2    
     6    3    6 1    
     7    4   18 1    
     8    6    7 2    
     9    7    8 1    
    10    7    9 1    
    11    9   10 2    
    12   11   15 ar   
    13   11   19 ar   
    14   11   24 1    
    15   11   30 1    
    16   12   16 ar   
    17   12   20 ar   
    18   12   24 1    
    19   12   25 1    
    20   13   17 ar   
    21   13   21 ar   
    22   13   25 1    
    23   13   26 ar   
    24   14   18 1    
    25   14   28 1    
    26   18   22 1    
    27   22   23 1    
    28   22   27 1    
    29   27   28 1    
    30   27   29 1    
    31   29   30 1    
@<TRIPOS>SUBSTRUCTURE
     1 GTF701      1 GROUP   
@<TRIPOS>SET

