#    Name: 6dw5_9_GTP
#    Modification time : Fri May 22 19:30:02 2020

@<TRIPOS>MOLECULE
6dw5_9_GTP
   32    34     1     0     1
SMALL
NO_CHARGES


@<TRIPOS>ATOM
      1 PG         -2.0750  -21.3620    6.0160 P.3       1 GTP702      0.0000 
      2 O1G        -1.4160  -21.3380    4.6730 O.co2     1 GTP702      0.0000 
      3 O2G        -3.2830  -22.2320    5.9810 O.co2     1 GTP702      0.0000 
      4 O3G        -1.0080  -21.6780    7.0140 O.co2     1 GTP702      0.0000 
      5 O3B        -2.2980  -19.8170    6.3350 O.3       1 GTP702      0.0000 
      6 PB         -2.6240  -18.5280    5.4770 P.3       1 GTP702      0.0000 
      7 O1B        -2.6200  -18.9330    4.0230 O.co2     1 GTP702      0.0000 
      8 O2B        -3.8520  -17.9050    6.0300 O.co2     1 GTP702      0.0000 
      9 O3A        -1.3450  -17.6390    5.8770 O.3       1 GTP702      0.0000 
     10 PA          0.2470  -17.9310    5.4950 P.3       1 GTP702      0.0000 
     11 O1A         0.2190  -19.0030    4.4050 O.co2     1 GTP702      0.0000 
     12 O2A         0.9660  -18.0300    6.7920 O.co2     1 GTP702      0.0000 
     13 O5'         0.6090  -16.5090    5.0220 O.3       1 GTP702      0.0000 
     14 C5'         0.4250  -16.0340    3.6620 C.3       1 GTP702      0.0000 
     15 C4'         1.6950  -15.9880    2.7420 C.3       1 GTP702      0.0000 
     16 O4'         2.4780  -15.0070    3.3630 O.3       1 GTP702      0.0000 
     17 C3'         2.6130  -17.2070    2.8070 C.3       1 GTP702      0.0000 
     18 O3'         2.1630  -18.0490    1.7690 O.3       1 GTP702      0.0000 
     19 C2'         3.9800  -16.6560    2.5800 C.3       1 GTP702      0.0000 
     20 O2'         4.1960  -16.6280    1.1480 O.3       1 GTP702      0.0000 
     21 C1'         3.8930  -15.1910    2.9850 C.3       1 GTP702      0.0000 
     22 N9          4.7640  -14.7980    4.0400 N.pl3     1 GTP702      0.0000 
     23 C8          5.5270  -13.6900    4.0390 C.2       1 GTP702      0.0000 
     24 N7          6.2130  -13.5190    5.1950 N.2       1 GTP702      0.0000 
     25 C5          5.9060  -14.6050    5.9480 C.2       1 GTP702      0.0000 
     26 C6          6.2900  -15.0010    7.2740 C.2       1 GTP702      0.0000 
     27 O6          7.1510  -14.2960    7.9040 O.2       1 GTP702      0.0000 
     28 N1          5.7500  -16.1630    7.7010 N.am      1 GTP702      0.0000 
     29 C2          4.8240  -16.8520    6.9870 C.2       1 GTP702      0.0000 
     30 N2          4.2870  -17.9990    7.4800 N.pl3     1 GTP702      0.0000 
     31 N3          4.4430  -16.4780    5.7380 N.2       1 GTP702      0.0000 
     32 C4          4.9330  -15.3810    5.2400 C.2       1 GTP702      0.0000 
@<TRIPOS>BOND
     1    1    2 ar   
     2    1    3 ar   
     3    1    4 ar   
     4    1    5 1    
     5    5    6 1    
     6    6    7 ar   
     7    6    8 ar   
     8    6    9 1    
     9    9   10 1    
    10   10   11 ar   
    11   10   12 ar   
    12   10   13 1    
    13   13   14 1    
    14   14   15 1    
    15   15   16 1    
    16   15   17 1    
    17   16   21 1    
    18   17   18 1    
    19   17   19 1    
    20   19   20 1    
    21   19   21 1    
    22   21   22 1    
    23   22   23 1    
    24   22   32 1    
    25   23   24 2    
    26   24   25 1    
    27   25   26 1    
    28   25   32 2    
    29   26   27 2    
    30   26   28 am   
    31   28   29 1    
    32   29   30 1    
    33   29   31 2    
    34   31   32 1    
@<TRIPOS>SUBSTRUCTURE
     1 GTP702      1 GROUP   
@<TRIPOS>SET
ATOM$ORANGE STATIC     ATOMS   COLORGROUP SYSTEM 
20 14 14 15 15 17 17 19 19 21 21 23 23 25 25 26 26 29 \
29 32 32 

