#    Name: 6dw5_6_GTF_CAVITY_N1_6
#    Modification time : Fri May 22 19:29:43 2020

@<TRIPOS>MOLECULE
6dw5_6_GTF_CAVITY_N1_6
  107     0     7     0     0
SMALL
NO_CHARGES


@<TRIPOS>ATOM
      1 OG         -2.8600  -14.7200  -36.7800 O.3       1 SER1        0.0000 
      2 OG         -2.4700  -16.0600  -36.2300 O.3       1 SER1        0.0000 
      3 OG         -1.6100  -15.3900  -35.2000 O.3       1 SER1        0.0000 
      4 OG         -0.7600  -14.7100  -34.1700 O.3       1 SER1        0.0000 
      5 OG         -0.3700  -16.0600  -33.6100 O.3       1 SER1        0.0000 
      6 OG          0.0100  -17.4000  -33.0600 O.3       1 SER1        0.0000 
      7 OG          1.5600  -18.7900  -33.4400 O.3       1 SER1        0.0000 
      8 OG          0.3900  -18.7400  -32.5100 O.3       1 SER1        0.0000 
      9 OG          0.4800  -15.3800  -32.5800 O.3       1 SER1        0.0000 
     10 OG         -0.6900  -15.3300  -31.6400 O.3       1 SER1        0.0000 
     11 OG         -1.8500  -15.2800  -30.7100 O.3       1 SER1        0.0000 
     12 OG          0.8700  -16.7300  -32.0300 O.3       1 SER1        0.0000 
     13 OG         -0.3000  -16.6700  -31.0900 O.3       1 SER1        0.0000 
     14 OG          2.4200  -18.1200  -32.4100 O.3       1 SER1        0.0000 
     15 OG         -0.2100  -13.3200  -31.1700 O.3       1 SER1        0.0000 
     16 OG          2.5100  -14.7700  -32.4900 O.3       1 SER1        0.0000 
     17 OG          0.1700  -14.6600  -30.6100 O.3       1 SER1        0.0000 
     18 OG          2.8900  -16.1100  -31.9400 O.3       1 SER1        0.0000 
     19 N          -4.5500  -12.0900  -41.4400 N.am      2 ALA2        0.0000 
     20 N          -6.8900  -11.9800  -39.5700 N.am      2 ALA2        0.0000 
     21 N          -4.1700  -13.4300  -40.8900 N.am      2 ALA2        0.0000 
     22 N          -6.4100   -9.9700  -39.0900 N.am      2 ALA2        0.0000 
     23 O          -7.2000  -11.2600  -37.6000 O.2       2 ALA2        0.0000 
     24 O          -6.8200  -12.6000  -37.0500 O.2       2 ALA2        0.0000 
     25 N          -4.3900   -9.3500  -39.0000 N.am      2 ALA2        0.0000 
     26 N          -5.5600   -9.3000  -38.0600 N.am      2 ALA2        0.0000 
     27 N          -4.0000  -10.6900  -38.4400 N.am      2 ALA2        0.0000 
     28 N          -5.1700  -10.6400  -37.5100 N.am      2 ALA2        0.0000 
     29 N          -1.2800  -12.1400  -39.7700 N.am      2 ALA2        0.0000 
     30 O          -3.6200  -12.0300  -37.8900 O.2       2 ALA2        0.0000 
     31 O          -4.7900  -11.9800  -36.9500 O.2       2 ALA2        0.0000 
     32 N          -5.9600  -11.9300  -36.0100 N.am      2 ALA2        0.0000 
     33 O          -4.4100  -13.3200  -36.4000 O.2       2 ALA2        0.0000 
     34 N          -5.5800  -13.2700  -35.4600 N.am      2 ALA2        0.0000 
     35 N          -1.9800  -10.0800  -38.3500 N.am      2 ALA2        0.0000 
     36 O          -1.5900  -11.4200  -37.8000 O.2       2 ALA2        0.0000 
     37 O          -2.3800  -12.7000  -36.3100 O.2       2 ALA2        0.0000 
     38 O          -3.5500  -12.6500  -35.3700 O.2       2 ALA2        0.0000 
     39 O          -4.7200  -12.6000  -34.4300 O.2       2 ALA2        0.0000 
     40 N           0.4300  -10.8000  -37.7000 N.am      2 ALA2        0.0000 
     41 O          -0.7400  -10.7500  -36.7700 O.2       2 ALA2        0.0000 
     42 O          -1.5200  -12.0300  -35.2700 O.2       2 ALA2        0.0000 
     43 OD1        -4.0800  -10.0800  -40.9700 O.co2     3 ASP3        0.0000 
     44 OD1        -5.2500  -10.0200  -40.0300 O.co2     3 ASP3        0.0000 
     45 OD1        -3.6900  -11.4200  -40.4100 O.co2     3 ASP3        0.0000 
     46 OD1        -2.8300  -10.7500  -39.3800 O.co2     3 ASP3        0.0000 
     47 OD1        -3.5700  -16.6200  -32.7700 O.co2     3 ASP3        0.0000 
     48 OD1        -3.1900  -17.9600  -32.2200 O.co2     3 ASP3        0.0000 
     49 OD1        -2.7100  -15.9500  -31.7400 O.co2     3 ASP3        0.0000 
     50 OD1        -2.3300  -17.2900  -31.1800 O.co2     3 ASP3        0.0000 
     51 OD1         0.7700  -20.0800  -31.9500 O.co2     3 ASP3        0.0000 
     52 NZ          3.3700  -14.1000  -31.4600 N.4       4 LYS4        0.0000 
     53 CZ         -2.0000  -14.0500  -35.7500 C.ar      5 PHE5        0.0000 
     54 CZ         -3.1700  -13.9900  -34.8100 C.ar      5 PHE5        0.0000 
     55 CZ         -2.4000  -16.6700  -33.7100 C.ar      5 PHE5        0.0000 
     56 CZ         -2.0200  -18.0100  -33.1500 C.ar      5 PHE5        0.0000 
     57 CZ         -0.4700  -19.4100  -33.5400 C.ar      5 PHE5        0.0000 
     58 CZ          0.0300  -13.4300  -35.6600 C.ar      5 PHE5        0.0000 
     59 CZ         -1.1400  -13.3700  -34.7200 C.ar      5 PHE5        0.0000 
     60 CZ         -1.9300  -14.6600  -33.2300 C.ar      5 PHE5        0.0000 
     61 CZ          0.8900  -12.7600  -34.6300 C.ar      5 PHE5        0.0000 
     62 CZ         -0.2800  -12.7000  -33.6900 C.ar      5 PHE5        0.0000 
     63 CZ          0.1000  -14.0400  -33.1400 C.ar      5 PHE5        0.0000 
     64 CZ          1.2500  -18.0700  -31.4800 C.ar      5 PHE5        0.0000 
     65 CZ          1.7500  -12.0900  -33.6000 C.ar      5 PHE5        0.0000 
     66 CZ          0.5800  -12.0300  -32.6600 C.ar      5 PHE5        0.0000 
     67 CZ          2.1300  -13.4300  -33.0400 C.ar      5 PHE5        0.0000 
     68 CZ          0.9600  -13.3700  -32.1000 C.ar      5 PHE5        0.0000 
     69 CZ          1.3400  -14.7100  -31.5500 C.ar      5 PHE5        0.0000 
     70 CZ          1.7200  -16.0500  -31.0000 C.ar      5 PHE5        0.0000 
     71 CZ          2.2000  -14.0400  -30.5200 C.ar      5 PHE5        0.0000 
     72 CA         -4.9500  -14.7200  -39.4000 C.3       6 GLY6        0.0000 
     73 CA         -3.4000  -16.1100  -39.7800 C.3       6 GLY6        0.0000 
     74 CA         -2.5200  -11.4700  -41.3500 C.3       6 GLY6        0.0000 
     75 CA         -2.1400  -12.8100  -40.8000 C.3       6 GLY6        0.0000 
     76 CA         -3.3100  -12.7600  -39.8600 C.3       6 GLY6        0.0000 
     77 CA         -2.9300  -14.1000  -39.3100 C.3       6 GLY6        0.0000 
     78 CA         -2.5400  -15.4400  -38.7500 C.3       6 GLY6        0.0000 
     79 CA         -6.3400  -10.5900  -36.5700 C.3       6 GLY6        0.0000 
     80 CA         -0.9000  -13.4800  -39.2100 C.3       6 GLY6        0.0000 
     81 CA         -2.0700  -13.4300  -38.2700 C.3       6 GLY6        0.0000 
     82 CA         -1.6900  -14.7700  -37.7200 C.3       6 GLY6        0.0000 
     83 CA         -1.2100  -12.7600  -37.2400 C.3       6 GLY6        0.0000 
     84 CA          0.8200  -12.1400  -37.1500 C.3       6 GLY6        0.0000 
     85 CA         -0.3500  -12.0900  -36.2100 C.3       6 GLY6        0.0000 
     86 CA          1.6700  -11.4700  -36.1200 C.3       6 GLY6        0.0000 
     87 CA          0.5000  -11.4200  -35.1800 C.3       6 GLY6        0.0000 
     88 CA         -0.6600  -11.3600  -34.2400 C.3       6 GLY6        0.0000 
     89 CA          2.9900  -12.7600  -32.0100 C.3       6 GLY6        0.0000 
     90 DU         -5.7200  -12.0400  -40.5100 H         7 CUB7        0.0000 
     91 DU         -5.3400  -13.3800  -39.9500 H         7 CUB7        0.0000 
     92 DU         -6.5100  -13.3200  -39.0200 H         7 CUB7        0.0000 
     93 DU         -4.8600  -11.3700  -39.4800 H         7 CUB7        0.0000 
     94 DU         -6.0300  -11.3100  -38.5400 H         7 CUB7        0.0000 
     95 DU         -4.4800  -12.7100  -38.9200 H         7 CUB7        0.0000 
     96 DU         -5.6500  -12.6500  -37.9800 H         7 CUB7        0.0000 
     97 DU         -4.1000  -14.0500  -38.3700 H         7 CUB7        0.0000 
     98 DU         -2.4500  -12.0900  -38.8300 H         7 CUB7        0.0000 
     99 DU         -3.2400  -13.3800  -37.3400 H         7 CUB7        0.0000 
    100 DU         -4.0200  -14.6600  -35.8500 H         7 CUB7        0.0000 
    101 DU         -2.7800  -15.3300  -34.2600 H         7 CUB7        0.0000 
    102 DU         -1.6400  -19.3500  -32.6000 H         7 CUB7        0.0000 
    103 DU         -1.2500  -20.6900  -32.0500 H         7 CUB7        0.0000 
    104 DU         -1.5400  -16.0000  -32.6800 H         7 CUB7        0.0000 
    105 DU         -1.1600  -17.3400  -32.1200 H         7 CUB7        0.0000 
    106 DU         -0.7800  -18.6800  -31.5700 H         7 CUB7        0.0000 
    107 DU         -1.9500  -18.6300  -30.6300 H         7 CUB7        0.0000 
@<TRIPOS>BOND
@<TRIPOS>SUBSTRUCTURE
     1 SER1        1 GROUP   
     2 ALA2       19 GROUP   
     3 ASP3       43 GROUP   
     4 LYS4       52 GROUP   
     5 PHE5       53 GROUP   
     6 GLY6       72 GROUP   
     7 CUB7       90 GROUP   
@<TRIPOS>SET

