#    Name: 6dw5_3_GTF_CAVITY_N1_4
#    Modification time : Fri May 22 19:29:35 2020

@<TRIPOS>MOLECULE
6dw5_3_GTF_CAVITY_N1_4
   74     0     7     0     0
SMALL
NO_CHARGES


@<TRIPOS>ATOM
      1 OG         30.9800   -2.7700  -31.2500 O.3       1 SER1        0.0000 
      2 OG         36.4300   -5.6600  -33.9000 O.3       1 SER1        0.0000 
      3 OG         33.8000   -0.8600  -32.6500 O.3       1 SER1        0.0000 
      4 OG         32.6300   -0.8100  -31.7100 O.3       1 SER1        0.0000 
      5 OG         34.1800   -2.2000  -32.1000 O.3       1 SER1        0.0000 
      6 OG         33.0100   -2.1500  -31.1600 O.3       1 SER1        0.0000 
      7 OG         34.5600   -3.5400  -31.5400 O.3       1 SER1        0.0000 
      8 OG         33.3900   -3.4900  -30.6100 O.3       1 SER1        0.0000 
      9 OG         33.8700   -1.4800  -30.1300 O.3       1 SER1        0.0000 
     10 OG         34.2500   -2.8200  -29.5800 O.3       1 SER1        0.0000 
     11 N          36.2600   -8.4000  -36.3500 N.am      2 ALA2        0.0000 
     12 N          37.1200   -7.7300  -35.3100 N.am      2 ALA2        0.0000 
     13 O          36.3400   -9.0100  -33.8200 O.2       2 ALA2        0.0000 
     14 O          36.8100   -7.0000  -33.3500 O.2       2 ALA2        0.0000 
     15 O          35.6400   -6.9500  -32.4100 O.2       2 ALA2        0.0000 
     16 O          34.4700   -6.9000  -31.4700 O.2       2 ALA2        0.0000 
     17 O          37.1900   -8.3400  -32.7900 O.2       2 ALA2        0.0000 
     18 N          38.7500   -9.7400  -33.1800 N.am      2 ALA2        0.0000 
     19 O          37.6700   -6.3300  -32.3100 O.2       2 ALA2        0.0000 
     20 O          36.5000   -6.2800  -31.3800 O.2       2 ALA2        0.0000 
     21 O          39.2200   -7.7300  -32.7000 O.2       2 ALA2        0.0000 
     22 O          38.0500   -7.6700  -31.7600 O.2       2 ALA2        0.0000 
     23 N          39.6000   -9.0700  -32.1400 N.am      2 ALA2        0.0000 
     24 O          38.9100   -7.0000  -30.7300 O.2       2 ALA2        0.0000 
     25 OD1        36.6500   -9.7400  -35.7900 O.co2     3 ASP3        0.0000 
     26 OD1        37.8900  -10.4100  -34.2100 O.co2     3 ASP3        0.0000 
     27 OD1        34.2700    1.1500  -32.1700 O.co2     3 ASP3        0.0000 
     28 OD1        35.1300    1.8200  -31.1400 O.co2     3 ASP3        0.0000 
     29 OD1        36.6800    0.4300  -31.5300 O.co2     3 ASP3        0.0000 
     30 OD1        35.9000   -0.8600  -30.0400 O.co2     3 ASP3        0.0000 
     31 OD1        37.8300   -3.6000  -29.8700 O.co2     3 ASP3        0.0000 
     32 OD1        37.9200   -0.2400  -29.9400 O.co2     3 ASP3        0.0000 
     33 NZ         30.2000   -4.0600  -29.7600 N.4       4 LYS4        0.0000 
     34 NZ         32.2500    0.5300  -32.2700 N.4       4 LYS4        0.0000 
     35 NZ         33.1000    1.2000  -31.2400 N.4       4 LYS4        0.0000 
     36 CZ         30.5100   -4.7800  -31.7300 C.ar      5 PHE5        0.0000 
     37 CZ         32.0600   -6.1700  -32.1200 C.ar      5 PHE5        0.0000 
     38 CZ         32.5400   -4.1600  -31.6400 C.ar      5 PHE5        0.0000 
     39 CZ         31.3700   -4.1100  -30.7000 C.ar      5 PHE5        0.0000 
     40 CZ         35.2600   -5.6100  -32.9600 C.ar      5 PHE5        0.0000 
     41 CZ         34.0900   -5.5600  -32.0200 C.ar      5 PHE5        0.0000 
     42 CZ         32.9200   -5.5000  -31.0800 C.ar      5 PHE5        0.0000 
     43 CZ         31.7500   -5.4500  -30.1500 C.ar      5 PHE5        0.0000 
     44 CZ         31.4600   -0.7600  -30.7800 C.ar      5 PHE5        0.0000 
     45 CZ         31.8400   -2.1000  -30.2200 C.ar      5 PHE5        0.0000 
     46 CZ         35.7300   -3.6000  -32.4800 C.ar      5 PHE5        0.0000 
     47 CZ         32.2300   -3.4400  -29.6700 C.ar      5 PHE5        0.0000 
     48 CZ         36.1200   -4.9400  -31.9300 C.ar      5 PHE5        0.0000 
     49 CZ         34.9500   -4.8800  -30.9900 C.ar      5 PHE5        0.0000 
     50 CZ         33.7800   -4.8300  -30.0500 C.ar      5 PHE5        0.0000 
     51 CZ         32.6100   -4.7800  -29.1200 C.ar      5 PHE5        0.0000 
     52 CZ         33.4900   -0.1400  -30.6800 C.ar      5 PHE5        0.0000 
     53 CZ         35.4200   -2.8700  -30.5100 C.ar      5 PHE5        0.0000 
     54 CZ         36.9700   -4.2700  -30.9000 C.ar      5 PHE5        0.0000 
     55 CZ         37.3600   -5.6100  -30.3400 C.ar      5 PHE5        0.0000 
     56 CA         35.4800   -9.6800  -34.8500 C.3       6 GLY6        0.0000 
     57 CA         36.7400   -6.3900  -35.8700 C.3       6 GLY6        0.0000 
     58 CA         30.8900   -6.1200  -31.1800 C.3       6 GLY6        0.0000 
     59 CA         35.9500   -7.6700  -34.3800 C.3       6 GLY6        0.0000 
     60 CA         34.7800   -7.6200  -33.4400 C.3       6 GLY6        0.0000 
     61 CA         33.6100   -7.5700  -32.5000 C.3       6 GLY6        0.0000 
     62 CA         32.4400   -7.5100  -31.5600 C.3       6 GLY6        0.0000 
     63 CA         33.3000   -6.8400  -30.5300 C.3       6 GLY6        0.0000 
     64 DU         37.5100   -9.0700  -34.7600 H         7 CUB7        0.0000 
     65 DU         37.9800   -7.0600  -34.2800 H         7 CUB7        0.0000 
     66 DU         38.3600   -8.4000  -33.7300 H         7 CUB7        0.0000 
     67 DU         37.2900   -4.9900  -32.8700 H         7 CUB7        0.0000 
     68 DU         38.8400   -6.3800  -33.2500 H         7 CUB7        0.0000 
     69 DU         34.6600   -0.1900  -31.6200 H         7 CUB7        0.0000 
     70 DU         35.0400   -1.5300  -31.0700 H         7 CUB7        0.0000 
     71 DU         36.5900   -2.9300  -31.4500 H         7 CUB7        0.0000 
     72 DU         38.1400   -4.3200  -31.8400 H         7 CUB7        0.0000 
     73 DU         38.5300   -5.6600  -31.2800 H         7 CUB7        0.0000 
     74 DU         35.5100    0.4800  -30.5900 H         7 CUB7        0.0000 
@<TRIPOS>BOND
@<TRIPOS>SUBSTRUCTURE
     1 SER1        1 GROUP   
     2 ALA2       11 GROUP   
     3 ASP3       25 GROUP   
     4 LYS4       33 GROUP   
     5 PHE5       36 GROUP   
     6 GLY6       56 GROUP   
     7 CUB7       64 GROUP   
@<TRIPOS>SET

