#    Name: 6dw5_3_GTF_CAVITY_N1_ALL
#    Modification time : Fri May 22 19:29:35 2020

@<TRIPOS>MOLECULE
6dw5_3_GTF_CAVITY_N1_ALL
  133     0     7     0     0
SMALL
NO_CHARGES


@<TRIPOS>ATOM
      1 OG         30.9800   -2.7700  -31.2500 O.3       1 SER1        0.0000 
      2 OG         36.4300   -5.6600  -33.9000 O.3       1 SER1        0.0000 
      3 OG         33.8000   -0.8600  -32.6500 O.3       1 SER1        0.0000 
      4 OG         32.6300   -0.8100  -31.7100 O.3       1 SER1        0.0000 
      5 OG         34.1800   -2.2000  -32.1000 O.3       1 SER1        0.0000 
      6 OG         33.0100   -2.1500  -31.1600 O.3       1 SER1        0.0000 
      7 OG         34.5600   -3.5400  -31.5400 O.3       1 SER1        0.0000 
      8 OG         33.3900   -3.4900  -30.6100 O.3       1 SER1        0.0000 
      9 OG         33.8700   -1.4800  -30.1300 O.3       1 SER1        0.0000 
     10 OG         34.2500   -2.8200  -29.5800 O.3       1 SER1        0.0000 
     11 OG         38.6000   -6.2800  -28.7600 O.3       1 SER1        0.0000 
     12 OG         37.9000   -4.2100  -27.3400 O.3       1 SER1        0.0000 
     13 N          36.2600   -8.4000  -36.3500 N.am      2 ALA2        0.0000 
     14 N          37.1200   -7.7300  -35.3100 N.am      2 ALA2        0.0000 
     15 N          39.8400   -9.1700  -36.6400 N.am      2 ALA2        0.0000 
     16 O          36.3400   -9.0100  -33.8200 O.2       2 ALA2        0.0000 
     17 N          41.4000  -10.5700  -37.0200 N.am      2 ALA2        0.0000 
     18 N          40.3200   -7.1600  -36.1600 N.am      2 ALA2        0.0000 
     19 O          36.8100   -7.0000  -33.3500 O.2       2 ALA2        0.0000 
     20 O          35.6400   -6.9500  -32.4100 O.2       2 ALA2        0.0000 
     21 O          34.4700   -6.9000  -31.4700 O.2       2 ALA2        0.0000 
     22 N          40.7000   -8.5000  -35.6100 N.am      2 ALA2        0.0000 
     23 O          37.1900   -8.3400  -32.7900 O.2       2 ALA2        0.0000 
     24 N          41.0800   -9.8400  -35.0500 N.am      2 ALA2        0.0000 
     25 N          38.7500   -9.7400  -33.1800 N.am      2 ALA2        0.0000 
     26 N          41.4700  -11.1800  -34.5000 N.am      2 ALA2        0.0000 
     27 N          40.3000  -11.1300  -33.5600 N.am      2 ALA2        0.0000 
     28 N          39.1300  -11.0800  -32.6200 N.am      2 ALA2        0.0000 
     29 O          37.6700   -6.3300  -32.3100 O.2       2 ALA2        0.0000 
     30 O          36.5000   -6.2800  -31.3800 O.2       2 ALA2        0.0000 
     31 O          39.2200   -7.7300  -32.7000 O.2       2 ALA2        0.0000 
     32 O          38.0500   -7.6700  -31.7600 O.2       2 ALA2        0.0000 
     33 N          43.1100   -9.2300  -34.9600 N.am      2 ALA2        0.0000 
     34 N          41.9400   -9.1700  -34.0200 N.am      2 ALA2        0.0000 
     35 N          40.7700   -9.1200  -33.0800 N.am      2 ALA2        0.0000 
     36 N          39.6000   -9.0700  -32.1400 N.am      2 ALA2        0.0000 
     37 N          41.1600  -10.4600  -32.5300 N.am      2 ALA2        0.0000 
     38 N          39.9900  -10.4100  -31.5900 N.am      2 ALA2        0.0000 
     39 O          42.4200   -7.1600  -33.5400 O.2       2 ALA2        0.0000 
     40 N          40.0800   -7.0500  -31.6700 N.am      2 ALA2        0.0000 
     41 O          38.9100   -7.0000  -30.7300 O.2       2 ALA2        0.0000 
     42 N          42.8000   -8.5000  -32.9900 N.am      2 ALA2        0.0000 
     43 O          41.6300   -8.4500  -32.0500 O.2       2 ALA2        0.0000 
     44 O          40.4600   -8.4000  -31.1100 O.2       2 ALA2        0.0000 
     45 O          39.2900   -8.3400  -30.1800 O.2       2 ALA2        0.0000 
     46 N          40.5500   -5.0400  -31.1900 N.am      2 ALA2        0.0000 
     47 N          39.3800   -4.9900  -30.2500 N.am      2 ALA2        0.0000 
     48 N          40.9400   -6.3800  -30.6400 N.am      2 ALA2        0.0000 
     49 N          39.7700   -6.3300  -29.7000 N.am      2 ALA2        0.0000 
     50 N          41.4100   -4.3700  -30.1600 N.am      2 ALA2        0.0000 
     51 N          40.2400   -4.3200  -29.2200 N.am      2 ALA2        0.0000 
     52 N          39.4600   -5.6100  -27.7300 N.am      2 ALA2        0.0000 
     53 O          40.3100   -4.9400  -26.7000 O.2       2 ALA2        0.0000 
     54 N          39.1400   -4.8800  -25.7600 N.am      2 ALA2        0.0000 
     55 OD1        36.6500   -9.7400  -35.7900 O.co2     3 ASP3        0.0000 
     56 OD1        39.0600  -10.4600  -35.1500 O.co2     3 ASP3        0.0000 
     57 OD1        37.8900  -10.4100  -34.2100 O.co2     3 ASP3        0.0000 
     58 OD1        41.4900   -7.2200  -37.1000 O.co2     3 ASP3        0.0000 
     59 OD1        41.8700   -8.5600  -36.5400 O.co2     3 ASP3        0.0000 
     60 OD1        42.7300   -7.8800  -35.5100 O.co2     3 ASP3        0.0000 
     61 OD1        34.2700    1.1500  -32.1700 O.co2     3 ASP3        0.0000 
     62 OD1        35.1300    1.8200  -31.1400 O.co2     3 ASP3        0.0000 
     63 OD1        36.6800    0.4300  -31.5300 O.co2     3 ASP3        0.0000 
     64 OD1        35.9000   -0.8600  -30.0400 O.co2     3 ASP3        0.0000 
     65 OD1        37.8300   -3.6000  -29.8700 O.co2     3 ASP3        0.0000 
     66 OD1        37.9200   -0.2400  -29.9400 O.co2     3 ASP3        0.0000 
     67 OD1        39.8600   -2.9800  -29.7700 O.co2     3 ASP3        0.0000 
     68 OD1        39.0700   -4.2700  -28.2800 O.co2     3 ASP3        0.0000 
     69 NZ         40.6100  -11.8500  -35.5300 N.4       4 LYS4        0.0000 
     70 NZ         30.2000   -4.0600  -29.7600 N.4       4 LYS4        0.0000 
     71 NZ         32.2500    0.5300  -32.2700 N.4       4 LYS4        0.0000 
     72 NZ         33.1000    1.2000  -31.2400 N.4       4 LYS4        0.0000 
     73 NZ         41.8900   -2.3600  -29.6800 N.4       4 LYS4        0.0000 
     74 NZ         42.2700   -3.7000  -29.1300 N.4       4 LYS4        0.0000 
     75 NZ         41.1000   -3.6500  -28.1900 N.4       4 LYS4        0.0000 
     76 NZ         39.9300   -3.5900  -27.2500 N.4       4 LYS4        0.0000 
     77 CZ         30.5100   -4.7800  -31.7300 C.ar      5 PHE5        0.0000 
     78 CZ         32.0600   -6.1700  -32.1200 C.ar      5 PHE5        0.0000 
     79 CZ         32.5400   -4.1600  -31.6400 C.ar      5 PHE5        0.0000 
     80 CZ         31.3700   -4.1100  -30.7000 C.ar      5 PHE5        0.0000 
     81 CZ         35.2600   -5.6100  -32.9600 C.ar      5 PHE5        0.0000 
     82 CZ         34.0900   -5.5600  -32.0200 C.ar      5 PHE5        0.0000 
     83 CZ         32.9200   -5.5000  -31.0800 C.ar      5 PHE5        0.0000 
     84 CZ         31.7500   -5.4500  -30.1500 C.ar      5 PHE5        0.0000 
     85 CZ         42.2500   -9.9000  -35.9900 C.ar      5 PHE5        0.0000 
     86 CZ         31.4600   -0.7600  -30.7800 C.ar      5 PHE5        0.0000 
     87 CZ         31.8400   -2.1000  -30.2200 C.ar      5 PHE5        0.0000 
     88 CZ         35.7300   -3.6000  -32.4800 C.ar      5 PHE5        0.0000 
     89 CZ         32.2300   -3.4400  -29.6700 C.ar      5 PHE5        0.0000 
     90 CZ         36.1200   -4.9400  -31.9300 C.ar      5 PHE5        0.0000 
     91 CZ         34.9500   -4.8800  -30.9900 C.ar      5 PHE5        0.0000 
     92 CZ         33.7800   -4.8300  -30.0500 C.ar      5 PHE5        0.0000 
     93 CZ         32.6100   -4.7800  -29.1200 C.ar      5 PHE5        0.0000 
     94 CZ         33.4900   -0.1400  -30.6800 C.ar      5 PHE5        0.0000 
     95 CZ         35.4200   -2.8700  -30.5100 C.ar      5 PHE5        0.0000 
     96 CZ         36.9700   -4.2700  -30.9000 C.ar      5 PHE5        0.0000 
     97 CZ         37.3600   -5.6100  -30.3400 C.ar      5 PHE5        0.0000 
     98 CZ         38.2200   -4.9400  -29.3100 C.ar      5 PHE5        0.0000 
     99 CZ         38.2900   -5.5500  -26.7900 C.ar      5 PHE5        0.0000 
    100 CA         37.4300   -8.4500  -37.2800 C.3       6 GLY6        0.0000 
    101 CA         37.8200   -9.7900  -36.7300 C.3       6 GLY6        0.0000 
    102 CA         35.4800   -9.6800  -34.8500 C.3       6 GLY6        0.0000 
    103 CA         36.7400   -6.3900  -35.8700 C.3       6 GLY6        0.0000 
    104 CA         30.8900   -6.1200  -31.1800 C.3       6 GLY6        0.0000 
    105 CA         38.2900   -7.7800  -36.2500 C.3       6 GLY6        0.0000 
    106 CA         35.9500   -7.6700  -34.3800 C.3       6 GLY6        0.0000 
    107 CA         34.7800   -7.6200  -33.4400 C.3       6 GLY6        0.0000 
    108 CA         33.6100   -7.5700  -32.5000 C.3       6 GLY6        0.0000 
    109 CA         32.4400   -7.5100  -31.5600 C.3       6 GLY6        0.0000 
    110 CA         40.2300  -10.5100  -36.0800 C.3       6 GLY6        0.0000 
    111 CA         39.1500   -7.1100  -35.2200 C.3       6 GLY6        0.0000 
    112 CA         33.3000   -6.8400  -30.5300 C.3       6 GLY6        0.0000 
    113 CA         41.7200   -5.1000  -32.1300 C.3       6 GLY6        0.0000 
    114 CA         42.5800   -4.4300  -31.1000 C.3       6 GLY6        0.0000 
    115 DU         38.6700   -9.1200  -35.7000 H         7 CUB7        0.0000 
    116 DU         37.5100   -9.0700  -34.7600 H         7 CUB7        0.0000 
    117 DU         37.9800   -7.0600  -34.2800 H         7 CUB7        0.0000 
    118 DU         39.5300   -8.4500  -34.6700 H         7 CUB7        0.0000 
    119 DU         38.3600   -8.4000  -33.7300 H         7 CUB7        0.0000 
    120 DU         39.9200   -9.7900  -34.1100 H         7 CUB7        0.0000 
    121 DU         37.2900   -4.9900  -32.8700 H         7 CUB7        0.0000 
    122 DU         38.8400   -6.3800  -33.2500 H         7 CUB7        0.0000 
    123 DU         41.5600   -7.8300  -34.5700 H         7 CUB7        0.0000 
    124 DU         34.6600   -0.1900  -31.6200 H         7 CUB7        0.0000 
    125 DU         35.0400   -1.5300  -31.0700 H         7 CUB7        0.0000 
    126 DU         36.5900   -2.9300  -31.4500 H         7 CUB7        0.0000 
    127 DU         38.1400   -4.3200  -31.8400 H         7 CUB7        0.0000 
    128 DU         40.8700   -5.7700  -33.1600 H         7 CUB7        0.0000 
    129 DU         39.7000   -5.7100  -32.2200 H         7 CUB7        0.0000 
    130 DU         38.5300   -5.6600  -31.2800 H         7 CUB7        0.0000 
    131 DU         41.2500   -7.1100  -32.6000 H         7 CUB7        0.0000 
    132 DU         35.5100    0.4800  -30.5900 H         7 CUB7        0.0000 
    133 DU         39.0000   -3.6500  -30.8000 H         7 CUB7        0.0000 
@<TRIPOS>BOND
@<TRIPOS>SUBSTRUCTURE
     1 SER1        1 GROUP   
     2 ALA2       13 GROUP   
     3 ASP3       55 GROUP   
     4 LYS4       69 GROUP   
     5 PHE5       77 GROUP   
     6 GLY6      100 GROUP   
     7 CUB7      115 GROUP   
@<TRIPOS>SET

