#    Name: 6dw5_6_GTF
#    Modification time : Fri May 22 19:29:41 2020

@<TRIPOS>MOLECULE
6dw5_6_GTF
   30    31     1     0     0
SMALL
NO_CHARGES


@<TRIPOS>ATOM
      1 F1          3.0290  -12.2340  -31.2640 F         1 GTF705      0.0000 
      2 N1          1.4080  -13.2190  -33.8370 N.am      1 GTF705      0.0000 
      3 C2          1.5380  -12.0570  -34.8750 C.2       1 GTF705      0.0000 
      4 F2          1.2800  -13.8650  -31.0720 F         1 GTF705      0.0000 
      5 O2          2.5650  -11.4060  -35.0250 O.2       1 GTF705      0.0000 
      6 N3          0.3690  -11.6560  -35.7230 N.2       1 GTF705      0.0000 
      7 C4         -0.8510  -12.4120  -35.5430 C.2       1 GTF705      0.0000 
      8 N4         -1.8690  -12.0430  -36.4020 N.pl3     1 GTF705      0.0000 
      9 C5         -1.0740  -13.5550  -34.6150 C.2       1 GTF705      0.0000 
     10 C6          0.0880  -13.9360  -33.7520 C.2       1 GTF705      0.0000 
     11 PA          2.6480  -18.9780  -32.5620 P.3       1 GTF705      0.0000 
     12 PB         -0.3150  -20.0040  -32.0160 P.3       1 GTF705      0.0000 
     13 PG         -1.7440  -18.3130  -29.8230 P.3       1 GTF705      0.0000 
     14 C1'         2.6430  -13.6130  -32.9910 C.3       1 GTF705      0.0000 
     15 O1A         3.8570  -18.7420  -31.4950 O.co2     1 GTF705      0.0000 
     16 O1B        -0.9340  -19.9960  -33.4510 O.co2     1 GTF705      0.0000 
     17 O1G        -2.0890  -19.6050  -29.1040 O.co2     1 GTF705      0.0000 
     18 C2'         2.5530  -13.5240  -31.6350 C.3       1 GTF705      0.0000 
     19 O2A         3.0290  -19.9580  -33.7120 O.co2     1 GTF705      0.0000 
     20 O2B        -0.7430  -21.3910  -31.4320 O.co2     1 GTF705      0.0000 
     21 O2G        -1.5460  -17.3900  -28.7080 O.co2     1 GTF705      0.0000 
     22 C3'         3.5400  -14.6050  -31.0150 C.3       1 GTF705      0.0000 
     23 O3'         4.8740  -14.1780  -30.8140 O.3       1 GTF705      0.0000 
     24 O3A         1.3800  -20.0510  -32.1070 O.3       1 GTF705      0.0000 
     25 O3B        -0.4840  -18.5580  -30.9430 O.3       1 GTF705      0.0000 
     26 O3G        -2.9480  -17.9900  -30.6440 O.co2     1 GTF705      0.0000 
     27 C4'         3.2690  -15.8170  -32.0340 C.3       1 GTF705      0.0000 
     28 O4'         3.2340  -15.2070  -33.2150 O.3       1 GTF705      0.0000 
     29 C5'         1.9330  -16.6150  -31.7280 C.3       1 GTF705      0.0000 
     30 O5'         1.7570  -17.5730  -32.7810 O.3       1 GTF705      0.0000 
@<TRIPOS>BOND
     1    1   18 1    
     2    2    3 am   
     3    2   10 1    
     4    2   14 1    
     5    3    5 2    
     6    3    6 1    
     7    4   18 1    
     8    6    7 2    
     9    7    8 1    
    10    7    9 1    
    11    9   10 2    
    12   11   15 ar   
    13   11   19 ar   
    14   11   24 1    
    15   11   30 1    
    16   12   16 ar   
    17   12   20 ar   
    18   12   24 1    
    19   12   25 1    
    20   13   17 ar   
    21   13   21 ar   
    22   13   25 1    
    23   13   26 ar   
    24   14   18 1    
    25   14   28 1    
    26   18   22 1    
    27   22   23 1    
    28   22   27 1    
    29   27   28 1    
    30   27   29 1    
    31   29   30 1    
@<TRIPOS>SUBSTRUCTURE
     1 GTF705      1 GROUP   
@<TRIPOS>SET

