#    Name: 6ns0_2_KRS_CAVITY_N1_12
#    Modification time : Fri May 22 19:26:35 2020

@<TRIPOS>MOLECULE
6ns0_2_KRS_CAVITY_N1_12
   76     0     7     0     0
SMALL
NO_CHARGES


@<TRIPOS>ATOM
      1 OG         25.5600  -20.0200   38.1600 O.3       1 SER1        0.0000 
      2 OG         26.1300  -19.4300   39.4100 O.3       1 SER1        0.0000 
      3 OG         27.5100  -19.5500   38.8400 O.3       1 SER1        0.0000 
      4 N          24.4100  -21.2000   35.6500 N.am      2 ALA2        0.0000 
      5 N          25.3100  -15.8300   32.7100 N.am      2 ALA2        0.0000 
      6 N          24.5000  -15.1200   34.5400 N.am      2 ALA2        0.0000 
      7 N          25.8800  -15.2400   33.9700 N.am      2 ALA2        0.0000 
      8 N          28.6400  -15.4900   32.8200 N.am      2 ALA2        0.0000 
      9 N          24.3800  -13.7400   33.9500 N.am      2 ALA2        0.0000 
     10 N          25.7600  -13.8700   33.3800 N.am      2 ALA2        0.0000 
     11 O          24.9500  -13.1500   35.2000 O.2       2 ALA2        0.0000 
     12 O          26.3400  -13.2800   34.6300 O.2       2 ALA2        0.0000 
     13 N          27.7200  -13.4000   34.0600 N.am      2 ALA2        0.0000 
     14 N          28.4100  -14.1900   35.9000 N.am      2 ALA2        0.0000 
     15 N          28.2900  -12.8100   35.3100 N.am      2 ALA2        0.0000 
     16 N          25.6600  -15.3800   41.3100 N.am      2 ALA2        0.0000 
     17 OD1        24.8600  -19.2400   36.3100 O.co2     3 ASP3        0.0000 
     18 OD1        25.4400  -18.6500   37.5700 O.co2     3 ASP3        0.0000 
     19 OD1        25.3200  -17.2700   36.9800 O.co2     3 ASP3        0.0000 
     20 OD1        23.8200  -15.7700   36.9600 O.co2     3 ASP3        0.0000 
     21 OD1        25.2000  -15.9000   36.3800 O.co2     3 ASP3        0.0000 
     22 OD1        26.0100  -18.0600   38.8200 O.co2     3 ASP3        0.0000 
     23 OD1        25.8900  -16.6800   38.2300 O.co2     3 ASP3        0.0000 
     24 OD1        27.2700  -16.8100   37.6600 O.co2     3 ASP3        0.0000 
     25 OD1        27.1500  -15.4400   37.0600 O.co2     3 ASP3        0.0000 
     26 OD1        26.4700  -16.0900   39.4800 O.co2     3 ASP3        0.0000 
     27 OD1        26.3500  -14.7200   38.8900 O.co2     3 ASP3        0.0000 
     28 NZ         27.9800  -22.1700   32.6800 N.4       4 LYS4        0.0000 
     29 NZ         26.4700  -20.6700   32.6600 N.4       4 LYS4        0.0000 
     30 NZ         26.3500  -19.2900   32.0700 N.4       4 LYS4        0.0000 
     31 NZ         28.5500  -21.5800   33.9300 N.4       4 LYS4        0.0000 
     32 NZ         27.0500  -20.0800   33.9100 N.4       4 LYS4        0.0000 
     33 NZ         28.4300  -20.2000   33.3400 N.4       4 LYS4        0.0000 
     34 NZ         26.9300  -18.7000   33.3200 N.4       4 LYS4        0.0000 
     35 NZ         26.8100  -17.3300   32.7300 N.4       4 LYS4        0.0000 
     36 NZ         29.1200  -20.9900   35.1800 N.4       4 LYS4        0.0000 
     37 NZ         27.6200  -19.4900   35.1700 N.4       4 LYS4        0.0000 
     38 NZ         26.8200  -18.7700   36.9900 N.4       4 LYS4        0.0000 
     39 NZ         27.3900  -18.1800   38.2500 N.4       4 LYS4        0.0000 
     40 CZ         23.7000  -14.4000   36.3700 C.ar      5 PHE5        0.0000 
     41 CZ         24.7500  -19.3000   39.9900 C.ar      5 PHE5        0.0000 
     42 CZ         24.6300  -17.9300   39.3900 C.ar      5 PHE5        0.0000 
     43 CZ         24.5100  -16.5600   38.8000 C.ar      5 PHE5        0.0000 
     44 CZ         24.3900  -15.1800   38.2100 C.ar      5 PHE5        0.0000 
     45 CZ         25.7700  -15.3100   37.6400 C.ar      5 PHE5        0.0000 
     46 CZ         25.6500  -13.9400   37.0500 C.ar      5 PHE5        0.0000 
     47 CZ         23.8300  -17.2100   41.2200 C.ar      5 PHE5        0.0000 
     48 CZ         25.2100  -17.3400   40.6500 C.ar      5 PHE5        0.0000 
     49 CZ         25.0900  -15.9700   40.0600 C.ar      5 PHE5        0.0000 
     50 CZ         24.9700  -14.5900   39.4700 C.ar      5 PHE5        0.0000 
     51 CZ         24.2800  -15.2500   41.8800 C.ar      5 PHE5        0.0000 
     52 CZ         25.5400  -14.0000   40.7200 C.ar      5 PHE5        0.0000 
     53 CA         26.6900  -15.9600   32.1400 C.3       6 GLY6        0.0000 
     54 CA         25.1900  -14.4600   32.1200 C.3       6 GLY6        0.0000 
     55 CA         29.0000  -19.6100   34.5900 C.3       6 GLY6        0.0000 
     56 CA         27.5000  -18.1100   34.5800 C.3       6 GLY6        0.0000 
     57 CA         27.3800  -16.7400   33.9800 C.3       6 GLY6        0.0000 
     58 CA         28.7600  -16.8700   33.4100 C.3       6 GLY6        0.0000 
     59 CA         27.2600  -15.3700   33.3900 C.3       6 GLY6        0.0000 
     60 CA         27.1400  -13.9900   32.8000 C.3       6 GLY6        0.0000 
     61 CA         26.7000  -17.4000   36.4000 C.3       6 GLY6        0.0000 
     62 CA         26.5800  -16.0300   35.8100 C.3       6 GLY6        0.0000 
     63 CA         27.8400  -14.7800   34.6500 C.3       6 GLY6        0.0000 
     64 CA         29.2200  -14.9000   34.0700 C.3       6 GLY6        0.0000 
     65 CA         27.0300  -14.0600   36.4700 C.3       6 GLY6        0.0000 
     66 CA         26.2200  -13.3500   38.3000 C.3       6 GLY6        0.0000 
     67 CA         27.6100  -13.4700   37.7300 C.3       6 GLY6        0.0000 
     68 DU         26.6000  -22.0400   33.2500 H         7 CUB7        0.0000 
     69 DU         27.1700  -21.4500   34.5000 H         7 CUB7        0.0000 
     70 DU         25.6700  -19.9500   34.4900 H         7 CUB7        0.0000 
     71 DU         26.3600  -20.7400   36.3300 H         7 CUB7        0.0000 
     72 DU         26.2400  -19.3600   35.7400 H         7 CUB7        0.0000 
     73 DU         26.1200  -17.9900   35.1500 H         7 CUB7        0.0000 
     74 DU         26.0000  -16.6200   34.5600 H         7 CUB7        0.0000 
     75 DU         25.0800  -14.5300   35.7900 H         7 CUB7        0.0000 
     76 DU         26.4600  -14.6500   35.2200 H         7 CUB7        0.0000 
@<TRIPOS>BOND
@<TRIPOS>SUBSTRUCTURE
     1 SER1        1 GROUP   
     2 ALA2        4 GROUP   
     3 ASP3       17 GROUP   
     4 LYS4       28 GROUP   
     5 PHE5       40 GROUP   
     6 GLY6       53 GROUP   
     7 CUB7       68 GROUP   
@<TRIPOS>SET

