#    Name: 6ns0_2_KRS
#    Modification time : Fri May 22 19:26:34 2020

@<TRIPOS>MOLECULE
6ns0_2_KRS
   21    23     1     0     0
SMALL
NO_CHARGES


@<TRIPOS>ATOM
      1 O4         26.2550  -13.7050   40.8170           1 KRS704      0.0000 
      2 C8         25.9030  -14.6540   40.1510           1 KRS704      0.0000 
      3 C9         25.0360  -15.7330   40.6230           1 KRS704      0.0000 
      4 C5         24.7730  -16.8600   39.8160           1 KRS704      0.0000 
      5 C4         23.9530  -17.8760   40.2970           1 KRS704      0.0000 
      6 C3         23.3970  -17.7920   41.5650           1 KRS704      0.0000 
      7 O2         22.6210  -18.8140   42.0300           1 KRS704      0.0000 
      8 C2         23.6410  -16.6880   42.3700           1 KRS704      0.0000 
      9 C1         24.4610  -15.6700   41.9090           1 KRS704      0.0000 
     10 O1         24.7360  -14.6290   42.7390           1 KRS704      0.0000 
     11 O3         26.3970  -14.7540   38.9020           1 KRS704      0.0000 
     12 C7         25.7060  -15.5800   37.9110           1 KRS704      0.0000 
     13 C6         25.4470  -16.9570   38.4700           1 KRS704      0.0000 
     14 C10        26.7620  -15.6740   36.8280           1 KRS704      0.0000 
     15 C11        26.5280  -14.6970   35.6920           1 KRS704      0.0000 
     16 O5         25.2230  -15.0000   35.1720           1 KRS704      0.0000 
     17 C12        24.7580  -14.2330   34.0470           1 KRS704      0.0000 
     18 C16        24.5300  -12.8290   34.5450           1 KRS704      0.0000 
     19 C13        25.7400  -14.3440   32.9140           1 KRS704      0.0000 
     20 C14        27.1470  -13.9900   33.3770           1 KRS704      0.0000 
     21 C15        27.5630  -14.8020   34.5960           1 KRS704      0.0000 
@<TRIPOS>BOND
     1    1    2 du   
     2    2    3 du   
     3    2   11 du   
     4    3    4 du   
     5    3    9 du   
     6    4    5 du   
     7    4   13 du   
     8    5    6 du   
     9    6    7 du   
    10    6    8 du   
    11    8    9 du   
    12    9   10 du   
    13   11   12 du   
    14   12   13 du   
    15   12   14 du   
    16   14   15 du   
    17   15   16 du   
    18   15   21 du   
    19   16   17 du   
    20   17   18 du   
    21   17   19 du   
    22   19   20 du   
    23   20   21 du   
@<TRIPOS>SUBSTRUCTURE
     1 KRS704      1 GROUP   
@<TRIPOS>SET

