#    Name: 6d7p_1_DTB
#    Modification time : Fri May 22 19:25:04 2020

@<TRIPOS>MOLECULE
6d7p_1_DTB
   15    15     1     0     0
SMALL
NO_CHARGES


@<TRIPOS>ATOM
      1 CN         40.9750   93.3110  151.7850 C.2       1 DTB703      0.0000 
      2 O          41.5560   93.1360  152.8020 O.2       1 DTB703      0.0000 
      3 N2         39.5300   93.0710  151.5460 N.am      1 DTB703      0.0000 
      4 CR         39.2390   93.4350  150.1690 C.3       1 DTB703      0.0000 
      5 CS         40.5290   93.8630  149.5270 C.3       1 DTB703      0.0000 
      6 N1         41.5650   93.8190  150.5260 N.am      1 DTB703      0.0000 
      7 CT         40.9930   92.8320  148.4760 C.3       1 DTB703      0.0000 
      8 CE         38.5080   92.2910  149.4330 C.3       1 DTB703      0.0000 
      9 CD         37.5070   92.8180  148.4000 C.3       1 DTB703      0.0000 
     10 CG         36.3090   93.4960  149.0540 C.3       1 DTB703      0.0000 
     11 CB         35.4670   94.1880  147.9800 C.3       1 DTB703      0.0000 
     12 CA         35.1240   93.1990  146.8660 C.3       1 DTB703      0.0000 
     13 C          34.0970   93.8170  145.9160 C.2       1 DTB703      0.0000 
     14 OI1        33.6960   93.1670  144.9130 O.co2     1 DTB703      0.0000 
     15 OI2        33.6550   94.9760  146.1310 O.co2     1 DTB703      0.0000 
@<TRIPOS>BOND
     1    1    2 2    
     2    1    3 am   
     3    1    6 am   
     4    3    4 1    
     5    4    5 1    
     6    4    8 1    
     7    5    6 1    
     8    5    7 1    
     9    8    9 1    
    10    9   10 1    
    11   10   11 1    
    12   11   12 1    
    13   12   13 1    
    14   13   14 ar   
    15   13   15 ar   
@<TRIPOS>SUBSTRUCTURE
     1 DTB703      1 GROUP   
@<TRIPOS>SET

