#    Name: 6hrc_3_AGS
#    Modification time : Fri May 22 19:30:55 2020

@<TRIPOS>MOLECULE
6hrc_3_AGS
   31    33     1     0     0
SMALL
NO_CHARGES


@<TRIPOS>ATOM
      1 PG         14.1750  -61.2000   -8.8620 P.3       1 AGS601      0.0000 
      2 S1G        13.4200  -62.1200   -7.1630 S.2       1 AGS601      0.0000 
      3 O2G        15.3430  -62.1120   -9.4920 O.3       1 AGS601      0.0000 
      4 O3G        13.0910  -61.0310   -9.8550 O.3       1 AGS601      0.0000 
      5 PB         14.0640  -58.4100   -8.9930 P.3       1 AGS601      0.0000 
      6 O1B        13.6790  -58.6090  -10.4400 O.co2     1 AGS601      0.0000 
      7 O2B        13.0180  -58.0040   -7.9830 O.co2     1 AGS601      0.0000 
      8 O3B        14.7730  -59.7570   -8.4710 O.3       1 AGS601      0.0000 
      9 PA         15.3930  -56.3240   -7.6900 P.3       1 AGS601      0.0000 
     10 O1A        14.2460  -55.3440   -7.7560 O.co2     1 AGS601      0.0000 
     11 O2A        15.6170  -57.1390   -6.4390 O.co2     1 AGS601      0.0000 
     12 O3A        15.2630  -57.3360   -8.9350 O.3       1 AGS601      0.0000 
     13 O5'        16.7530  -55.5290   -8.0240 O.3       1 AGS601      0.0000 
     14 C5'        16.9840  -55.0050   -9.3300 C.3       1 AGS601      0.0000 
     15 C4'        18.4450  -54.5950   -9.4620 C.3       1 AGS601      0.0000 
     16 O4'        18.7430  -53.5600   -8.5210 O.3       1 AGS601      0.0000 
     17 C3'        19.3740  -55.7640   -9.1780 C.3       1 AGS601      0.0000 
     18 O3'        20.1910  -56.0290  -10.3220 O.3       1 AGS601      0.0000 
     19 C2'        20.2390  -55.3450   -8.0070 C.3       1 AGS601      0.0000 
     20 O2'        21.6170  -55.3390   -8.3920 O.3       1 AGS601      0.0000 
     21 C1'        19.7970  -53.9390   -7.6320 C.3       1 AGS601      0.0000 
     22 N9         19.3020  -53.9260   -6.2330 N.pl3     1 AGS601      0.0000 
     23 C8         18.2800  -54.6590   -5.7530 C.2       1 AGS601      0.0000 
     24 N7         18.0790  -54.4160   -4.4330 N.2       1 AGS601      0.0000 
     25 C5         18.9920  -53.5050   -4.0470 C.ar      1 AGS601      0.0000 
     26 C6         19.3380  -52.8080   -2.7860 C.ar      1 AGS601      0.0000 
     27 N6         18.6490  -53.0440   -1.6430 N.pl3     1 AGS601      0.0000 
     28 N1         20.3640  -51.9290   -2.8140 N.ar      1 AGS601      0.0000 
     29 C2         21.0560  -51.6860   -3.9430 C.ar      1 AGS601      0.0000 
     30 N3         20.7970  -52.2820   -5.1210 N.ar      1 AGS601      0.0000 
     31 C4         19.7950  -53.1860   -5.2370 C.ar      1 AGS601      0.0000 
@<TRIPOS>BOND
     1    1    2 2    
     2    1    3 1    
     3    1    4 1    
     4    1    8 1    
     5    5    6 ar   
     6    5    7 ar   
     7    5    8 1    
     8    5   12 1    
     9    9   10 ar   
    10    9   11 ar   
    11    9   12 1    
    12    9   13 1    
    13   13   14 1    
    14   14   15 1    
    15   15   16 1    
    16   15   17 1    
    17   16   21 1    
    18   17   18 1    
    19   17   19 1    
    20   19   20 1    
    21   19   21 1    
    22   21   22 1    
    23   22   23 1    
    24   22   31 1    
    25   23   24 2    
    26   24   25 1    
    27   25   26 ar   
    28   25   31 ar   
    29   26   27 1    
    30   26   28 ar   
    31   28   29 ar   
    32   29   30 ar   
    33   30   31 ar   
@<TRIPOS>SUBSTRUCTURE
     1 AGS601      1 GROUP   
@<TRIPOS>SET

