#    Name: 6hrc_2_AGS_CAVITY_N1_4
#    Modification time : Fri May 22 19:30:43 2020

@<TRIPOS>MOLECULE
6hrc_2_AGS_CAVITY_N1_4
   70     0     6     0     0
SMALL
NO_CHARGES


@<TRIPOS>ATOM
      1 OG        -16.0400  -44.1800   19.3600 O.3       1 SER1        0.0000 
      2 OG        -14.6900  -44.1500   17.7200 O.3       1 SER1        0.0000 
      3 OG        -14.7200  -44.8300   19.0600 O.3       1 SER1        0.0000 
      4 OG        -16.6100  -41.6800   18.9400 O.3       1 SER1        0.0000 
      5 OG        -15.2900  -42.3300   18.6400 O.3       1 SER1        0.0000 
      6 OG        -13.9700  -42.9800   18.3400 O.3       1 SER1        0.0000 
      7 OG        -14.5400  -40.4800   17.9200 O.3       1 SER1        0.0000 
      8 OG        -13.2200  -41.1300   17.6200 O.3       1 SER1        0.0000 
      9 N         -12.2300  -49.8000   18.2500 N.am      2 ALA2        0.0000 
     10 N         -10.9400  -51.1300   19.2900 N.am      2 ALA2        0.0000 
     11 N         -11.5100  -48.6300   18.8700 N.am      2 ALA2        0.0000 
     12 N         -11.5800  -50.0000   21.5400 N.am      2 ALA2        0.0000 
     13 N         -10.2300  -49.9700   19.9100 N.am      2 ALA2        0.0000 
     14 O          -8.9100  -50.6200   19.6100 O.2       2 ALA2        0.0000 
     15 N         -13.4400  -46.1700   20.0900 N.am      2 ALA2        0.0000 
     16 N         -12.1200  -46.8200   19.7900 N.am      2 ALA2        0.0000 
     17 O         -10.8000  -47.4700   19.4900 O.2       2 ALA2        0.0000 
     18 O          -9.5200  -48.8000   20.5200 O.2       2 ALA2        0.0000 
     19 O         -14.0100  -43.6700   19.6700 O.2       2 ALA2        0.0000 
     20 N         -11.3300  -44.2800   17.7400 N.am      2 ALA2        0.0000 
     21 N         -13.2600  -41.8200   18.9600 N.am      2 ALA2        0.0000 
     22 N         -11.9000  -41.7800   17.3200 N.am      2 ALA2        0.0000 
     23 N         -11.9400  -42.4600   18.6600 N.am      2 ALA2        0.0000 
     24 N         -10.5900  -42.4300   17.0300 N.am      2 ALA2        0.0000 
     25 N          -9.3000  -43.7600   18.0600 N.am      2 ALA2        0.0000 
     26 N          -7.2700  -43.2500   18.3800 N.am      2 ALA2        0.0000 
     27 OD1        -8.8800  -49.9300   18.2700 O.co2     3 ASP3        0.0000 
     28 OD1       -16.6800  -43.0500   21.6100 O.co2     3 ASP3        0.0000 
     29 OD1        -8.7000  -45.5800   17.1400 O.co2     3 ASP3        0.0000 
     30 OD1        -7.9800  -44.4100   17.7600 O.co2     3 ASP3        0.0000 
     31 OD1        -6.6600  -45.0600   17.4600 O.co2     3 ASP3        0.0000 
     32 CZ        -13.3700  -44.8000   17.4200 C.ar      4 PHE5        0.0000 
     33 CZ         -9.4800  -48.1100   19.1900 C.ar      4 PHE5        0.0000 
     34 CZ         -8.2000  -49.4500   20.2200 C.ar      4 PHE5        0.0000 
     35 CZ        -12.6500  -43.6300   18.0400 C.ar      4 PHE5        0.0000 
     36 CZ        -11.3000  -43.5900   16.4100 C.ar      4 PHE5        0.0000 
     37 CZ         -8.7300  -46.2600   18.4700 C.ar      4 PHE5        0.0000 
     38 CZ         -8.7700  -46.9500   19.8100 C.ar      4 PHE5        0.0000 
     39 CZ         -7.4500  -47.6000   19.5100 C.ar      4 PHE5        0.0000 
     40 CZ        -11.8700  -41.0900   15.9900 C.ar      4 PHE5        0.0000 
     41 CZ         -8.0200  -45.1000   19.0900 C.ar      4 PHE5        0.0000 
     42 CA        -12.1900  -49.1100   16.9200 C.3       5 GLY6        0.0000 
     43 CA        -10.8700  -49.7600   16.6200 C.3       5 GLY6        0.0000 
     44 CA        -15.4300  -46.0000   18.4400 C.3       5 GLY6        0.0000 
     45 CA        -14.1200  -46.6500   18.1400 C.3       5 GLY6        0.0000 
     46 CA        -12.8000  -47.3000   17.8400 C.3       5 GLY6        0.0000 
     47 CA        -10.1600  -48.5900   17.2400 C.3       5 GLY6        0.0000 
     48 CA        -17.3600  -43.5300   19.6600 C.3       5 GLY6        0.0000 
     49 CA        -16.0700  -44.8700   20.6900 C.3       5 GLY6        0.0000 
     50 CA        -14.7600  -45.5200   20.3900 C.3       5 GLY6        0.0000 
     51 CA        -12.0500  -45.4400   17.1200 C.3       5 GLY6        0.0000 
     52 CA         -9.4500  -47.4300   17.8600 C.3       5 GLY6        0.0000 
     53 CA         -8.1300  -48.0800   17.5600 C.3       5 GLY6        0.0000 
     54 CA         -8.1600  -48.7600   18.8900 C.3       5 GLY6        0.0000 
     55 CA        -16.6400  -42.3700   20.2700 C.3       5 GLY6        0.0000 
     56 CA        -15.3200  -43.0200   19.9700 C.3       5 GLY6        0.0000 
     57 CA         -9.9800  -44.2400   16.1100 C.3       5 GLY6        0.0000 
     58 CA        -10.0200  -44.9300   17.4400 C.3       5 GLY6        0.0000 
     59 CA         -7.3800  -46.2300   16.8400 C.3       5 GLY6        0.0000 
     60 CA         -7.4100  -46.9100   18.1700 C.3       5 GLY6        0.0000 
     61 CA        -10.5500  -41.7400   15.6900 C.3       5 GLY6        0.0000 
     62 CA         -7.3000  -43.9300   19.7100 C.3       5 GLY6        0.0000 
     63 DU        -10.9100  -50.4500   17.9500 H         6 CUB7        0.0000 
     64 DU        -11.4800  -47.9500   17.5400 H         6 CUB7        0.0000 
     65 DU        -10.2000  -49.2800   18.5700 H         6 CUB7        0.0000 
     66 DU        -13.4000  -45.4800   18.7600 H         6 CUB7        0.0000 
     67 DU        -12.0800  -46.1300   18.4600 H         6 CUB7        0.0000 
     68 DU        -10.7300  -46.0900   16.8200 H         6 CUB7        0.0000 
     69 DU        -10.7600  -46.7800   18.1600 H         6 CUB7        0.0000 
     70 DU        -10.0500  -45.6100   18.7700 H         6 CUB7        0.0000 
@<TRIPOS>BOND
@<TRIPOS>SUBSTRUCTURE
     1 SER1        1 GROUP   
     2 ALA2        9 GROUP   
     3 ASP3       27 GROUP   
     4 PHE5       32 GROUP   
     5 GLY6       42 GROUP   
     6 CUB7       63 GROUP   
@<TRIPOS>SET

