#    Name: 6hrc_4_AGS
#    Modification time : Fri May 22 19:31:08 2020

@<TRIPOS>MOLECULE
6hrc_4_AGS
   31    33     1     0     0
SMALL
NO_CHARGES


@<TRIPOS>ATOM
      1 PG          9.0050  -77.6730    1.9600 P.3       1 AGS601      0.0000 
      2 S1G        10.9490  -76.9740    2.1590 S.2       1 AGS601      0.0000 
      3 O2G         8.0110  -76.4310    1.7130 O.3       1 AGS601      0.0000 
      4 O3G         8.9300  -78.6020    0.8100 O.3       1 AGS601      0.0000 
      5 PB          9.4920  -79.6280    3.8980 P.3       1 AGS601      0.0000 
      6 O1B         8.9440  -80.9460    3.4070 O.co2     1 AGS601      0.0000 
      7 O2B        10.9380  -79.2730    3.6470 O.co2     1 AGS601      0.0000 
      8 O3B         8.5730  -78.4470    3.3040 O.3       1 AGS601      0.0000 
      9 PA         10.4330  -79.6210    6.5310 P.3       1 AGS601      0.0000 
     10 O1A        11.2220  -80.8720    6.2260 O.co2     1 AGS601      0.0000 
     11 O2A        11.1290  -78.2820    6.5710 O.co2     1 AGS601      0.0000 
     12 O3A         9.2160  -79.5250    5.4810 O.3       1 AGS601      0.0000 
     13 O5'         9.6720  -79.8350    7.9340 O.3       1 AGS601      0.0000 
     14 C5'         8.7860  -80.9380    8.1160 C.3       1 AGS601      0.0000 
     15 C4'         7.9990  -80.7490    9.4060 C.3       1 AGS601      0.0000 
     16 O4'         8.8590  -80.9540   10.5300 O.3       1 AGS601      0.0000 
     17 C3'         7.4310  -79.3430    9.5050 C.3       1 AGS601      0.0000 
     18 O3'         6.0050  -79.3950    9.6020 O.3       1 AGS601      0.0000 
     19 C2'         8.0150  -78.7360   10.7650 C.3       1 AGS601      0.0000 
     20 O2'         6.9670  -78.3970   11.6770 O.3       1 AGS601      0.0000 
     21 C1'         8.9130  -79.8010   11.3750 C.3       1 AGS601      0.0000 
     22 N9         10.3070  -79.2980   11.4480 N.pl3     1 AGS601      0.0000 
     23 C8         11.0950  -79.0070   10.3950 C.2       1 AGS601      0.0000 
     24 N7         12.3140  -78.5700   10.8020 N.2       1 AGS601      0.0000 
     25 C5         12.3180  -78.5770   12.1480 C.ar      1 AGS601      0.0000 
     26 C6         13.2870  -78.2340   13.2160 C.ar      1 AGS601      0.0000 
     27 N6         14.5290  -77.7840   12.9160 N.pl3     1 AGS601      0.0000 
     28 N1         12.8890  -78.3860   14.4980 N.ar      1 AGS601      0.0000 
     29 C2         11.6580  -78.8320   14.8090 C.ar      1 AGS601      0.0000 
     30 N3         10.7290  -79.1610   13.8930 N.ar      1 AGS601      0.0000 
     31 C4         10.9930  -79.0580   12.5680 C.ar      1 AGS601      0.0000 
@<TRIPOS>BOND
     1    1    2 2    
     2    1    3 1    
     3    1    4 1    
     4    1    8 1    
     5    5    6 ar   
     6    5    7 ar   
     7    5    8 1    
     8    5   12 1    
     9    9   10 ar   
    10    9   11 ar   
    11    9   12 1    
    12    9   13 1    
    13   13   14 1    
    14   14   15 1    
    15   15   16 1    
    16   15   17 1    
    17   16   21 1    
    18   17   18 1    
    19   17   19 1    
    20   19   20 1    
    21   19   21 1    
    22   21   22 1    
    23   22   23 1    
    24   22   31 1    
    25   23   24 2    
    26   24   25 1    
    27   25   26 ar   
    28   25   31 ar   
    29   26   27 1    
    30   26   28 ar   
    31   28   29 ar   
    32   29   30 ar   
    33   30   31 ar   
@<TRIPOS>SUBSTRUCTURE
     1 AGS601      1 GROUP   
@<TRIPOS>SET

