#    Name: 6hrc_2_AGS
#    Modification time : Fri May 22 19:30:41 2020

@<TRIPOS>MOLECULE
6hrc_2_AGS
   31    33     1     0     0
SMALL
NO_CHARGES


@<TRIPOS>ATOM
      1 PG        -17.6920  -45.7090   24.6080 P.3       1 AGS601      0.0000 
      2 S1G       -18.1820  -44.2830   26.0330 S.2       1 AGS601      0.0000 
      3 O2G       -16.2770  -46.3790   24.9830 O.3       1 AGS601      0.0000 
      4 O3G       -18.7400  -46.7540   24.5750 O.3       1 AGS601      0.0000 
      5 PB        -17.6390  -45.8950   21.8190 P.3       1 AGS601      0.0000 
      6 O1B       -18.6810  -45.3020   20.9010 O.co2     1 AGS601      0.0000 
      7 O2B       -17.7250  -47.3500   22.2160 O.co2     1 AGS601      0.0000 
      8 O3B       -17.5870  -45.0090   23.1620 O.3       1 AGS601      0.0000 
      9 PA        -15.9420  -44.3760   20.1980 P.3       1 AGS601      0.0000 
     10 O1A       -17.0310  -44.3660   19.1520 O.co2     1 AGS601      0.0000 
     11 O2A       -15.7110  -43.1550   21.0560 O.co2     1 AGS601      0.0000 
     12 O3A       -16.1890  -45.6360   21.1690 O.3       1 AGS601      0.0000 
     13 O5'       -14.5540  -44.7550   19.4760 O.3       1 AGS601      0.0000 
     14 C5'       -14.0720  -46.0970   19.4930 C.3       1 AGS601      0.0000 
     15 C4'       -13.0070  -46.2690   18.4170 C.3       1 AGS601      0.0000 
     16 O4'       -13.2140  -45.3120   17.3750 O.3       1 AGS601      0.0000 
     17 C3'       -11.6130  -46.0490   18.9810 C.3       1 AGS601      0.0000 
     18 O3'       -10.8220  -47.2290   18.8060 O.3       1 AGS601      0.0000 
     19 C2'       -11.0130  -44.9010   18.1960 C.3       1 AGS601      0.0000 
     20 O2'        -9.8340  -45.3370   17.5130 O.3       1 AGS601      0.0000 
     21 C1'       -12.0700  -44.4730   17.1900 C.3       1 AGS601      0.0000 
     22 N9        -12.4440  -43.0570   17.4290 N.pl3     1 AGS601      0.0000 
     23 C8        -13.3530  -42.6220   18.3220 C.2       1 AGS601      0.0000 
     24 N7        -13.4610  -41.2690   18.2930 N.2       1 AGS601      0.0000 
     25 C5        -12.6030  -40.8160   17.3610 C.ar      1 AGS601      0.0000 
     26 C6        -12.2140  -39.4910   16.8210 C.ar      1 AGS601      0.0000 
     27 N6        -12.7800  -38.3510   17.2870 N.pl3     1 AGS601      0.0000 
     28 N1        -11.2760  -39.4590   15.8490 N.ar      1 AGS601      0.0000 
     29 C2        -10.7060  -40.5840   15.3780 C.ar      1 AGS601      0.0000 
     30 N3        -11.0110  -41.8170   15.8210 N.ar      1 AGS601      0.0000 
     31 C4        -11.9360  -41.9980   16.7940 C.ar      1 AGS601      0.0000 
@<TRIPOS>BOND
     1    1    2 2    
     2    1    3 1    
     3    1    4 1    
     4    1    8 1    
     5    5    6 ar   
     6    5    7 ar   
     7    5    8 1    
     8    5   12 1    
     9    9   10 ar   
    10    9   11 ar   
    11    9   12 1    
    12    9   13 1    
    13   13   14 1    
    14   14   15 1    
    15   15   16 1    
    16   15   17 1    
    17   16   21 1    
    18   17   18 1    
    19   17   19 1    
    20   19   20 1    
    21   19   21 1    
    22   21   22 1    
    23   22   23 1    
    24   22   31 1    
    25   23   24 2    
    26   24   25 1    
    27   25   26 ar   
    28   25   31 ar   
    29   26   27 1    
    30   26   28 ar   
    31   28   29 ar   
    32   29   30 ar   
    33   30   31 ar   
@<TRIPOS>SUBSTRUCTURE
     1 AGS601      1 GROUP   
@<TRIPOS>SET

