#    Name: 6hrc_1_AGS
#    Modification time : Fri May 22 19:30:28 2020

@<TRIPOS>MOLECULE
6hrc_1_AGS
   31    33     1     0     0
SMALL
NO_CHARGES


@<TRIPOS>ATOM
      1 PG        -22.9120  -34.5750   41.3490 P.3       1 AGS601      0.0000 
      2 S1G       -20.9380  -34.8940   40.7950 S.2       1 AGS601      0.0000 
      3 O2G       -23.8560  -34.6600   40.0470 O.3       1 AGS601      0.0000 
      4 O3G       -23.3240  -35.6090   42.3250 O.3       1 AGS601      0.0000 
      5 PB        -22.2400  -32.7540   43.3600 P.3       1 AGS601      0.0000 
      6 O1B       -20.7760  -33.0300   43.1150 O.co2     1 AGS601      0.0000 
      7 O2B       -22.9430  -33.4020   44.5290 O.co2     1 AGS601      0.0000 
      8 O3B       -23.0530  -33.1180   42.0190 O.3       1 AGS601      0.0000 
      9 PA        -21.2080  -30.1610   43.2030 P.3       1 AGS601      0.0000 
     10 O1A       -20.8690  -30.2140   41.7330 O.co2     1 AGS601      0.0000 
     11 O2A       -20.1400  -30.4400   44.2330 O.co2     1 AGS601      0.0000 
     12 O3A       -22.4410  -31.1600   43.4720 O.3       1 AGS601      0.0000 
     13 O5'       -21.8500  -28.7180   43.5200 O.3       1 AGS601      0.0000 
     14 C5'       -22.6810  -28.5310   44.6630 C.3       1 AGS601      0.0000 
     15 C4'       -23.3520  -27.1660   44.5860 C.3       1 AGS601      0.0000 
     16 O4'       -22.3630  -26.1370   44.6840 O.3       1 AGS601      0.0000 
     17 C3'       -24.0830  -26.9840   43.2650 C.3       1 AGS601      0.0000 
     18 O3'       -25.4730  -26.7440   43.5040 O.3       1 AGS601      0.0000 
     19 C2'       -23.4550  -25.7800   42.5940 C.3       1 AGS601      0.0000 
     20 O2'       -24.4390  -24.7600   42.3970 O.3       1 AGS601      0.0000 
     21 C1'       -22.3710  -25.2820   43.5370 C.3       1 AGS601      0.0000 
     22 N9        -21.0520  -25.3430   42.8590 N.pl3     1 AGS601      0.0000 
     23 C8        -20.3910  -26.4660   42.5230 C.2       1 AGS601      0.0000 
     24 N7        -19.2110  -26.1770   41.9150 N.2       1 AGS601      0.0000 
     25 C5        -19.1050  -24.8370   41.8560 C.ar      1 AGS601      0.0000 
     26 C6        -18.1110  -23.8660   41.3410 C.ar      1 AGS601      0.0000 
     27 N6        -16.9640  -24.2830   40.7530 N.pl3     1 AGS601      0.0000 
     28 N1        -18.3870  -22.5500   41.4780 N.ar      1 AGS601      0.0000 
     29 C2        -19.5230  -22.1230   42.0610 C.ar      1 AGS601      0.0000 
     30 N3        -20.4680  -22.9470   42.5500 N.ar      1 AGS601      0.0000 
     31 C4        -20.3210  -24.2920   42.4790 C.ar      1 AGS601      0.0000 
@<TRIPOS>BOND
     1    1    2 2    
     2    1    3 1    
     3    1    4 1    
     4    1    8 1    
     5    5    6 ar   
     6    5    7 ar   
     7    5    8 1    
     8    5   12 1    
     9    9   10 ar   
    10    9   11 ar   
    11    9   12 1    
    12    9   13 1    
    13   13   14 1    
    14   14   15 1    
    15   15   16 1    
    16   15   17 1    
    17   16   21 1    
    18   17   18 1    
    19   17   19 1    
    20   19   20 1    
    21   19   21 1    
    22   21   22 1    
    23   22   23 1    
    24   22   31 1    
    25   23   24 2    
    26   24   25 1    
    27   25   26 ar   
    28   25   31 ar   
    29   26   27 1    
    30   26   28 ar   
    31   28   29 ar   
    32   29   30 ar   
    33   30   31 ar   
@<TRIPOS>SUBSTRUCTURE
     1 AGS601      1 GROUP   
@<TRIPOS>SET

