#    Name: 6qe4_4_I3C
#    Modification time : Fri May 22 19:25:39 2020

@<TRIPOS>MOLECULE
6qe4_4_I3C
   16    16     1     0     0
SMALL
NO_CHARGES


@<TRIPOS>ATOM
      1 I3         44.0010   41.8260   34.7860 I         1 I3C404      0.0000 
      2 I2         49.5760   39.7120   34.0710 I         1 I3C404      0.0000 
      3 I1         45.1340   35.8580   33.7030 I         1 I3C404      0.0000 
      4 O8         42.9830   37.7980   33.2580 O.co2     1 I3C404      0.0000 
      5 O9         42.8130   39.0880   34.9420 O.co2     1 I3C404      0.0000 
      6 C10        48.1080   36.9380   33.8530 C.2       1 I3C404      0.0000 
      7 N13        47.2040   41.8090   34.4110 N.pl3     1 I3C404      0.0000 
      8 C1         44.8860   38.9110   34.0760 C.ar      1 I3C404      0.0000 
      9 C6         45.3090   40.2750   34.3040 C.ar      1 I3C404      0.0000 
     10 C5         46.7180   40.5290   34.2860 C.ar      1 I3C404      0.0000 
     11 C4         47.6130   39.4070   34.1040 C.ar      1 I3C404      0.0000 
     12 C3         47.1610   38.0830   33.9430 C.ar      1 I3C404      0.0000 
     13 C2         45.7900   37.8040   33.9120 C.ar      1 I3C404      0.0000 
     14 C7         43.5040   38.5470   34.0030 C.2       1 I3C404      0.0000 
     15 O11        48.6260   36.5810   35.0450 O.co2     1 I3C404      0.0000 
     16 O12        48.4240   36.3330   32.8460 O.co2     1 I3C404      0.0000 
@<TRIPOS>BOND
     1    1    9 1    
     2    2   11 1    
     3    3   13 1    
     4    4   14 ar   
     5    5   14 ar   
     6    6   12 1    
     7    6   15 ar   
     8    6   16 ar   
     9    7   10 1    
    10    8    9 ar   
    11    8   13 ar   
    12    8   14 1    
    13    9   10 ar   
    14   10   11 ar   
    15   11   12 ar   
    16   12   13 ar   
@<TRIPOS>SUBSTRUCTURE
     1 I3C404      1 GROUP   
@<TRIPOS>SET

