#    Name: 6qe4_4_I3C_CAVITY_N1_ALL
#    Modification time : Fri May 22 19:25:40 2020

@<TRIPOS>MOLECULE
6qe4_4_I3C_CAVITY_N1_ALL
   96     0     6     0     0
SMALL
NO_CHARGES


@<TRIPOS>ATOM
      1 OG         49.3200   30.9400   30.7900 O.3       1 SER1        0.0000 
      2 N          49.6800   32.7300   29.7000 N.am      2 ALA2        0.0000 
      3 O          48.1600   29.2500   33.8300 O.2       2 ALA2        0.0000 
      4 O          49.3400   29.8500   33.1500 O.2       2 ALA2        0.0000 
      5 N          50.5300   30.4600   32.4600 N.am      2 ALA2        0.0000 
      6 O          47.6800   32.2100   32.3400 O.2       2 ALA2        0.0000 
      7 O          46.8400   33.3900   31.9400 O.2       2 ALA2        0.0000 
      8 O          47.3500   29.3400   35.7900 O.2       2 ALA2        0.0000 
      9 O          48.5300   29.9500   35.1000 O.2       2 ALA2        0.0000 
     10 N          47.7000   31.1300   34.7000 N.am      2 ALA2        0.0000 
     11 N          48.8900   31.7300   34.0200 N.am      2 ALA2        0.0000 
     12 N          50.0800   32.3400   33.3300 N.am      2 ALA2        0.0000 
     13 N          48.0600   32.9100   33.6100 N.am      2 ALA2        0.0000 
     14 O          44.8500   32.8800   34.5900 O.2       2 ALA2        0.0000 
     15 O          46.0300   33.4900   33.9000 O.2       2 ALA2        0.0000 
     16 O          47.2200   34.0900   33.2100 O.2       2 ALA2        0.0000 
     17 N          47.7200   30.0400   37.0600 N.am      2 ALA2        0.0000 
     18 N          48.0800   31.8300   35.9700 N.am      2 ALA2        0.0000 
     19 N          48.4300   33.6100   34.8900 N.am      2 ALA2        0.0000 
     20 N          45.2200   33.5800   35.8600 N.am      2 ALA2        0.0000 
     21 N          46.4100   34.1900   35.1700 N.am      2 ALA2        0.0000 
     22 N          44.5400   28.9200   40.3900 N.am      2 ALA2        0.0000 
     23 N          45.7300   29.5300   39.7100 N.am      2 ALA2        0.0000 
     24 N          46.9100   30.1300   39.0200 N.am      2 ALA2        0.0000 
     25 N          48.1000   30.7400   38.3300 N.am      2 ALA2        0.0000 
     26 N          42.5200   29.5000   40.6800 N.am      2 ALA2        0.0000 
     27 N          48.4600   32.5300   37.2500 N.am      2 ALA2        0.0000 
     28 N          45.2500   32.5000   38.2200 N.am      2 ALA2        0.0000 
     29 N          46.4400   33.1000   37.5300 N.am      2 ALA2        0.0000 
     30 O          44.9200   29.6200   41.6600 O.2       2 ALA2        0.0000 
     31 O          46.1000   30.2300   40.9800 O.2       2 ALA2        0.0000 
     32 N          48.4800   31.4400   39.6100 N.am      2 ALA2        0.0000 
     33 N          46.8100   33.8000   38.8000 N.am      2 ALA2        0.0000 
     34 O          44.1100   29.7200   43.6200 O.2       2 ALA2        0.0000 
     35 O          45.2900   30.3200   42.9400 O.2       2 ALA2        0.0000 
     36 O          46.4800   30.9300   42.2500 O.2       2 ALA2        0.0000 
     37 O          42.0800   30.2900   43.9100 O.2       2 ALA2        0.0000 
     38 O          43.2700   30.9000   43.2200 O.2       2 ALA2        0.0000 
     39 O          41.2500   31.4700   43.5100 O.2       2 ALA2        0.0000 
     40 O          42.4400   32.0800   42.8200 O.2       2 ALA2        0.0000 
     41 O          44.4800   30.4200   44.8900 O.2       2 ALA2        0.0000 
     42 O          45.6700   31.0200   44.2100 O.2       2 ALA2        0.0000 
     43 O          42.4600   30.9900   45.1800 O.2       2 ALA2        0.0000 
     44 O          43.6500   31.6000   44.4900 O.2       2 ALA2        0.0000 
     45 O          44.0300   32.3000   45.7700 O.2       2 ALA2        0.0000 
     46 OD1        48.8700   32.8200   31.6600 O.co2     3 ASP3        0.0000 
     47 OD1        45.2700   31.4100   40.5800 O.co2     3 ASP3        0.0000 
     48 OD1        46.4600   32.0100   39.8900 O.co2     3 ASP3        0.0000 
     49 OD1        47.6500   32.6200   39.2000 O.co2     3 ASP3        0.0000 
     50 OD1        44.4400   32.5900   40.1800 O.co2     3 ASP3        0.0000 
     51 OD1        45.6300   33.1900   39.4900 O.co2     3 ASP3        0.0000 
     52 OD1        44.4600   31.5000   42.5400 O.co2     3 ASP3        0.0000 
     53 OD1        48.0300   33.3200   40.4800 O.co2     3 ASP3        0.0000 
     54 OD1        44.8400   32.2000   43.8100 O.co2     3 ASP3        0.0000 
     55 CZ         48.1300   30.3300   31.4700 C.ar      4 PHE5        0.0000 
     56 CZ         47.3000   31.5100   31.0700 C.ar      4 PHE5        0.0000 
     57 CZ         48.4900   32.1200   30.3800 C.ar      4 PHE5        0.0000 
     58 CZ         47.3200   30.4300   33.4300 C.ar      4 PHE5        0.0000 
     59 CZ         48.5100   31.0300   32.7400 C.ar      4 PHE5        0.0000 
     60 CZ         46.4900   31.6100   33.0300 C.ar      4 PHE5        0.0000 
     61 CZ         48.0300   34.0000   31.2500 C.ar      4 PHE5        0.0000 
     62 CZ         41.7100   29.5900   42.6400 C.ar      4 PHE5        0.0000 
     63 CZ         42.8900   30.2000   41.9500 C.ar      4 PHE5        0.0000 
     64 CZ         42.0600   31.3800   41.5500 C.ar      4 PHE5        0.0000 
     65 CA         48.9700   29.1500   31.8700 C.3       5 GLY6        0.0000 
     66 CA         50.1500   29.7600   31.1900 C.3       5 GLY6        0.0000 
     67 CA         46.5100   30.5200   35.3900 C.3       5 GLY6        0.0000 
     68 CA         45.6800   31.7000   34.9900 C.3       5 GLY6        0.0000 
     69 CA         46.5400   29.4300   37.7500 C.3       5 GLY6        0.0000 
     70 CA         46.8900   31.2200   36.6600 C.3       5 GLY6        0.0000 
     71 CA         46.0600   32.4000   36.2600 C.3       5 GLY6        0.0000 
     72 CA         43.3500   28.3200   41.0800 C.3       5 GLY6        0.0000 
     73 CA         43.7000   30.1000   39.9900 C.3       5 GLY6        0.0000 
     74 CA         44.8900   30.7100   39.3000 C.3       5 GLY6        0.0000 
     75 CA         46.0800   31.3100   38.6200 C.3       5 GLY6        0.0000 
     76 CA         42.8700   31.2800   39.5900 C.3       5 GLY6        0.0000 
     77 CA         44.0600   31.8900   38.9000 C.3       5 GLY6        0.0000 
     78 CA         46.7900   34.8900   36.4400 C.3       5 GLY6        0.0000 
     79 CA         42.5400   28.4100   43.0400 C.3       5 GLY6        0.0000 
     80 CA         43.7300   29.0200   42.3500 C.3       5 GLY6        0.0000 
     81 CA         43.2500   31.9800   40.8600 C.3       5 GLY6        0.0000 
     82 CA         42.9200   29.1100   44.3100 C.3       5 GLY6        0.0000 
     83 CA         44.1300   28.6300   45.9800 C.3       5 GLY6        0.0000 
     84 CA         45.3200   29.2400   45.3000 C.3       5 GLY6        0.0000 
     85 CA         45.7000   29.9300   46.5700 C.3       5 GLY6        0.0000 
     86 CA         44.8600   31.1200   46.1700 C.3       5 GLY6        0.0000 
     87 CA         46.0500   31.7200   45.4800 C.3       5 GLY6        0.0000 
     88 DU         49.7000   31.6400   32.0600 H         6 CUB7        0.0000 
     89 DU         46.8700   32.3100   34.3000 H         6 CUB7        0.0000 
     90 DU         49.2400   33.5200   32.9300 H         6 CUB7        0.0000 
     91 DU         47.2500   33.0100   35.5700 H         6 CUB7        0.0000 
     92 DU         47.6000   34.7900   34.4800 H         6 CUB7        0.0000 
     93 DU         47.2700   31.9200   37.9300 H         6 CUB7        0.0000 
     94 DU         47.6200   33.7100   36.8400 H         6 CUB7        0.0000 
     95 DU         44.0800   30.8000   41.2600 H         6 CUB7        0.0000 
     96 DU         43.3000   29.8100   45.5800 H         6 CUB7        0.0000 
@<TRIPOS>BOND
@<TRIPOS>SUBSTRUCTURE
     1 SER1        1 GROUP   
     2 ALA2        2 GROUP   
     3 ASP3       46 GROUP   
     4 PHE5       55 GROUP   
     5 GLY6       65 GROUP   
     6 CUB7       88 GROUP   
@<TRIPOS>SET

