#    Name: 6qe4_4_I3C_CAVITY_N1_4
#    Modification time : Fri May 22 19:25:40 2020

@<TRIPOS>MOLECULE
6qe4_4_I3C_CAVITY_N1_4
   16     0     5     0     0
SMALL
NO_CHARGES


@<TRIPOS>ATOM
      1 O          46.8400   33.3900   31.9400 O.2       1 ALA2        0.0000 
      2 N          48.0600   32.9100   33.6100 N.am      1 ALA2        0.0000 
      3 O          44.8500   32.8800   34.5900 O.2       1 ALA2        0.0000 
      4 O          46.0300   33.4900   33.9000 O.2       1 ALA2        0.0000 
      5 O          47.2200   34.0900   33.2100 O.2       1 ALA2        0.0000 
      6 N          48.4300   33.6100   34.8900 N.am      1 ALA2        0.0000 
      7 N          45.2200   33.5800   35.8600 N.am      1 ALA2        0.0000 
      8 N          46.4100   34.1900   35.1700 N.am      1 ALA2        0.0000 
      9 OD1        48.8700   32.8200   31.6600 O.co2     2 ASP3        0.0000 
     10 CZ         48.0300   34.0000   31.2500 C.ar      3 PHE5        0.0000 
     11 CA         46.7900   34.8900   36.4400 C.3       4 GLY6        0.0000 
     12 DU         46.8700   32.3100   34.3000 H         5 CUB7        0.0000 
     13 DU         49.2400   33.5200   32.9300 H         5 CUB7        0.0000 
     14 DU         47.2500   33.0100   35.5700 H         5 CUB7        0.0000 
     15 DU         47.6000   34.7900   34.4800 H         5 CUB7        0.0000 
     16 DU         47.6200   33.7100   36.8400 H         5 CUB7        0.0000 
@<TRIPOS>BOND
@<TRIPOS>SUBSTRUCTURE
     1 ALA2        1 GROUP   
     2 ASP3        9 GROUP   
     3 PHE5       10 GROUP   
     4 GLY6       11 GROUP   
     5 CUB7       12 GROUP   
@<TRIPOS>SET

