#    Name: 6qe4_4_I3C_CAVITY_N1_6
#    Modification time : Fri May 22 19:25:40 2020

@<TRIPOS>MOLECULE
6qe4_4_I3C_CAVITY_N1_6
   39     0     6     0     0
SMALL
NO_CHARGES


@<TRIPOS>ATOM
      1 OG         49.3200   30.9400   30.7900 O.3       1 SER1        0.0000 
      2 N          49.6800   32.7300   29.7000 N.am      2 ALA2        0.0000 
      3 O          47.6800   32.2100   32.3400 O.2       2 ALA2        0.0000 
      4 O          46.8400   33.3900   31.9400 O.2       2 ALA2        0.0000 
      5 N          47.7000   31.1300   34.7000 N.am      2 ALA2        0.0000 
      6 N          48.8900   31.7300   34.0200 N.am      2 ALA2        0.0000 
      7 N          50.0800   32.3400   33.3300 N.am      2 ALA2        0.0000 
      8 N          48.0600   32.9100   33.6100 N.am      2 ALA2        0.0000 
      9 O          44.8500   32.8800   34.5900 O.2       2 ALA2        0.0000 
     10 O          46.0300   33.4900   33.9000 O.2       2 ALA2        0.0000 
     11 O          47.2200   34.0900   33.2100 O.2       2 ALA2        0.0000 
     12 N          48.0800   31.8300   35.9700 N.am      2 ALA2        0.0000 
     13 N          48.4300   33.6100   34.8900 N.am      2 ALA2        0.0000 
     14 N          45.2200   33.5800   35.8600 N.am      2 ALA2        0.0000 
     15 N          46.4100   34.1900   35.1700 N.am      2 ALA2        0.0000 
     16 N          48.4600   32.5300   37.2500 N.am      2 ALA2        0.0000 
     17 N          45.2500   32.5000   38.2200 N.am      2 ALA2        0.0000 
     18 N          46.4400   33.1000   37.5300 N.am      2 ALA2        0.0000 
     19 N          46.8100   33.8000   38.8000 N.am      2 ALA2        0.0000 
     20 OD1        48.8700   32.8200   31.6600 O.co2     3 ASP3        0.0000 
     21 OD1        47.6500   32.6200   39.2000 O.co2     3 ASP3        0.0000 
     22 CZ         47.3000   31.5100   31.0700 C.ar      4 PHE5        0.0000 
     23 CZ         48.4900   32.1200   30.3800 C.ar      4 PHE5        0.0000 
     24 CZ         47.3200   30.4300   33.4300 C.ar      4 PHE5        0.0000 
     25 CZ         48.5100   31.0300   32.7400 C.ar      4 PHE5        0.0000 
     26 CZ         46.4900   31.6100   33.0300 C.ar      4 PHE5        0.0000 
     27 CZ         48.0300   34.0000   31.2500 C.ar      4 PHE5        0.0000 
     28 CA         46.5100   30.5200   35.3900 C.3       5 GLY6        0.0000 
     29 CA         45.6800   31.7000   34.9900 C.3       5 GLY6        0.0000 
     30 CA         46.8900   31.2200   36.6600 C.3       5 GLY6        0.0000 
     31 CA         46.0600   32.4000   36.2600 C.3       5 GLY6        0.0000 
     32 CA         46.7900   34.8900   36.4400 C.3       5 GLY6        0.0000 
     33 DU         49.7000   31.6400   32.0600 H         6 CUB7        0.0000 
     34 DU         46.8700   32.3100   34.3000 H         6 CUB7        0.0000 
     35 DU         49.2400   33.5200   32.9300 H         6 CUB7        0.0000 
     36 DU         47.2500   33.0100   35.5700 H         6 CUB7        0.0000 
     37 DU         47.6000   34.7900   34.4800 H         6 CUB7        0.0000 
     38 DU         47.2700   31.9200   37.9300 H         6 CUB7        0.0000 
     39 DU         47.6200   33.7100   36.8400 H         6 CUB7        0.0000 
@<TRIPOS>BOND
@<TRIPOS>SUBSTRUCTURE
     1 SER1        1 GROUP   
     2 ALA2        2 GROUP   
     3 ASP3       20 GROUP   
     4 PHE5       22 GROUP   
     5 GLY6       28 GROUP   
     6 CUB7       33 GROUP   
@<TRIPOS>SET

