#    Name: 6fbd_1_XG4
#    Modification time : Fri May 22 19:29:14 2020

@<TRIPOS>MOLECULE
6fbd_1_XG4
   44    46     1     0     0
SMALL
NO_CHARGES


@<TRIPOS>ATOM
      1 N1         18.7500  -19.5790   -3.4980 N.am      1 XG4903      0.0000 
      2 C2         18.3370  -20.6700   -4.2130 C.2       1 XG4903      0.0000 
      3 N2         17.7660  -21.6640   -3.5300 N.pl3     1 XG4903      0.0000 
      4 N3         18.4850  -20.7810   -5.5320 N.2       1 XG4903      0.0000 
      5 C4         19.0830  -19.7090   -6.0820 C.2       1 XG4903      0.0000 
      6 C5         19.5420  -18.5720   -5.4490 C.2       1 XG4903      0.0000 
      7 C6         19.3710  -18.4660   -4.0310 C.2       1 XG4903      0.0000 
      8 O6         19.6950  -17.5240   -3.3070 O.2       1 XG4903      0.0000 
      9 N7         20.0990  -17.6960   -6.3670 N.2       1 XG4903      0.0000 
     10 C8         19.9620  -18.3080   -7.5230 C.2       1 XG4903      0.0000 
     11 N9         19.3450  -19.5280   -7.4200 N.pl3     1 XG4903      0.0000 
     12 PA         20.0220  -16.2380  -11.5540 P.3       1 XG4903      0.0000 
     13 PB         17.1300  -16.0800  -12.1340 P.3       1 XG4903      0.0000 
     14 PG         17.0730  -13.6250  -13.6880 P.3       1 XG4903      0.0000 
     15 C1'        18.9560  -20.4410   -8.5160 C.3       1 XG4903      0.0000 
     16 O1A        20.4660  -16.1860  -12.9400 O.co2     1 XG4903      0.0000 
     17 O1B        17.3540  -17.0650  -13.1800 O.co2     1 XG4903      0.0000 
     18 O1G        15.9230  -13.2510  -14.6220 O.co2     1 XG4903      0.0000 
     19 C2'        17.5100  -20.2660   -8.9630 C.3       1 XG4903      0.0000 
     20 O2A        20.9900  -15.3300  -10.7010 O.co2     1 XG4903      0.0000 
     21 O2B        16.1220  -16.6790  -11.0840 O.co2     1 XG4903      0.0000 
     22 O2G        17.5880  -12.4610  -12.8950 O.co2     1 XG4903      0.0000 
     23 C3'        17.6340  -19.3510  -10.1740 C.3       1 XG4903      0.0000 
     24 O3'        16.5540  -19.5590  -11.0860 O.3       1 XG4903      0.0000 
     25 N3A        18.5060  -15.6580  -11.3670 N.3       1 XG4903      0.0000 
     26 O3B        16.4860  -14.7400  -12.7110 O.3       1 XG4903      0.0000 
     27 O3G        18.1740  -14.3220  -14.5050 O.co2     1 XG4903      0.0000 
     28 C4'        18.9470  -19.8230  -10.7800 C.3       1 XG4903      0.0000 
     29 O4'        19.7770  -20.1530   -9.6460 O.3       1 XG4903      0.0000 
     30 C5'        19.6540  -18.8300  -11.6710 C.3       1 XG4903      0.0000 
     31 O5'        20.0310  -17.6650  -10.9050 O.3       1 XG4903      0.0000 
     32 HN1        18.6030  -19.5540   -2.4940 H         1 XG4903      0.0000 
     33 HN2        17.6230  -21.6570   -2.5250 H         1 XG4903      0.0000 
     34 HN2A       17.4450  -22.4920   -4.0200 H         1 XG4903      0.0000 
     35 H8         20.3030  -17.8890   -8.4680 H         1 XG4903      0.0000 
     36 H1'        19.2020  -21.4540   -8.2020 H         1 XG4903      0.0000 
     37 H2'        16.9120  -19.8270   -8.1660 H         1 XG4903      0.0000 
     38 H2'A       17.0100  -21.2070   -9.1860 H         1 XG4903      0.0000 
     39 H3'        17.6880  -18.3000   -9.8950 H         1 XG4903      0.0000 
     40 HO3'       16.1730  -18.6600  -11.2680 H         1 XG4903      0.0000 
     41 HN3A       18.3970  -14.9260  -10.6730 H         1 XG4903      0.0000 
     42 H4'        18.8160  -20.7630  -11.3150 H         1 XG4903      0.0000 
     43 H5'        19.0310  -18.5810  -12.5290 H         1 XG4903      0.0000 
     44 H5'A       20.5970  -19.2420  -12.0290 H         1 XG4903      0.0000 
@<TRIPOS>BOND
     1    1    2 1    
     2    1    7 am   
     3    1   32 1    
     4    2    3 1    
     5    2    4 2    
     6    3   33 1    
     7    3   34 1    
     8    4    5 1    
     9    5    6 2    
    10    5   11 1    
    11    6    7 1    
    12    6    9 1    
    13    7    8 2    
    14    9   10 2    
    15   10   11 1    
    16   10   35 1    
    17   11   15 1    
    18   12   16 ar   
    19   12   20 ar   
    20   12   25 1    
    21   12   31 1    
    22   13   17 ar   
    23   13   21 ar   
    24   13   25 1    
    25   13   26 1    
    26   14   18 ar   
    27   14   22 ar   
    28   14   26 1    
    29   14   27 ar   
    30   15   19 1    
    31   15   29 1    
    32   15   36 1    
    33   19   23 1    
    34   19   37 1    
    35   19   38 1    
    36   23   24 1    
    37   23   28 1    
    38   23   39 1    
    39   24   40 1    
    40   25   41 1    
    41   28   29 1    
    42   28   30 1    
    43   28   42 1    
    44   30   31 1    
    45   30   43 1    
    46   30   44 1    
@<TRIPOS>SUBSTRUCTURE
     1 XG4903      1 GROUP   
@<TRIPOS>SET

