#    Name: 6fbd_1_XG4_CAVITY_N1_ALL
#    Modification time : Fri May 22 19:29:16 2020

@<TRIPOS>MOLECULE
6fbd_1_XG4_CAVITY_N1_ALL
   70     0     5     0     0
SMALL
NO_CHARGES


@<TRIPOS>ATOM
      1 N          21.1100  -10.0400  -16.2800 N.am      1 ALA2        0.0000 
      2 N          21.9500   -9.1500  -15.4000 N.am      1 ALA2        0.0000 
      3 N          20.8600   -8.1200  -15.4100 N.am      1 ALA2        0.0000 
      4 N          22.7800   -8.2700  -14.5200 N.am      1 ALA2        0.0000 
      5 N          21.6900   -7.2400  -14.5300 N.am      1 ALA2        0.0000 
      6 N          23.6100   -7.3800  -13.6400 N.am      1 ALA2        0.0000 
      7 O          24.4400   -6.4900  -12.7600 O.2       1 ALA2        0.0000 
      8 O          24.6600   -6.2400  -10.6700 O.2       1 ALA2        0.0000 
      9 O          24.1900   -4.5700  -11.9000 O.2       1 ALA2        0.0000 
     10 OD1        19.5400  -13.8500  -13.4900 O.co2     2 ASP3        0.0000 
     11 OD1        18.4500  -12.8200  -13.5000 O.co2     2 ASP3        0.0000 
     12 OD1        19.0600  -12.1900  -14.7200 O.co2     2 ASP3        0.0000 
     13 OD1        20.9800  -12.3400  -13.8300 O.co2     2 ASP3        0.0000 
     14 OD1        19.2800  -11.9400  -12.6300 O.co2     2 ASP3        0.0000 
     15 OD1        19.8900  -11.3000  -13.8400 O.co2     2 ASP3        0.0000 
     16 OD1        18.8100  -10.2700  -13.8500 O.co2     2 ASP3        0.0000 
     17 OD1        19.4200   -9.6400  -15.0700 O.co2     2 ASP3        0.0000 
     18 OD1        21.2000  -12.0800  -11.7400 O.co2     2 ASP3        0.0000 
     19 OD1        21.8100  -11.4500  -12.9500 O.co2     2 ASP3        0.0000 
     20 OD1        22.4200  -10.8200  -14.1700 O.co2     2 ASP3        0.0000 
     21 OD1        20.1200  -11.0500  -11.7500 O.co2     2 ASP3        0.0000 
     22 OD1        19.0300  -10.0200  -11.7600 O.co2     2 ASP3        0.0000 
     23 OD1        19.6400   -9.3900  -12.9800 O.co2     2 ASP3        0.0000 
     24 OD1        18.5500   -8.3500  -12.9900 O.co2     2 ASP3        0.0000 
     25 OD1        22.6500  -10.5600  -12.0800 O.co2     2 ASP3        0.0000 
     26 OD1        23.2600   -9.9300  -13.2900 O.co2     2 ASP3        0.0000 
     27 OD1        20.9500  -10.1600  -10.8700 O.co2     2 ASP3        0.0000 
     28 OD1        21.5600   -9.5300  -12.0900 O.co2     2 ASP3        0.0000 
     29 OD1        23.4800   -9.6700  -11.2000 O.co2     2 ASP3        0.0000 
     30 OD1        22.3900   -8.6400  -11.2100 O.co2     2 ASP3        0.0000 
     31 OD1        24.3100   -8.7900  -10.3200 O.co2     2 ASP3        0.0000 
     32 NZ         20.1500  -13.2200  -14.7100 N.4       3 LYS4        0.0000 
     33 CA         20.7600  -12.5900  -15.9300 C.3       4 GLY6        0.0000 
     34 CA         20.2800  -10.9300  -17.1500 C.3       4 GLY6        0.0000 
     35 CA         21.5900  -11.7000  -15.0500 C.3       4 GLY6        0.0000 
     36 CA         22.2000  -11.0700  -16.2600 C.3       4 GLY6        0.0000 
     37 CA         23.0300  -10.1900  -15.3900 C.3       4 GLY6        0.0000 
     38 CA         17.4600   -7.3200  -13.0000 C.3       4 GLY6        0.0000 
     39 CA         19.8600   -9.1300  -10.8800 C.3       4 GLY6        0.0000 
     40 CA         18.7700   -8.1000  -10.8900 C.3       4 GLY6        0.0000 
     41 CA         19.3800   -7.4700  -12.1100 C.3       4 GLY6        0.0000 
     42 CA         19.9900   -6.8400  -13.3300 C.3       4 GLY6        0.0000 
     43 CA         18.2900   -6.4300  -12.1200 C.3       4 GLY6        0.0000 
     44 CA         25.1800  -10.0800  -12.4000 C.3       4 GLY6        0.0000 
     45 CA         24.0900   -9.0400  -12.4100 C.3       4 GLY6        0.0000 
     46 CA         21.3000   -7.6100  -11.2200 C.3       4 GLY6        0.0000 
     47 CA         21.9100   -6.9800  -12.4400 C.3       4 GLY6        0.0000 
     48 CA         22.5200   -6.3500  -13.6500 C.3       4 GLY6        0.0000 
     49 CA         24.9200   -8.1600  -11.5400 C.3       4 GLY6        0.0000 
     50 CA         25.5300   -7.5300  -12.7500 C.3       4 GLY6        0.0000 
     51 CA         23.2200   -7.7600  -10.3300 C.3       4 GLY6        0.0000 
     52 CA         22.1300   -6.7200  -10.3400 C.3       4 GLY6        0.0000 
     53 CA         22.7400   -6.0900  -11.5600 C.3       4 GLY6        0.0000 
     54 CA         23.3500   -5.4600  -12.7700 C.3       4 GLY6        0.0000 
     55 CA         25.7500   -7.2700  -10.6600 C.3       4 GLY6        0.0000 
     56 CA         24.0500   -6.8700   -9.4500 C.3       4 GLY6        0.0000 
     57 CA         22.9700   -5.8400   -9.4600 C.3       4 GLY6        0.0000 
     58 CA         23.5800   -5.2100  -10.6800 C.3       4 GLY6        0.0000 
     59 DU         20.3700  -12.9700  -12.6200 H         5 CUB7        0.0000 
     60 DU         20.5000  -10.6700  -15.0600 H         5 CUB7        0.0000 
     61 DU         20.0300   -9.0100  -16.2900 H         5 CUB7        0.0000 
     62 DU         20.7300  -10.4200  -12.9700 H         5 CUB7        0.0000 
     63 DU         21.3400   -9.7900  -14.1800 H         5 CUB7        0.0000 
     64 DU         20.2500   -8.7500  -14.1900 H         5 CUB7        0.0000 
     65 DU         19.1600   -7.7200  -14.2000 H         5 CUB7        0.0000 
     66 DU         22.1700   -8.9000  -13.3000 H         5 CUB7        0.0000 
     67 DU         20.4700   -8.5000  -12.1000 H         5 CUB7        0.0000 
     68 DU         21.0800   -7.8700  -13.3100 H         5 CUB7        0.0000 
     69 DU         23.0000   -8.0100  -12.4300 H         5 CUB7        0.0000 
     70 DU         23.8300   -7.1200  -11.5500 H         5 CUB7        0.0000 
@<TRIPOS>BOND
@<TRIPOS>SUBSTRUCTURE
     1 ALA2        1 GROUP   
     2 ASP3       10 GROUP   
     3 LYS4       32 GROUP   
     4 GLY6       33 GROUP   
     5 CUB7       59 GROUP   
@<TRIPOS>SET

