#    Name: 6fbd_1_XG4_CAVITY_N1_6
#    Modification time : Fri May 22 19:29:16 2020

@<TRIPOS>MOLECULE
6fbd_1_XG4_CAVITY_N1_6
   39     0     5     0     0
SMALL
NO_CHARGES


@<TRIPOS>ATOM
      1 N          21.1100  -10.0400  -16.2800 N.am      1 ALA2        0.0000 
      2 N          20.8600   -8.1200  -15.4100 N.am      1 ALA2        0.0000 
      3 OD1        19.5400  -13.8500  -13.4900 O.co2     2 ASP3        0.0000 
      4 OD1        18.4500  -12.8200  -13.5000 O.co2     2 ASP3        0.0000 
      5 OD1        19.0600  -12.1900  -14.7200 O.co2     2 ASP3        0.0000 
      6 OD1        20.9800  -12.3400  -13.8300 O.co2     2 ASP3        0.0000 
      7 OD1        19.2800  -11.9400  -12.6300 O.co2     2 ASP3        0.0000 
      8 OD1        19.8900  -11.3000  -13.8400 O.co2     2 ASP3        0.0000 
      9 OD1        18.8100  -10.2700  -13.8500 O.co2     2 ASP3        0.0000 
     10 OD1        19.4200   -9.6400  -15.0700 O.co2     2 ASP3        0.0000 
     11 OD1        21.2000  -12.0800  -11.7400 O.co2     2 ASP3        0.0000 
     12 OD1        21.8100  -11.4500  -12.9500 O.co2     2 ASP3        0.0000 
     13 OD1        22.4200  -10.8200  -14.1700 O.co2     2 ASP3        0.0000 
     14 OD1        20.1200  -11.0500  -11.7500 O.co2     2 ASP3        0.0000 
     15 OD1        19.0300  -10.0200  -11.7600 O.co2     2 ASP3        0.0000 
     16 OD1        19.6400   -9.3900  -12.9800 O.co2     2 ASP3        0.0000 
     17 OD1        18.5500   -8.3500  -12.9900 O.co2     2 ASP3        0.0000 
     18 OD1        22.6500  -10.5600  -12.0800 O.co2     2 ASP3        0.0000 
     19 OD1        20.9500  -10.1600  -10.8700 O.co2     2 ASP3        0.0000 
     20 OD1        21.5600   -9.5300  -12.0900 O.co2     2 ASP3        0.0000 
     21 NZ         20.1500  -13.2200  -14.7100 N.4       3 LYS4        0.0000 
     22 CA         20.7600  -12.5900  -15.9300 C.3       4 GLY6        0.0000 
     23 CA         20.2800  -10.9300  -17.1500 C.3       4 GLY6        0.0000 
     24 CA         21.5900  -11.7000  -15.0500 C.3       4 GLY6        0.0000 
     25 CA         22.2000  -11.0700  -16.2600 C.3       4 GLY6        0.0000 
     26 CA         17.4600   -7.3200  -13.0000 C.3       4 GLY6        0.0000 
     27 CA         19.8600   -9.1300  -10.8800 C.3       4 GLY6        0.0000 
     28 CA         18.7700   -8.1000  -10.8900 C.3       4 GLY6        0.0000 
     29 CA         19.3800   -7.4700  -12.1100 C.3       4 GLY6        0.0000 
     30 DU         20.3700  -12.9700  -12.6200 H         5 CUB7        0.0000 
     31 DU         20.5000  -10.6700  -15.0600 H         5 CUB7        0.0000 
     32 DU         20.0300   -9.0100  -16.2900 H         5 CUB7        0.0000 
     33 DU         20.7300  -10.4200  -12.9700 H         5 CUB7        0.0000 
     34 DU         21.3400   -9.7900  -14.1800 H         5 CUB7        0.0000 
     35 DU         20.2500   -8.7500  -14.1900 H         5 CUB7        0.0000 
     36 DU         19.1600   -7.7200  -14.2000 H         5 CUB7        0.0000 
     37 DU         22.1700   -8.9000  -13.3000 H         5 CUB7        0.0000 
     38 DU         20.4700   -8.5000  -12.1000 H         5 CUB7        0.0000 
     39 DU         21.0800   -7.8700  -13.3100 H         5 CUB7        0.0000 
@<TRIPOS>BOND
@<TRIPOS>SUBSTRUCTURE
     1 ALA2        1 GROUP   
     2 ASP3        3 GROUP   
     3 LYS4       21 GROUP   
     4 GLY6       22 GROUP   
     5 CUB7       30 GROUP   
@<TRIPOS>SET

