#    Name: 6fbd_1_XG4_CAVITY_N1_4
#    Modification time : Fri May 22 19:29:16 2020

@<TRIPOS>MOLECULE
6fbd_1_XG4_CAVITY_N1_4
   15     0     4     0     0
SMALL
NO_CHARGES


@<TRIPOS>ATOM
      1 OD1        19.5400  -13.8500  -13.4900 O.co2     1 ASP3        0.0000 
      2 OD1        18.4500  -12.8200  -13.5000 O.co2     1 ASP3        0.0000 
      3 OD1        19.0600  -12.1900  -14.7200 O.co2     1 ASP3        0.0000 
      4 OD1        20.9800  -12.3400  -13.8300 O.co2     1 ASP3        0.0000 
      5 OD1        19.2800  -11.9400  -12.6300 O.co2     1 ASP3        0.0000 
      6 OD1        19.8900  -11.3000  -13.8400 O.co2     1 ASP3        0.0000 
      7 OD1        18.8100  -10.2700  -13.8500 O.co2     1 ASP3        0.0000 
      8 OD1        21.2000  -12.0800  -11.7400 O.co2     1 ASP3        0.0000 
      9 OD1        20.1200  -11.0500  -11.7500 O.co2     1 ASP3        0.0000 
     10 OD1        19.0300  -10.0200  -11.7600 O.co2     1 ASP3        0.0000 
     11 OD1        19.6400   -9.3900  -12.9800 O.co2     1 ASP3        0.0000 
     12 NZ         20.1500  -13.2200  -14.7100 N.4       2 LYS4        0.0000 
     13 CA         20.7600  -12.5900  -15.9300 C.3       3 GLY6        0.0000 
     14 DU         20.3700  -12.9700  -12.6200 H         4 CUB7        0.0000 
     15 DU         20.7300  -10.4200  -12.9700 H         4 CUB7        0.0000 
@<TRIPOS>BOND
@<TRIPOS>SUBSTRUCTURE
     1 ASP3        1 GROUP   
     2 LYS4       12 GROUP   
     3 GLY6       13 GROUP   
     4 CUB7       14 GROUP   
@<TRIPOS>SET

