#    Name: 5zch_2_A8S
#    Modification time : Fri May 22 19:24:49 2020

@<TRIPOS>MOLECULE
5zch_2_A8S
   19    19     1     0     0
SMALL
NO_CHARGES


@<TRIPOS>ATOM
      1 C1         13.9310  -21.5660   10.4190 C.2       1 A8S301      0.0000 
      2 C2         14.7490  -20.4970    9.6980 C.2       1 A8S301      0.0000 
      3 C3         16.0890  -20.4750    9.5680 C.2       1 A8S301      0.0000 
      4 C4         16.9620  -21.4970   10.1340 C.2       1 A8S301      0.0000 
      5 C5         18.2740  -21.3350   10.2690 C.2       1 A8S301      0.0000 
      6 C6         16.7180  -19.3540    8.8300 C.3       1 A8S301      0.0000 
      7 C7         19.1400  -22.4010   10.8550 C.3       1 A8S301      0.0000 
      8 O7         18.4400  -23.4690   11.4370 O.3       1 A8S301      0.0000 
      9 C8         20.0110  -22.9900    9.7740 C.2       1 A8S301      0.0000 
     10 C9         21.1800  -22.4600    9.4320 C.2       1 A8S301      0.0000 
     11 C10        21.7780  -21.3560   10.1890 C.2       1 A8S301      0.0000 
     12 O10        22.8680  -20.8970    9.8760 O.2       1 A8S301      0.0000 
     13 C11        21.0060  -20.8010   11.3730 C.3       1 A8S301      0.0000 
     14 O11        12.7610  -21.2360   10.7980 O.co2     1 A8S301      0.0000 
     15 C12        19.9960  -21.7830   12.0050 C.3       1 A8S301      0.0000 
     16 O12        14.4150  -22.6840   10.6070 O.co2     1 A8S301      0.0000 
     17 C13        19.3650  -23.9730    8.8720 C.3       1 A8S301      0.0000 
     18 C14        20.7630  -22.8470   12.7960 C.3       1 A8S301      0.0000 
     19 C15        19.1300  -20.9970   12.9790 C.3       1 A8S301      0.0000 
@<TRIPOS>BOND
     1    1    2 1    
     2    1   14 ar   
     3    1   16 ar   
     4    2    3 2    
     5    3    4 1    
     6    3    6 1    
     7    4    5 2    
     8    5    7 1    
     9    7    8 1    
    10    7    9 1    
    11    7   15 1    
    12    9   10 2    
    13    9   17 1    
    14   10   11 1    
    15   11   12 2    
    16   11   13 1    
    17   13   15 1    
    18   15   18 1    
    19   15   19 1    
@<TRIPOS>SUBSTRUCTURE
     1 A8S301      1 GROUP   
@<TRIPOS>SET

