#    Name: 5zch_1_A8S
#    Modification time : Fri May 22 19:24:44 2020

@<TRIPOS>MOLECULE
5zch_1_A8S
   19    19     1     0     0
SMALL
NO_CHARGES


@<TRIPOS>ATOM
      1 C1          3.6600  -45.5390  -32.4170 C.2       1 A8S301      0.0000 
      2 C2          4.9940  -45.2740  -33.1100 C.2       1 A8S301      0.0000 
      3 C3          5.2400  -44.3230  -34.0290 C.2       1 A8S301      0.0000 
      4 C4          4.2240  -43.3980  -34.5110 C.2       1 A8S301      0.0000 
      5 C5          4.3770  -42.6720  -35.6130 C.2       1 A8S301      0.0000 
      6 C6          6.6060  -44.2090  -34.5940 C.3       1 A8S301      0.0000 
      7 C7          3.3240  -41.7260  -36.0860 C.3       1 A8S301      0.0000 
      8 O7          2.0510  -41.9410  -35.5370 O.3       1 A8S301      0.0000 
      9 C8          3.7330  -40.3170  -35.7250 C.2       1 A8S301      0.0000 
     10 C9          4.5460  -39.5980  -36.4930 C.2       1 A8S301      0.0000 
     11 C10         4.9640  -40.0640  -37.8190 C.2       1 A8S301      0.0000 
     12 O10         5.6990  -39.3830  -38.5210 O.2       1 A8S301      0.0000 
     13 C11         4.4610  -41.4140  -38.2950 C.3       1 A8S301      0.0000 
     14 O11         3.5000  -46.6920  -31.9010 O.co2     1 A8S301      0.0000 
     15 C12         3.1530  -41.8870  -37.6260 C.3       1 A8S301      0.0000 
     16 O12         2.8020  -44.6540  -32.3780 O.co2     1 A8S301      0.0000 
     17 C13         3.5320  -39.9100  -34.3140 C.3       1 A8S301      0.0000 
     18 C14         1.9860  -41.0550  -38.1670 C.3       1 A8S301      0.0000 
     19 C15         2.9240  -43.3410  -38.0190 C.3       1 A8S301      0.0000 
@<TRIPOS>BOND
     1    1    2 1    
     2    1   14 ar   
     3    1   16 ar   
     4    2    3 2    
     5    3    4 1    
     6    3    6 1    
     7    4    5 2    
     8    5    7 1    
     9    7    8 1    
    10    7    9 1    
    11    7   15 1    
    12    9   10 2    
    13    9   17 1    
    14   10   11 1    
    15   11   12 2    
    16   11   13 1    
    17   13   15 1    
    18   15   18 1    
    19   15   19 1    
@<TRIPOS>SUBSTRUCTURE
     1 A8S301      1 GROUP   
@<TRIPOS>SET

