#    Name: 6nj9_1_SAM
#    Modification time : Fri May 22 19:37:20 2020

@<TRIPOS>MOLECULE
6nj9_1_SAM
   27    29     1     0     0
SMALL
NO_CHARGES


@<TRIPOS>ATOM
      1 N         151.4150  176.1660  143.7920 N.4       1 SAM500      0.0000 
      2 CA        152.7730  175.8950  143.3430 C.3       1 SAM500      0.0000 
      3 C         152.8090  175.6950  141.8500 C.2       1 SAM500      0.0000 
      4 O         151.8220  175.2740  141.2560 O.co2     1 SAM500      0.0000 
      5 OXT       153.8260  175.9570  141.2180 O.co2     1 SAM500      0.0000 
      6 CB        153.3440  174.6720  144.0350 C.3       1 SAM500      0.0000 
      7 CG        152.3140  173.5820  144.2340 C.3       1 SAM500      0.0000 
      8 SD        152.8990  172.2850  145.3300 S.3       1 SAM500      0.0000 
      9 CE        152.1380  170.8910  144.4790 C.3       1 SAM500      0.0000 
     10 C5'       151.6760  172.4280  146.6360 C.3       1 SAM500      0.0000 
     11 C4'       152.2210  173.1840  147.8180 C.3       1 SAM500      0.0000 
     12 O4'       151.1860  173.4330  148.7320 O.3       1 SAM500      0.0000 
     13 C3'       153.2330  172.3390  148.5400 C.3       1 SAM500      0.0000 
     14 O3'       154.4970  172.9170  148.4020 O.3       1 SAM500      0.0000 
     15 C2'       152.8600  172.4310  149.9860 C.3       1 SAM500      0.0000 
     16 O2'       153.9530  172.9850  150.6530 O.3       1 SAM500      0.0000 
     17 C1'       151.7170  173.4060  150.0250 C.3       1 SAM500      0.0000 
     18 N9        150.7110  172.9190  150.9580 N.pl3     1 SAM500      0.0000 
     19 C8        150.1940  171.6680  150.9690 C.2       1 SAM500      0.0000 
     20 N7        149.3020  171.5880  151.9690 N.2       1 SAM500      0.0000 
     21 C5        149.2530  172.7730  152.5850 C.ar      1 SAM500      0.0000 
     22 C6        148.5180  173.2180  153.6510 C.ar      1 SAM500      0.0000 
     23 N6        147.6750  172.3860  154.2430 N.pl3     1 SAM500      0.0000 
     24 N1        148.6690  174.5070  154.0900 N.ar      1 SAM500      0.0000 
     25 C2        149.5450  175.3470  153.4570 C.ar      1 SAM500      0.0000 
     26 N3        150.2770  174.8920  152.3950 N.ar      1 SAM500      0.0000 
     27 C4        150.1310  173.6250  151.9650 C.ar      1 SAM500      0.0000 
@<TRIPOS>BOND
     1   15   17 1    
     2   17   18 1    
     3   18   19 1    
     4   18   27 1    
     5   19   20 2    
     6   20   21 1    
     7   21   22 ar   
     8   21   27 ar   
     9   22   23 1    
    10   22   24 ar   
    11   24   25 ar   
    12   25   26 ar   
    13   26   27 ar   
    14    1    2 1    
    15    2    3 1    
    16    2    6 1    
    17    3    4 ar   
    18    3    5 ar   
    19    6    7 1    
    20    7    8 1    
    21    8    9 1    
    22    8   10 1    
    23   10   11 1    
    24   11   12 1    
    25   11   13 1    
    26   12   17 1    
    27   13   14 1    
    28   13   15 1    
    29   15   16 1    
@<TRIPOS>SUBSTRUCTURE
     1 SAM500      1 GROUP   
@<TRIPOS>SET

