#    Name: 6dw7_2_DTP_CAVITY_N1_6
#    Modification time : Fri May 22 19:30:50 2020

@<TRIPOS>MOLECULE
6dw7_2_DTP_CAVITY_N1_6
   60     0     6     0     0
SMALL
NO_CHARGES


@<TRIPOS>ATOM
      1 OG         27.3100   10.8100   -4.8300 O.3       1 SER1        0.0000 
      2 OG         28.9200    9.5100   -5.3200 O.3       1 SER1        0.0000 
      3 OG         27.7000   12.8300   -4.3000 O.3       1 SER1        0.0000 
      4 OG         29.3000   11.5300   -4.7900 O.3       1 SER1        0.0000 
      5 OG         30.9100   10.2400   -5.2800 O.3       1 SER1        0.0000 
      6 OG         31.7700   10.9200   -4.2700 O.3       1 SER1        0.0000 
      7 N          25.9700   11.4600   -6.3400 N.am      2 ALA2        0.0000 
      8 N          24.8400   11.4200   -5.3500 N.am      2 ALA2        0.0000 
      9 N          25.3100   10.0900   -4.8600 N.am      2 ALA2        0.0000 
     10 N          26.8300   12.1400   -5.3200 N.am      2 ALA2        0.0000 
     11 N          25.7000   12.1000   -4.3400 N.am      2 ALA2        0.0000 
     12 O          32.7800    8.3000   -7.7800 O.2       2 ALA2        0.0000 
     13 N          30.5200    8.2200   -5.8100 N.am      2 ALA2        0.0000 
     14 N          33.6500    8.9800   -6.7600 N.am      2 ALA2        0.0000 
     15 N          34.5100    9.6700   -5.7400 N.am      2 ALA2        0.0000 
     16 N          33.8500    8.2900   -4.2600 N.am      2 ALA2        0.0000 
     17 O          33.5900    8.9400   -2.2600 O.2       2 ALA2        0.0000 
     18 OD1        25.5800    9.4400   -6.8600 O.co2     3 ASP3        0.0000 
     19 OD1        27.1900    8.1500   -7.3500 O.co2     3 ASP3        0.0000 
     20 OD1        28.8000    6.8500   -7.8500 O.co2     3 ASP3        0.0000 
     21 OD1        27.5800   10.1600   -6.8300 O.co2     3 ASP3        0.0000 
     22 OD1        26.4500   10.1300   -5.8500 O.co2     3 ASP3        0.0000 
     23 OD1        28.0500    8.8300   -6.3400 O.co2     3 ASP3        0.0000 
     24 OD1        30.7900    7.5700   -7.8100 O.co2     3 ASP3        0.0000 
     25 OD1        29.6600    7.5300   -6.8300 O.co2     3 ASP3        0.0000 
     26 OD1        27.9600   12.1800   -6.3100 O.co2     3 ASP3        0.0000 
     27 OD1        28.4400   10.8500   -5.8100 O.co2     3 ASP3        0.0000 
     28 OD1        31.1800    9.5900   -7.2900 O.co2     3 ASP3        0.0000 
     29 OD1        30.0500    9.5500   -6.3000 O.co2     3 ASP3        0.0000 
     30 OD1        31.6500    8.2600   -6.7900 O.co2     3 ASP3        0.0000 
     31 OD1        28.8300   12.8700   -5.2900 O.co2     3 ASP3        0.0000 
     32 OD1        33.1700   10.3200   -7.2500 O.co2     3 ASP3        0.0000 
     33 OD1        32.0400   10.2800   -6.2700 O.co2     3 ASP3        0.0000 
     34 OD1        34.1200    7.6500   -6.2700 O.co2     3 ASP3        0.0000 
     35 OD1        32.9000   10.9600   -5.2500 O.co2     3 ASP3        0.0000 
     36 OD1        34.9900    8.3300   -5.2500 O.co2     3 ASP3        0.0000 
     37 OD1        34.7200    8.9800   -3.2500 O.co2     3 ASP3        0.0000 
     38 CZ         26.0600    8.1100   -6.3700 C.ar      4 PHE5        0.0000 
     39 CZ         27.6700    6.8100   -6.8600 C.ar      4 PHE5        0.0000 
     40 CZ         26.9200    8.7900   -5.3500 C.ar      4 PHE5        0.0000 
     41 CZ         28.5300    7.5000   -5.8400 C.ar      4 PHE5        0.0000 
     42 CZ         29.3900    8.1800   -4.8200 C.ar      4 PHE5        0.0000 
     43 CZ         31.3900    8.9000   -4.7900 C.ar      4 PHE5        0.0000 
     44 CZ         33.3800    9.6300   -4.7600 C.ar      4 PHE5        0.0000 
     45 CZ         32.2500    9.5900   -3.7700 C.ar      4 PHE5        0.0000 
     46 CZ         32.7200    8.2500   -3.2800 C.ar      4 PHE5        0.0000 
     47 CZ         33.1100   10.2700   -2.7500 C.ar      4 PHE5        0.0000 
     48 CA         27.9300    6.1700   -8.8600 C.3       5 GLY6        0.0000 
     49 CA         24.4500    9.4000   -5.8800 C.3       5 GLY6        0.0000 
     50 CA         30.1300    6.2000   -6.3300 C.3       5 GLY6        0.0000 
     51 CA         32.1300    6.9200   -6.3000 C.3       5 GLY6        0.0000 
     52 CA         32.9900    7.6100   -5.2800 C.3       5 GLY6        0.0000 
     53 CA         34.0300   11.0000   -6.2400 C.3       5 GLY6        0.0000 
     54 CA         34.9000   11.6800   -5.2200 C.3       5 GLY6        0.0000 
     55 CA         33.7700   11.6500   -4.2300 C.3       5 GLY6        0.0000 
     56 CA         34.2400   10.3100   -3.7400 C.3       5 GLY6        0.0000 
     57 CA         35.7600   12.3700   -4.2000 C.3       5 GLY6        0.0000 
     58 CA         35.1000   11.0000   -2.7200 C.3       5 GLY6        0.0000 
     59 DU         32.5200    8.9400   -5.7800 H         6 CUB7        0.0000 
     60 DU         35.3700   10.3500   -4.7200 H         6 CUB7        0.0000 
@<TRIPOS>BOND
@<TRIPOS>SUBSTRUCTURE
     1 SER1        1 GROUP   
     2 ALA2        7 GROUP   
     3 ASP3       18 GROUP   
     4 PHE5       38 GROUP   
     5 GLY6       48 GROUP   
     6 CUB7       59 GROUP   
@<TRIPOS>SET

