#    Name: 6dw7_3_DTP
#    Modification time : Fri May 22 19:31:11 2020

@<TRIPOS>MOLECULE
6dw7_3_DTP
   30    32     1     0     0
SMALL
NO_CHARGES


@<TRIPOS>ATOM
      1 PG          0.7180  -20.0090    0.5630 P.3       1 DTP701      0.0000 
      2 O1G         1.2680  -21.1490   -0.2410 O.co2     1 DTP701      0.0000 
      3 O2G        -0.7780  -19.7680    0.4260 O.co2     1 DTP701      0.0000 
      4 O3G         1.3070  -20.0790    1.9770 O.co2     1 DTP701      0.0000 
      5 PB          1.8800  -17.4140    0.6530 P.3       1 DTP701      0.0000 
      6 O1B         0.8600  -16.2810    0.7600 O.co2     1 DTP701      0.0000 
      7 O2B         2.7580  -17.7920    1.8290 O.co2     1 DTP701      0.0000 
      8 O3B         1.1970  -18.6560   -0.1750 O.3       1 DTP701      0.0000 
      9 PA          2.8840  -16.5480   -1.9240 P.3       1 DTP701      0.0000 
     10 O1A         3.3320  -17.5550   -2.9580 O.co2     1 DTP701      0.0000 
     11 O2A         1.6310  -15.6880   -1.8850 O.co2     1 DTP701      0.0000 
     12 O3A         2.9730  -17.2640   -0.5040 O.3       1 DTP701      0.0000 
     13 O5'         4.1570  -15.5820   -1.6670 O.3       1 DTP701      0.0000 
     14 C5'         5.4780  -16.1560   -1.7450 C.3       1 DTP701      0.0000 
     15 C4'         6.5420  -15.1170   -2.1600 C.3       1 DTP701      0.0000 
     16 O4'         6.3460  -14.5670   -3.4660 O.3       1 DTP701      0.0000 
     17 C3'         6.5490  -13.9240   -1.2280 C.3       1 DTP701      0.0000 
     18 O3'         7.9020  -13.4720   -1.2520 O.3       1 DTP701      0.0000 
     19 C2'         5.6250  -12.8850   -1.8380 C.3       1 DTP701      0.0000 
     20 C1'         5.8690  -13.2490   -3.2930 C.3       1 DTP701      0.0000 
     21 N9          4.7110  -13.2690   -4.1230 N.pl3     1 DTP701      0.0000 
     22 C8          3.4780  -13.5650   -3.7850 C.2       1 DTP701      0.0000 
     23 N7          2.6780  -13.4660   -4.8610 N.2       1 DTP701      0.0000 
     24 C5          3.4590  -13.0990   -5.8960 C.ar      1 DTP701      0.0000 
     25 C6          3.2790  -12.8380   -7.3290 C.ar      1 DTP701      0.0000 
     26 N6          2.0630  -12.9460   -7.8640 N.pl3     1 DTP701      0.0000 
     27 N1          4.3420  -12.4720   -8.0570 N.ar      1 DTP701      0.0000 
     28 C2          5.5780  -12.3620   -7.5150 C.ar      1 DTP701      0.0000 
     29 N3          5.8410  -12.5900   -6.2190 N.ar      1 DTP701      0.0000 
     30 C4          4.8160  -12.9530   -5.3880 C.ar      1 DTP701      0.0000 
@<TRIPOS>BOND
     1    1    2 ar   
     2    1    3 ar   
     3    1    4 ar   
     4    1    8 1    
     5    5    6 ar   
     6    5    7 ar   
     7    5    8 1    
     8    5   12 1    
     9    9   10 ar   
    10    9   11 ar   
    11    9   12 1    
    12    9   13 1    
    13   13   14 1    
    14   14   15 1    
    15   15   16 1    
    16   15   17 1    
    17   16   20 1    
    18   17   18 1    
    19   17   19 1    
    20   19   20 1    
    21   20   21 1    
    22   21   22 1    
    23   21   30 1    
    24   22   23 2    
    25   23   24 1    
    26   24   25 ar   
    27   24   30 ar   
    28   25   26 1    
    29   25   27 ar   
    30   27   28 ar   
    31   28   29 ar   
    32   29   30 ar   
@<TRIPOS>SUBSTRUCTURE
     1 DTP701      1 GROUP   
@<TRIPOS>SET

