#    Name: 6dw7_1_DTP_CAVITY_N1_6
#    Modification time : Fri May 22 19:30:29 2020

@<TRIPOS>MOLECULE
6dw7_1_DTP_CAVITY_N1_6
  110     0     7     0     0
SMALL
NO_CHARGES


@<TRIPOS>ATOM
      1 OG          1.7500    1.6600  -32.2600 O.3       1 SER1        0.0000 
      2 OG          5.5300    3.8000  -34.6900 O.3       1 SER1        0.0000 
      3 OG          4.4000    3.7600  -33.7100 O.3       1 SER1        0.0000 
      4 OG          3.7400    2.3900  -32.2300 O.3       1 SER1        0.0000 
      5 OG          5.7400    3.1100  -32.1900 O.3       1 SER1        0.0000 
      6 O           0.0200    0.3000  -34.3000 O.2       2 ALA2        0.0000 
      7 N          -0.6300   -1.0800  -32.8200 N.am      2 ALA2        0.0000 
      8 N          -0.9000   -0.4300  -30.8200 N.am      2 ALA2        0.0000 
      9 N          -2.0300   -0.4700  -29.8300 N.am      2 ALA2        0.0000 
     10 N          -0.5100    1.5900  -30.2900 N.am      2 ALA2        0.0000 
     11 N          -1.6400    1.5500  -29.3100 N.am      2 ALA2        0.0000 
     12 N           1.1000    0.2900  -30.7800 N.am      2 ALA2        0.0000 
     13 N          -0.7800    2.2300  -28.2900 N.am      2 ALA2        0.0000 
     14 O           0.8300    0.9400  -28.7800 O.2       2 ALA2        0.0000 
     15 O          -0.3000    0.9000  -27.8000 O.2       2 ALA2        0.0000 
     16 N           6.3900    4.4800  -33.6700 N.am      2 ALA2        0.0000 
     17 O           1.6900    1.6200  -27.7600 O.2       2 ALA2        0.0000 
     18 O           5.8300    9.1700  -34.1400 O.2       2 ALA2        0.0000 
     19 N           6.3100    7.8400  -33.6400 N.am      2 ALA2        0.0000 
     20 N           7.7300    3.8300  -32.1600 N.am      2 ALA2        0.0000 
     21 O           8.2100    2.5000  -31.6700 O.2       2 ALA2        0.0000 
     22 O           3.0300    0.9700  -26.2500 O.2       2 ALA2        0.0000 
     23 O           6.6300    0.4000  -26.7100 O.2       2 ALA2        0.0000 
     24 OD1        -1.1100    0.2600  -33.3100 O.co2     3 ASP3        0.0000 
     25 OD1         0.4100    2.3100  -33.7700 O.co2     3 ASP3        0.0000 
     26 OD1         2.5900    5.7400  -35.7100 O.co2     3 ASP3        0.0000 
     27 OD1         3.0600    4.4100  -35.2200 O.co2     3 ASP3        0.0000 
     28 OD1         1.9300    4.3700  -34.2300 O.co2     3 ASP3        0.0000 
     29 OD1         1.2800    3.0000  -32.7600 O.co2     3 ASP3        0.0000 
     30 OD1         0.1400    2.9600  -31.7700 O.co2     3 ASP3        0.0000 
     31 OD1         0.6200    1.6300  -31.2800 O.co2     3 ASP3        0.0000 
     32 OD1        -1.1700    0.2100  -28.8100 O.co2     3 ASP3        0.0000 
     33 OD1        -2.3000    0.1700  -27.8300 O.co2     3 ASP3        0.0000 
     34 OD1        -0.6900   -1.1200  -28.3200 O.co2     3 ASP3        0.0000 
     35 OD1         2.9700    7.7600  -35.1900 O.co2     3 ASP3        0.0000 
     36 OD1         1.8400    7.7200  -34.2000 O.co2     3 ASP3        0.0000 
     37 OD1         4.5800    6.4700  -35.6800 O.co2     3 ASP3        0.0000 
     38 OD1         3.4500    6.4300  -34.6900 O.co2     3 ASP3        0.0000 
     39 OD1         5.0600    5.1300  -35.1800 O.co2     3 ASP3        0.0000 
     40 OD1         3.9200    5.1000  -34.2000 O.co2     3 ASP3        0.0000 
     41 OD1         3.2700    3.7200  -32.7200 O.co2     3 ASP3        0.0000 
     42 OD1         2.6100    2.3500  -31.2400 O.co2     3 ASP3        0.0000 
     43 OD1         1.4800    2.3100  -30.2600 O.co2     3 ASP3        0.0000 
     44 OD1         1.9600    0.9800  -29.7700 O.co2     3 ASP3        0.0000 
     45 OD1         4.9700    8.4900  -35.1500 O.co2     3 ASP3        0.0000 
     46 OD1         3.8400    8.4500  -34.1700 O.co2     3 ASP3        0.0000 
     47 OD1         2.7000    8.4100  -33.1800 O.co2     3 ASP3        0.0000 
     48 OD1         5.4400    7.1500  -34.6600 O.co2     3 ASP3        0.0000 
     49 OD1         3.1800    7.0700  -32.6900 O.co2     3 ASP3        0.0000 
     50 OD1         3.6600    5.7400  -32.2000 O.co2     3 ASP3        0.0000 
     51 OD1         4.1300    4.4100  -31.7000 O.co2     3 ASP3        0.0000 
     52 OD1         4.6100    3.0700  -31.2100 O.co2     3 ASP3        0.0000 
     53 OD1         5.0800    1.7400  -30.7200 O.co2     3 ASP3        0.0000 
     54 OD1         3.9500    1.7000  -29.7300 O.co2     3 ASP3        0.0000 
     55 OD1         2.8200    1.6600  -28.7500 O.co2     3 ASP3        0.0000 
     56 OD1         6.1300    5.1300  -31.6700 O.co2     3 ASP3        0.0000 
     57 OD1         6.6000    3.8000  -31.1800 O.co2     3 ASP3        0.0000 
     58 OD1         7.0800    2.4600  -30.6800 O.co2     3 ASP3        0.0000 
     59 OD1         5.2900    1.0500  -28.2200 O.co2     3 ASP3        0.0000 
     60 OD1         4.1600    1.0100  -27.2400 O.co2     3 ASP3        0.0000 
     61 OD1         6.1500    1.7300  -27.2000 O.co2     3 ASP3        0.0000 
     62 OD1         4.3700    0.3200  -24.7400 O.co2     3 ASP3        0.0000 
     63 OD1         3.2400    0.2800  -23.7500 O.co2     3 ASP3        0.0000 
     64 OD1         4.8400   -1.0100  -24.2400 O.co2     3 ASP3        0.0000 
     65 NZ          0.3500    2.2700  -29.2700 N.4       4 LYS4        0.0000 
     66 NZ          6.3600    1.0500  -24.7000 N.4       4 LYS4        0.0000 
     67 CZ          0.8900    0.9800  -33.2800 C.ar      5 PHE5        0.0000 
     68 CZ         -0.2400    0.9400  -32.3000 C.ar      5 PHE5        0.0000 
     69 CZ          4.2200    1.0500  -31.7300 C.ar      5 PHE5        0.0000 
     70 CZ          3.0900    1.0100  -30.7500 C.ar      5 PHE5        0.0000 
     71 CZ          6.2100    1.7800  -31.7000 C.ar      5 PHE5        0.0000 
     72 CZ          5.5600    0.4000  -30.2200 C.ar      5 PHE5        0.0000 
     73 CZ          4.4300    0.3600  -29.2400 C.ar      5 PHE5        0.0000 
     74 CZ          4.7000    9.1300  -33.1500 C.ar      5 PHE5        0.0000 
     75 CZ          5.1700    7.8000  -32.6600 C.ar      5 PHE5        0.0000 
     76 CZ          5.6500    6.4600  -32.1600 C.ar      5 PHE5        0.0000 
     77 CZ          7.5500    1.1300  -30.1900 C.ar      5 PHE5        0.0000 
     78 CZ          6.4200    1.0900  -29.2000 C.ar      5 PHE5        0.0000 
     79 CZ          5.7700   -0.2800  -27.7300 C.ar      5 PHE5        0.0000 
     80 CA         -2.0600    2.9200  -34.3000 C.3       6 GLY6        0.0000 
     81 CA         -0.4500    1.6300  -34.7900 C.3       6 GLY6        0.0000 
     82 CA         -1.5800    1.5900  -33.8100 C.3       6 GLY6        0.0000 
     83 CA         -0.7200    2.2800  -32.7900 C.3       6 GLY6        0.0000 
     84 CA         -1.8500    2.2400  -31.8000 C.3       6 GLY6        0.0000 
     85 CA         -0.9900    2.9200  -30.7900 C.3       6 GLY6        0.0000 
     86 CA         -0.0400    0.2500  -29.8000 C.3       6 GLY6        0.0000 
     87 CA          2.3200    6.3900  -33.7100 C.3       6 GLY6        0.0000 
     88 CA          6.0100    2.4700  -34.2000 C.3       6 GLY6        0.0000 
     89 CA          2.4300   -0.3600  -29.2700 C.3       6 GLY6        0.0000 
     90 CA          1.3000   -0.4000  -28.2900 C.3       6 GLY6        0.0000 
     91 CA          0.1700   -0.4400  -27.3000 C.3       6 GLY6        0.0000 
     92 CA          6.8700    3.1500  -33.1800 C.3       6 GLY6        0.0000 
     93 CA          7.3500    1.8200  -32.6900 C.3       6 GLY6        0.0000 
     94 CA          3.3000    0.3300  -28.2500 C.3       6 GLY6        0.0000 
     95 CA          2.1700    0.2900  -27.2700 C.3       6 GLY6        0.0000 
     96 CA          3.7700   -1.0100  -27.7600 C.3       6 GLY6        0.0000 
     97 CA          4.6400   -0.3200  -26.7400 C.3       6 GLY6        0.0000 
     98 CA          3.5000   -0.3600  -25.7600 C.3       6 GLY6        0.0000 
     99 CA          5.0200    1.6900  -26.2200 C.3       6 GLY6        0.0000 
    100 CA          3.8900    1.6600  -25.2300 C.3       6 GLY6        0.0000 
    101 CA          5.5000    0.3600  -25.7200 C.3       6 GLY6        0.0000 
    102 CA          3.6200    2.3000  -23.2300 C.3       6 GLY6        0.0000 
    103 CA          2.4900    2.2600  -22.2400 C.3       6 GLY6        0.0000 
    104 CA          5.2300    1.0100  -23.7200 C.3       6 GLY6        0.0000 
    105 CA          4.1000    0.9700  -22.7400 C.3       6 GLY6        0.0000 
    106 CA          5.7100   -0.3300  -23.2300 C.3       6 GLY6        0.0000 
    107 DU         -1.3700    0.9000  -31.3100 H         7 CUB7        0.0000 
    108 DU          4.3100    7.1100  -33.6800 H         7 CUB7        0.0000 
    109 DU          4.7900    5.7800  -33.1800 H         7 CUB7        0.0000 
    110 DU          5.2600    4.4500  -32.6900 H         7 CUB7        0.0000 
@<TRIPOS>BOND
@<TRIPOS>SUBSTRUCTURE
     1 SER1        1 GROUP   
     2 ALA2        6 GROUP   
     3 ASP3       24 GROUP   
     4 LYS4       65 GROUP   
     5 PHE5       67 GROUP   
     6 GLY6       80 GROUP   
     7 CUB7      107 GROUP   
@<TRIPOS>SET

