#    Name: 6dw7_4_DTP_CAVITY_N1_4
#    Modification time : Fri May 22 19:31:33 2020

@<TRIPOS>MOLECULE
6dw7_4_DTP_CAVITY_N1_4
   89     0     7     0     0
SMALL
NO_CHARGES


@<TRIPOS>ATOM
      1 OG         32.2200  -20.4100  -25.5600 O.3       1 SER1        0.0000 
      2 OG         31.4700  -18.4300  -24.0600 O.3       1 SER1        0.0000 
      3 OG         33.0800  -19.7300  -24.5500 O.3       1 SER1        0.0000 
      4 OG         31.9500  -19.7600  -23.5600 O.3       1 SER1        0.0000 
      5 OG         33.9400  -19.0400  -23.5300 O.3       1 SER1        0.0000 
      6 OG         34.3300  -17.0200  -23.0000 O.3       1 SER1        0.0000 
      7 N          29.0000  -17.8200  -24.5800 N.am      2 ALA2        0.0000 
      8 N          29.4800  -19.1500  -24.0900 N.am      2 ALA2        0.0000 
      9 O          28.3500  -19.1900  -23.1000 O.2       2 ALA2        0.0000 
     10 N          31.0900  -20.4500  -24.5800 N.am      2 ALA2        0.0000 
     11 O          29.1200  -15.1600  -22.0500 O.2       2 ALA2        0.0000 
     12 O          29.9800  -14.4700  -21.0400 O.2       2 ALA2        0.0000 
     13 O          28.8500  -14.5100  -20.0500 O.2       2 ALA2        0.0000 
     14 N          28.1100  -12.5300  -18.5400 N.am      2 ALA2        0.0000 
     15 N          35.8500  -14.9600  -23.4600 N.am      2 ALA2        0.0000 
     16 N          34.7200  -15.0000  -22.4800 N.am      2 ALA2        0.0000 
     17 O          33.3200  -14.4000  -19.4900 O.2       2 ALA2        0.0000 
     18 N          29.8400  -11.1600  -16.5100 N.am      2 ALA2        0.0000 
     19 O          31.9200  -13.7900  -16.5000 O.2       2 ALA2        0.0000 
     20 OD1        33.1700  -23.0800  -24.5800 O.co2     3 ASP3        0.0000 
     21 OD1        30.3400  -18.4700  -23.0700 O.co2     3 ASP3        0.0000 
     22 OD1        29.2100  -18.5100  -22.0900 O.co2     3 ASP3        0.0000 
     23 OD1        30.8200  -19.8000  -22.5800 O.co2     3 ASP3        0.0000 
     24 OD1        33.5500  -21.0600  -24.0500 O.co2     3 ASP3        0.0000 
     25 OD1        32.4200  -21.1000  -23.0700 O.co2     3 ASP3        0.0000 
     26 OD1        35.1600  -22.3500  -24.5400 O.co2     3 ASP3        0.0000 
     27 OD1        35.6400  -23.6900  -24.0500 O.co2     3 ASP3        0.0000 
     28 OD1        38.3700  -24.9400  -25.5300 O.co2     3 ASP3        0.0000 
     29 OD1        37.2400  -24.9800  -24.5400 O.co2     3 ASP3        0.0000 
     30 OD1        30.7300  -16.4500  -22.5500 O.co2     3 ASP3        0.0000 
     31 OD1        29.6000  -16.4900  -21.5600 O.co2     3 ASP3        0.0000 
     32 OD1        32.3400  -17.7500  -23.0400 O.co2     3 ASP3        0.0000 
     33 OD1        32.8100  -19.0800  -22.5400 O.co2     3 ASP3        0.0000 
     34 OD1        34.4200  -20.3700  -23.0300 O.co2     3 ASP3        0.0000 
     35 OD1        33.2900  -20.4100  -22.0500 O.co2     3 ASP3        0.0000 
     36 OD1        37.6300  -22.9700  -24.0200 O.co2     3 ASP3        0.0000 
     37 OD1        39.2400  -24.2600  -24.5100 O.co2     3 ASP3        0.0000 
     38 OD1        32.7200  -15.7300  -22.5100 O.co2     3 ASP3        0.0000 
     39 OD1        31.5900  -15.7700  -21.5300 O.co2     3 ASP3        0.0000 
     40 OD1        35.9400  -18.3200  -23.4900 O.co2     3 ASP3        0.0000 
     41 OD1        34.8000  -18.3600  -22.5100 O.co2     3 ASP3        0.0000 
     42 OD1        40.1000  -23.5800  -23.4900 O.co2     3 ASP3        0.0000 
     43 OD1        40.5800  -24.9100  -23.0000 O.co2     3 ASP3        0.0000 
     44 OD1        33.5900  -15.0400  -21.4900 O.co2     3 ASP3        0.0000 
     45 OD1        32.4500  -15.0800  -20.5100 O.co2     3 ASP3        0.0000 
     46 OD1        31.3200  -15.1200  -19.5200 O.co2     3 ASP3        0.0000 
     47 OD1        35.1900  -16.3400  -21.9800 O.co2     3 ASP3        0.0000 
     48 OD1        35.6700  -17.6700  -21.4900 O.co2     3 ASP3        0.0000 
     49 OD1        31.7100  -13.1000  -19.0000 O.co2     3 ASP3        0.0000 
     50 OD1        32.1900  -14.4400  -18.5100 O.co2     3 ASP3        0.0000 
     51 OD1        34.9200  -15.6900  -19.9800 O.co2     3 ASP3        0.0000 
     52 OD1        30.9700  -11.1200  -17.4900 O.co2     3 ASP3        0.0000 
     53 OD1        31.4400  -12.4600  -17.0000 O.co2     3 ASP3        0.0000 
     54 OD1        36.9200  -14.9700  -19.9500 O.co2     3 ASP3        0.0000 
     55 NZ         28.5900  -13.8600  -18.0500 N.4       4 LYS4        0.0000 
     56 CZ         39.5100  -24.9100  -26.5100 C.ar      5 PHE5        0.0000 
     57 CZ         31.8600  -16.4100  -23.5300 C.ar      5 PHE5        0.0000 
     58 CZ         40.3700  -24.2200  -25.4900 C.ar      5 PHE5        0.0000 
     59 CZ         32.2500  -14.3900  -23.0100 C.ar      5 PHE5        0.0000 
     60 CZ         31.1200  -14.4300  -22.0200 C.ar      5 PHE5        0.0000 
     61 CZ         33.8500  -15.6900  -23.5000 C.ar      5 PHE5        0.0000 
     62 CZ         36.3200  -16.3000  -22.9700 C.ar      5 PHE5        0.0000 
     63 CA         30.6100  -19.1100  -25.0700 C.3       6 GLY6        0.0000 
     64 CA         29.8700  -17.1300  -23.5600 C.3       6 GLY6        0.0000 
     65 CA         28.7300  -17.1700  -22.5800 C.3       6 GLY6        0.0000 
     66 CA         34.0300  -22.3900  -23.5600 C.3       6 GLY6        0.0000 
     67 CA         37.9000  -23.6100  -26.0200 C.3       6 GLY6        0.0000 
     68 CA         36.7700  -23.6500  -25.0300 C.3       6 GLY6        0.0000 
     69 CA         38.7600  -22.9300  -25.0000 C.3       6 GLY6        0.0000 
     70 CA         39.7100  -25.5900  -24.0100 C.3       6 GLY6        0.0000 
     71 CA         39.6200  -22.2400  -23.9800 C.3       6 GLY6        0.0000 
     72 CA         29.2400  -12.4900  -19.5300 C.3       6 GLY6        0.0000 
     73 CA         33.1100  -13.7100  -21.9900 C.3       6 GLY6        0.0000 
     74 CA         31.9800  -13.7500  -21.0000 C.3       6 GLY6        0.0000 
     75 CA         30.8500  -13.7900  -20.0200 C.3       6 GLY6        0.0000 
     76 CA         29.7200  -13.8300  -19.0300 C.3       6 GLY6        0.0000 
     77 CA         36.8000  -17.6300  -22.4800 C.3       6 GLY6        0.0000 
     78 CA         40.4900  -21.5600  -22.9600 C.3       6 GLY6        0.0000 
     79 CA         31.2300  -11.7700  -19.4900 C.3       6 GLY6        0.0000 
     80 CA         30.1000  -11.8100  -18.5100 C.3       6 GLY6        0.0000 
     81 CA         28.9700  -11.8500  -17.5200 C.3       6 GLY6        0.0000 
     82 CA         32.8400  -13.0600  -19.9800 C.3       6 GLY6        0.0000 
     83 CA         30.5800  -13.1400  -18.0200 C.3       6 GLY6        0.0000 
     84 CA         29.4500  -13.1800  -17.0300 C.3       6 GLY6        0.0000 
     85 CA         35.5800  -14.3200  -21.4600 C.3       6 GLY6        0.0000 
     86 CA         34.4500  -14.3600  -20.4800 C.3       6 GLY6        0.0000 
     87 CA         30.3100  -12.5000  -16.0100 C.3       6 GLY6        0.0000 
     88 CA         30.7900  -13.8300  -15.5200 C.3       6 GLY6        0.0000 
     89 DU         36.0500  -15.6500  -20.9700 H         7 CUB7        0.0000 
@<TRIPOS>BOND
@<TRIPOS>SUBSTRUCTURE
     1 SER1        1 GROUP   
     2 ALA2        7 GROUP   
     3 ASP3       20 GROUP   
     4 LYS4       55 GROUP   
     5 PHE5       56 GROUP   
     6 GLY6       63 GROUP   
     7 CUB7       89 GROUP   
@<TRIPOS>SET

