#    Name: 6dw7_2_DTP
#    Modification time : Fri May 22 19:30:48 2020

@<TRIPOS>MOLECULE
6dw7_2_DTP
   30    32     1     0     0
SMALL
NO_CHARGES


@<TRIPOS>ATOM
      1 PG         30.5310   16.9180   -4.4150 P.3       1 DTP703      0.0000 
      2 O1G        30.3410   17.2690   -5.8760 O.co2     1 DTP703      0.0000 
      3 O2G        32.0050   16.9200   -4.0050 O.co2     1 DTP703      0.0000 
      4 O3G        29.5740   17.6020   -3.4870 O.co2     1 DTP703      0.0000 
      5 PB         29.0200   14.6250   -3.4040 P.3       1 DTP703      0.0000 
      6 O1B        28.0350   15.6100   -2.8520 O.co2     1 DTP703      0.0000 
      7 O2B        29.8340   13.7650   -2.4830 O.co2     1 DTP703      0.0000 
      8 O3B        30.1020   15.3620   -4.3510 O.3       1 DTP703      0.0000 
      9 PA         28.5530   12.4930   -5.4180 P.3       1 DTP703      0.0000 
     10 O1A        28.4670   12.9730   -6.8550 O.co2     1 DTP703      0.0000 
     11 O2A        29.7260   11.7430   -4.8510 O.co2     1 DTP703      0.0000 
     12 O3A        28.2170   13.7920   -4.5080 O.3       1 DTP703      0.0000 
     13 O5'        27.1750   11.7580   -5.1350 O.3       1 DTP703      0.0000 
     14 C5'        25.9670   12.1940   -5.7760 C.3       1 DTP703      0.0000 
     15 C4'        25.0570   10.9560   -5.8970 C.3       1 DTP703      0.0000 
     16 O4'        25.6950    9.9660   -6.6670 O.3       1 DTP703      0.0000 
     17 C3'        24.7960   10.2830   -4.5660 C.3       1 DTP703      0.0000 
     18 O3'        23.4270    9.8930   -4.5610 O.3       1 DTP703      0.0000 
     19 C2'        25.7330    9.1020   -4.4520 C.3       1 DTP703      0.0000 
     20 C1'        25.9330    8.8000   -5.9030 C.3       1 DTP703      0.0000 
     21 N9         27.2620    8.4140   -6.3380 N.pl3     1 DTP703      0.0000 
     22 C8         28.4200    8.8230   -5.8790 C.2       1 DTP703      0.0000 
     23 N7         29.4220    8.2370   -6.5810 N.2       1 DTP703      0.0000 
     24 C5         28.8760    7.4980   -7.5120 C.ar      1 DTP703      0.0000 
     25 C6         29.3600    6.6300   -8.5810 C.ar      1 DTP703      0.0000 
     26 N6         30.6880    6.5140   -8.7690 N.pl3     1 DTP703      0.0000 
     27 N1         28.4630    5.9940   -9.3740 N.ar      1 DTP703      0.0000 
     28 C2         27.1340    6.1250   -9.1870 C.ar      1 DTP703      0.0000 
     29 N3         26.6200    6.9130   -8.2030 N.ar      1 DTP703      0.0000 
     30 C4         27.4410    7.6040   -7.3530 C.ar      1 DTP703      0.0000 
@<TRIPOS>BOND
     1    1    2 ar   
     2    1    3 ar   
     3    1    4 ar   
     4    1    8 1    
     5    5    6 ar   
     6    5    7 ar   
     7    5    8 1    
     8    5   12 1    
     9    9   10 ar   
    10    9   11 ar   
    11    9   12 1    
    12    9   13 1    
    13   13   14 1    
    14   14   15 1    
    15   15   16 1    
    16   15   17 1    
    17   16   20 1    
    18   17   18 1    
    19   17   19 1    
    20   19   20 1    
    21   20   21 1    
    22   21   22 1    
    23   21   30 1    
    24   22   23 2    
    25   23   24 1    
    26   24   25 ar   
    27   24   30 ar   
    28   25   26 1    
    29   25   27 ar   
    30   27   28 ar   
    31   28   29 ar   
    32   29   30 ar   
@<TRIPOS>SUBSTRUCTURE
     1 DTP703      1 GROUP   
@<TRIPOS>SET

