#    Name: 6dw7_4_DTP
#    Modification time : Fri May 22 19:31:31 2020

@<TRIPOS>MOLECULE
6dw7_4_DTP
   30    32     1     0     0
SMALL
NO_CHARGES


@<TRIPOS>ATOM
      1 PG         35.7610  -23.9600  -23.8200 P.3       1 DTP702      0.0000 
      2 O1G        35.3090  -24.8930  -24.9250 O.co2     1 DTP702      0.0000 
      3 O2G        37.2210  -23.5020  -23.7580 O.co2     1 DTP702      0.0000 
      4 O3G        35.2080  -24.4100  -22.5420 O.co2     1 DTP702      0.0000 
      5 PB         34.0320  -22.0650  -25.1600 P.3       1 DTP702      0.0000 
      6 O1B        34.7040  -20.9960  -25.9550 O.co2     1 DTP702      0.0000 
      7 O2B        33.3930  -23.2250  -25.8960 O.co2     1 DTP702      0.0000 
      8 O3B        35.0510  -22.5250  -24.0130 O.3       1 DTP702      0.0000 
      9 PA         33.0470  -20.0730  -23.2920 P.3       1 DTP702      0.0000 
     10 O1A        34.1220  -19.1190  -23.7350 O.co2     1 DTP702      0.0000 
     11 O2A        32.9240  -20.6630  -21.9220 O.co2     1 DTP702      0.0000 
     12 O3A        32.9080  -21.4050  -24.2260 O.3       1 DTP702      0.0000 
     13 O5'        31.6270  -19.4000  -23.6820 O.3       1 DTP702      0.0000 
     14 C5'        30.3880  -20.0060  -23.2860 C.3       1 DTP702      0.0000 
     15 C4'        29.2960  -18.9720  -23.4870 C.3       1 DTP702      0.0000 
     16 O4'        29.5500  -17.8990  -22.5870 O.3       1 DTP702      0.0000 
     17 C3'        29.3510  -18.3380  -24.8630 C.3       1 DTP702      0.0000 
     18 O3'        28.0130  -18.1310  -25.2260 O.3       1 DTP702      0.0000 
     19 C2'        29.9370  -16.9550  -24.7320 C.3       1 DTP702      0.0000 
     20 C1'        29.7110  -16.6560  -23.2670 C.3       1 DTP702      0.0000 
     21 N9         30.8320  -16.0700  -22.5290 N.pl3     1 DTP702      0.0000 
     22 C8         32.1510  -16.2840  -22.7310 C.2       1 DTP702      0.0000 
     23 N7         32.8870  -15.6060  -21.8170 N.2       1 DTP702      0.0000 
     24 C5         32.0100  -14.9650  -21.0430 C.ar      1 DTP702      0.0000 
     25 C6         32.1420  -14.1170  -19.8800 C.ar      1 DTP702      0.0000 
     26 N6         33.3790  -13.8390  -19.4310 N.pl3     1 DTP702      0.0000 
     27 N1         31.0100  -13.6760  -19.3110 N.ar      1 DTP702      0.0000 
     28 C2         29.7760  -14.0010  -19.7900 C.ar      1 DTP702      0.0000 
     29 N3         29.5750  -14.7830  -20.8670 N.ar      1 DTP702      0.0000 
     30 C4         30.6560  -15.2780  -21.5020 C.ar      1 DTP702      0.0000 
@<TRIPOS>BOND
     1    1    2 ar   
     2    1    3 ar   
     3    1    4 ar   
     4    1    8 1    
     5    5    6 ar   
     6    5    7 ar   
     7    5    8 1    
     8    5   12 1    
     9    9   10 ar   
    10    9   11 ar   
    11    9   12 1    
    12    9   13 1    
    13   13   14 1    
    14   14   15 1    
    15   15   16 1    
    16   15   17 1    
    17   16   20 1    
    18   17   18 1    
    19   17   19 1    
    20   19   20 1    
    21   20   21 1    
    22   21   22 1    
    23   21   30 1    
    24   22   23 2    
    25   23   24 1    
    26   24   25 ar   
    27   24   30 ar   
    28   25   26 1    
    29   25   27 ar   
    30   27   28 ar   
    31   28   29 ar   
    32   29   30 ar   
@<TRIPOS>SUBSTRUCTURE
     1 DTP702      1 GROUP   
@<TRIPOS>SET

