#    Name: 6dw7_1_DTP
#    Modification time : Fri May 22 19:30:27 2020

@<TRIPOS>MOLECULE
6dw7_1_DTP
   30    32     1     0     0
SMALL
NO_CHARGES


@<TRIPOS>ATOM
      1 PG          1.7730    7.5410  -35.8520 P.3       1 DTP701      0.0000 
      2 O1G         2.3130    7.8150  -37.2520 O.co2     1 DTP701      0.0000 
      3 O2G         0.3150    7.0930  -35.8110 O.co2     1 DTP701      0.0000 
      4 O3G         2.1570    8.6300  -34.9080 O.co2     1 DTP701      0.0000 
      5 PB          3.7230    5.3750  -35.5960 P.3       1 DTP701      0.0000 
      6 O1B         4.6920    6.2300  -36.3840 O.co2     1 DTP701      0.0000 
      7 O2B         3.1500    4.1310  -36.1610 O.co2     1 DTP701      0.0000 
      8 O3B         2.4930    6.3020  -35.0750 O.3       1 DTP701      0.0000 
      9 PA          4.1800    4.4180  -32.8470 P.3       1 DTP701      0.0000 
     10 O1A         3.2460    3.2280  -32.9320 O.co2     1 DTP701      0.0000 
     11 O2A         3.9860    5.6020  -31.9160 O.co2     1 DTP701      0.0000 
     12 O3A         4.5750    5.0650  -34.2600 O.3       1 DTP701      0.0000 
     13 O5'         5.5770    3.7190  -32.4820 O.3       1 DTP701      0.0000 
     14 C5'         6.8000    4.4590  -32.3660 C.3       1 DTP701      0.0000 
     15 C4'         7.9060    3.5870  -31.7680 C.3       1 DTP701      0.0000 
     16 O4'         7.4410    3.0200  -30.5480 O.3       1 DTP701      0.0000 
     17 C3'         8.3130    2.4000  -32.6110 C.3       1 DTP701      0.0000 
     18 O3'         9.6930    2.1130  -32.3250 O.3       1 DTP701      0.0000 
     19 C2'         7.4850    1.2280  -32.1430 C.3       1 DTP701      0.0000 
     20 C1'         7.2320    1.6360  -30.6930 C.3       1 DTP701      0.0000 
     21 N9          5.9040    1.4180  -30.1030 N.pl3     1 DTP701      0.0000 
     22 C8          4.6900    1.4300  -30.6580 C.2       1 DTP701      0.0000 
     23 N7          3.7220    1.1540  -29.7390 N.2       1 DTP701      0.0000 
     24 C5          4.3430    0.9910  -28.5580 C.ar      1 DTP701      0.0000 
     25 C6          3.9550    0.7340  -27.1620 C.ar      1 DTP701      0.0000 
     26 N6          2.6880    0.5840  -26.7380 N.pl3     1 DTP701      0.0000 
     27 N1          4.9480    0.6550  -26.2910 N.ar      1 DTP701      0.0000 
     28 C2          6.2550    0.8100  -26.5830 C.ar      1 DTP701      0.0000 
     29 N3          6.6860    1.0730  -27.8100 N.ar      1 DTP701      0.0000 
     30 C4          5.7850    1.1690  -28.8150 C.ar      1 DTP701      0.0000 
@<TRIPOS>BOND
     1    1    2 ar   
     2    1    3 ar   
     3    1    4 ar   
     4    1    8 1    
     5    5    6 ar   
     6    5    7 ar   
     7    5    8 1    
     8    5   12 1    
     9    9   10 ar   
    10    9   11 ar   
    11    9   12 1    
    12    9   13 1    
    13   13   14 1    
    14   14   15 1    
    15   15   16 1    
    16   15   17 1    
    17   16   20 1    
    18   17   18 1    
    19   17   19 1    
    20   19   20 1    
    21   20   21 1    
    22   21   22 1    
    23   21   30 1    
    24   22   23 2    
    25   23   24 1    
    26   24   25 ar   
    27   24   30 ar   
    28   25   26 1    
    29   25   27 ar   
    30   27   28 ar   
    31   28   29 ar   
    32   29   30 ar   
@<TRIPOS>SUBSTRUCTURE
     1 DTP701      1 GROUP   
@<TRIPOS>SET

