#    Name: 6dw7_3_DTP_CAVITY_N1_4
#    Modification time : Fri May 22 19:31:13 2020

@<TRIPOS>MOLECULE
6dw7_3_DTP_CAVITY_N1_4
   67     0     6     0     0
SMALL
NO_CHARGES


@<TRIPOS>ATOM
      1 OG          2.9000  -15.3600   -1.9100 O.3       1 SER1        0.0000 
      2 OG          2.2500  -16.7400   -0.4300 O.3       1 SER1        0.0000 
      3 OG          4.4200  -13.3100   -2.3700 O.3       1 SER1        0.0000 
      4 OG          3.7600  -14.6800   -0.8900 O.3       1 SER1        0.0000 
      5 OG          3.1100  -16.0500    0.5900 O.3       1 SER1        0.0000 
      6 N           4.4200  -22.7200   -0.4600 N.am      2 ALA2        0.0000 
      7 N           6.1200  -17.9500   -2.8900 N.am      2 ALA2        0.0000 
      8 N           4.9800  -17.9900   -1.9000 N.am      2 ALA2        0.0000 
      9 N           5.4600  -19.3300   -1.4100 N.am      2 ALA2        0.0000 
     10 O           4.8100  -20.7000    0.0700 O.2       2 ALA2        0.0000 
     11 N           6.5000  -15.9400   -2.3600 N.am      2 ALA2        0.0000 
     12 N           5.3700  -15.9700   -1.3800 N.am      2 ALA2        0.0000 
     13 O           6.8900  -13.9200   -1.8400 O.2       2 ALA2        0.0000 
     14 OD1         2.6900  -24.0900   -2.4900 O.co2     3 ASP3        0.0000 
     15 OD1         1.4700  -20.7700   -1.4800 O.co2     3 ASP3        0.0000 
     16 OD1         0.3400  -20.8100   -0.4900 O.co2     3 ASP3        0.0000 
     17 OD1         3.5500  -23.4000   -1.4700 O.co2     3 ASP3        0.0000 
     18 OD1         2.4200  -23.4400   -0.4900 O.co2     3 ASP3        0.0000 
     19 OD1         0.2500  -17.4600   -0.4600 O.co2     3 ASP3        0.0000 
     20 OD1         2.9900  -18.7200   -1.9400 O.co2     3 ASP3        0.0000 
     21 OD1         1.8600  -18.7600   -0.9500 O.co2     3 ASP3        0.0000 
     22 OD1         0.7300  -18.7900    0.0300 O.co2     3 ASP3        0.0000 
     23 OD1         2.3400  -20.0900   -0.4600 O.co2     3 ASP3        0.0000 
     24 OD1         1.2000  -20.1300    0.5300 O.co2     3 ASP3        0.0000 
     25 OD1         2.8100  -21.4200    0.0300 O.co2     3 ASP3        0.0000 
     26 OD1         4.6900  -13.9500   -4.3700 O.co2     3 ASP3        0.0000 
     27 OD1         3.5600  -13.9900   -3.3800 O.co2     3 ASP3        0.0000 
     28 OD1         4.0300  -15.3200   -2.8900 O.co2     3 ASP3        0.0000 
     29 OD1         5.6400  -16.6200   -3.3800 O.co2     3 ASP3        0.0000 
     30 OD1         4.5100  -16.6600   -2.4000 O.co2     3 ASP3        0.0000 
     31 OD1         2.7200  -18.0700    0.0700 O.co2     3 ASP3        0.0000 
     32 OD1         1.5900  -18.1100    1.0500 O.co2     3 ASP3        0.0000 
     33 OD1         4.3300  -19.3700   -0.4200 O.co2     3 ASP3        0.0000 
     34 OD1         3.2000  -19.4000    0.5600 O.co2     3 ASP3        0.0000 
     35 OD1         3.6700  -20.7400    1.0500 O.co2     3 ASP3        0.0000 
     36 OD1         4.1500  -22.0700    1.5500 O.co2     3 ASP3        0.0000 
     37 OD1         3.0200  -22.1100    2.5300 O.co2     3 ASP3        0.0000 
     38 OD1         6.0300  -14.6000   -2.8600 O.co2     3 ASP3        0.0000 
     39 CZ          2.6000  -20.7300   -2.4600 C.ar      4 PHE5        0.0000 
     40 CZ          3.0800  -22.0700   -1.9700 C.ar      4 PHE5        0.0000 
     41 CZ          4.1200  -18.6800   -2.9200 C.ar      4 PHE5        0.0000 
     42 CZ          4.6000  -20.0100   -2.4300 C.ar      4 PHE5        0.0000 
     43 CZ          3.4700  -20.0500   -1.4400 C.ar      4 PHE5        0.0000 
     44 CZ          5.3400  -12.5800   -5.8500 C.ar      4 PHE5        0.0000 
     45 CZ          4.2100  -12.6200   -4.8600 C.ar      4 PHE5        0.0000 
     46 CZ          1.1200  -16.7800    0.5600 C.ar      4 PHE5        0.0000 
     47 CZ          5.5500  -13.2700   -3.3500 C.ar      4 PHE5        0.0000 
     48 CZ          6.4100  -12.5800   -2.3300 C.ar      4 PHE5        0.0000 
     49 CA         -0.1300  -19.4800   -0.9900 C.3       5 GLY6        0.0000 
     50 CA          2.9000  -24.7800    0.0000 C.3       5 GLY6        0.0000 
     51 CA          1.7700  -24.8200    0.9900 C.3       5 GLY6        0.0000 
     52 CA          1.3800  -17.4200   -1.4500 C.3       5 GLY6        0.0000 
     53 CA          1.6800  -21.4600    1.0200 C.3       5 GLY6        0.0000 
     54 CA          2.1600  -22.8000    1.5100 C.3       5 GLY6        0.0000 
     55 CA          2.6300  -24.1300    2.0100 C.3       5 GLY6        0.0000 
     56 CA          6.6800  -13.2300   -4.3300 C.3       5 GLY6        0.0000 
     57 CA          7.1600  -14.5600   -3.8400 C.3       5 GLY6        0.0000 
     58 CA          5.0100  -21.3900    2.5700 C.3       5 GLY6        0.0000 
     59 CA          5.2800  -12.6200   -1.3500 C.3       5 GLY6        0.0000 
     60 CA          5.7600  -13.9600   -0.8500 C.3       5 GLY6        0.0000 
     61 CA          4.6300  -13.9900    0.1300 C.3       5 GLY6        0.0000 
     62 DU          3.9400  -21.3800   -0.9500 H         6 CUB7        0.0000 
     63 DU          3.2900  -22.7600    0.5300 H         6 CUB7        0.0000 
     64 DU          3.3800  -16.7000   -1.4100 H         6 CUB7        0.0000 
     65 DU          3.8500  -18.0300   -0.9200 H         6 CUB7        0.0000 
     66 DU          4.9000  -14.6400   -1.8700 H         6 CUB7        0.0000 
     67 DU          4.2400  -16.0100   -0.3900 H         6 CUB7        0.0000 
@<TRIPOS>BOND
@<TRIPOS>SUBSTRUCTURE
     1 SER1        1 GROUP   
     2 ALA2        6 GROUP   
     3 ASP3       14 GROUP   
     4 PHE5       39 GROUP   
     5 GLY6       49 GROUP   
     6 CUB7       62 GROUP   
@<TRIPOS>SET

