#    Name: 6fkf_5_ADP
#    Modification time : Fri May 22 19:27:54 2020

@<TRIPOS>MOLECULE
6fkf_5_ADP
   27    29     1     0     1
SMALL
NO_CHARGES


@<TRIPOS>ATOM
      1 PB        208.4010  196.8660  234.9950 P.3       1 ADP600      0.0000 
      2 O1B       206.9740  197.0590  234.6190 O.co2     1 ADP600      0.0000 
      3 O2B       208.9600  197.9330  235.8920 O.co2     1 ADP600      0.0000 
      4 O3B       208.6950  195.4580  235.4030 O.co2     1 ADP600      0.0000 
      5 PA        210.7160  196.9210  233.3810 P.3       1 ADP600      0.0000 
      6 O1A       211.2390  198.2480  232.9660 O.co2     1 ADP600      0.0000 
      7 O2A       211.3750  196.1500  234.4770 O.co2     1 ADP600      0.0000 
      8 O3A       209.1360  197.0200  233.5950 O.3       1 ADP600      0.0000 
      9 O5'       210.7560  196.0150  232.0790 O.3       1 ADP600      0.0000 
     10 C5'       211.1700  194.6780  232.2360 C.3       1 ADP600      0.0000 
     11 C4'       211.8770  194.1830  230.9960 C.3       1 ADP600      0.0000 
     12 O4'       211.2550  194.6290  229.8060 O.3       1 ADP600      0.0000 
     13 C3'       213.2790  194.7130  230.9020 C.3       1 ADP600      0.0000 
     14 O3'       214.1340  193.9070  231.6850 O.3       1 ADP600      0.0000 
     15 C2'       213.5640  194.4870  229.4560 C.3       1 ADP600      0.0000 
     16 O2'       213.8920  193.1150  229.3080 O.3       1 ADP600      0.0000 
     17 C1'       212.2410  194.7120  228.7860 C.3       1 ADP600      0.0000 
     18 N9        212.2320  196.0970  228.3170 N.pl3     1 ADP600      0.0000 
     19 C8        211.5470  197.0760  228.8890 C.2       1 ADP600      0.0000 
     20 N7        211.7170  198.2490  228.2580 N.2       1 ADP600      0.0000 
     21 C5        212.5470  198.0090  227.2390 C.ar      1 ADP600      0.0000 
     22 C6        213.1470  198.8060  226.1640 C.ar      1 ADP600      0.0000 
     23 N6        212.8810  200.1220  226.0440 N.pl3     1 ADP600      0.0000 
     24 N1        213.9420  198.1700  225.2930 N.ar      1 ADP600      0.0000 
     25 C2        214.2160  196.8640  225.3940 C.ar      1 ADP600      0.0000 
     26 N3        213.7130  196.0790  226.3490 N.ar      1 ADP600      0.0000 
     27 C4        212.8810  196.5880  227.2790 C.ar      1 ADP600      0.0000 
@<TRIPOS>BOND
     1    1    2 ar   
     2    1    3 ar   
     3    1    4 ar   
     4    1    8 1    
     5    5    6 ar   
     6    5    7 ar   
     7    5    8 1    
     8    5    9 1    
     9    9   10 1    
    10   10   11 1    
    11   11   12 1    
    12   11   13 1    
    13   12   17 1    
    14   13   14 1    
    15   13   15 1    
    16   15   16 1    
    17   15   17 1    
    18   17   18 1    
    19   18   19 1    
    20   18   27 1    
    21   19   20 2    
    22   20   21 1    
    23   21   22 ar   
    24   21   27 ar   
    25   22   23 1    
    26   22   24 ar   
    27   24   25 ar   
    28   25   26 ar   
    29   26   27 ar   
@<TRIPOS>SUBSTRUCTURE
     1 ADP600      1 GROUP   
@<TRIPOS>SET
ATOM$ORANGE STATIC     ATOMS   COLORGROUP SYSTEM 
20 10 10 11 11 13 13 15 15 17 17 19 19 21 21 22 22 25 \
25 27 27 

