#    Name: 6fkf_3_ADP
#    Modification time : Fri May 22 19:27:14 2020

@<TRIPOS>MOLECULE
6fkf_3_ADP
   27    29     1     0     1
SMALL
NO_CHARGES


@<TRIPOS>ATOM
      1 PB        182.0480  158.9030  237.3660 P.3       1 ADP600      0.0000 
      2 O1B       182.7030  160.1750  236.9260 O.co2     1 ADP600      0.0000 
      3 O2B       180.7770  159.0940  238.1350 O.co2     1 ADP600      0.0000 
      4 O3B       182.9710  157.8960  237.9690 O.co2     1 ADP600      0.0000 
      5 PA        181.0130  156.7440  235.8880 P.3       1 ADP600      0.0000 
      6 O1A       182.1080  155.7300  235.9950 O.co2     1 ADP600      0.0000 
      7 O2A       179.8000  156.6550  236.7610 O.co2     1 ADP600      0.0000 
      8 O3A       181.6030  158.2310  235.9890 O.3       1 ADP600      0.0000 
      9 O5'       180.5400  156.7660  234.3670 O.3       1 ADP600      0.0000 
     10 C5'       179.2170  157.1430  234.0680 C.3       1 ADP600      0.0000 
     11 C4'       178.8080  156.5140  232.7620 C.3       1 ADP600      0.0000 
     12 O4'       179.7730  156.7010  231.7420 O.3       1 ADP600      0.0000 
     13 C3'       178.7090  155.0240  232.9220 C.3       1 ADP600      0.0000 
     14 O3'       177.4450  154.6690  233.4690 O.3       1 ADP600      0.0000 
     15 C2'       178.8320  154.5540  231.5060 C.3       1 ADP600      0.0000 
     16 O2'       177.5350  154.5510  230.9220 O.3       1 ADP600      0.0000 
     17 C1'       179.6640  155.6140  230.8260 C.3       1 ADP600      0.0000 
     18 N9        180.9760  154.9810  230.5970 N.pl3     1 ADP600      0.0000 
     19 C8        182.0730  155.1240  231.3530 C.2       1 ADP600      0.0000 
     20 N7        183.0920  154.3940  230.8520 N.2       1 ADP600      0.0000 
     21 C5        182.6370  153.7570  229.7640 C.ar      1 ADP600      0.0000 
     22 C6        183.1900  152.8190  228.7790 C.ar      1 ADP600      0.0000 
     23 N6        184.4760  152.4260  228.8530 N.pl3     1 ADP600      0.0000 
     24 N1        182.3790  152.4070  227.7940 N.ar      1 ADP600      0.0000 
     25 C2        181.1030  152.8030  227.7030 C.ar      1 ADP600      0.0000 
     26 N3        180.5330  153.6490  228.5690 N.ar      1 ADP600      0.0000 
     27 C4        181.2390  154.1450  229.6030 C.ar      1 ADP600      0.0000 
@<TRIPOS>BOND
     1    1    2 ar   
     2    1    3 ar   
     3    1    4 ar   
     4    1    8 1    
     5    5    6 ar   
     6    5    7 ar   
     7    5    8 1    
     8    5    9 1    
     9    9   10 1    
    10   10   11 1    
    11   11   12 1    
    12   11   13 1    
    13   12   17 1    
    14   13   14 1    
    15   13   15 1    
    16   15   16 1    
    17   15   17 1    
    18   17   18 1    
    19   18   19 1    
    20   18   27 1    
    21   19   20 2    
    22   20   21 1    
    23   21   22 ar   
    24   21   27 ar   
    25   22   23 1    
    26   22   24 ar   
    27   24   25 ar   
    28   25   26 ar   
    29   26   27 ar   
@<TRIPOS>SUBSTRUCTURE
     1 ADP600      1 GROUP   
@<TRIPOS>SET
ATOM$ORANGE STATIC     ATOMS   COLORGROUP SYSTEM 
20 10 10 11 11 13 13 15 15 17 17 19 19 21 21 22 22 25 \
25 27 27 

