#    Name: 6fkf_1_ATP
#    Modification time : Fri May 22 19:26:34 2020

@<TRIPOS>MOLECULE
6fkf_1_ATP
   31    33     1     0     1
SMALL
NO_CHARGES


@<TRIPOS>ATOM
      1 PG        188.0530  211.5740  231.4930 P.3       1 ATP600      0.0000 
      2 O1G       188.9590  210.3940  231.6010 O.co2     1 ATP600      0.0000 
      3 O2G       186.7910  211.4380  232.2870 O.co2     1 ATP600      0.0000 
      4 O3G       188.7330  212.9010  231.6160 O.co2     1 ATP600      0.0000 
      5 PB        186.5400  212.4860  229.2990 P.3       1 ATP600      0.0000 
      6 O1B       185.5020  211.6400  228.6390 O.co2     1 ATP600      0.0000 
      7 O2B       186.2180  213.5240  230.3230 O.co2     1 ATP600      0.0000 
      8 O3B       187.5950  211.4920  229.9620 O.3       1 ATP600      0.0000 
      9 PA        187.4780  214.5980  227.6110 P.3       1 ATP600      0.0000 
     10 O1A       186.1310  215.1860  227.3670 O.co2     1 ATP600      0.0000 
     11 O2A       188.4560  215.3400  228.4700 O.co2     1 ATP600      0.0000 
     12 O3A       187.4020  213.0750  228.0940 O.3       1 ATP600      0.0000 
     13 O5'       188.1260  214.2960  226.1940 O.3       1 ATP600      0.0000 
     14 C5'       189.3450  213.5710  226.1130 C.3       1 ATP600      0.0000 
     15 C4'       190.2220  214.2180  225.0570 C.3       1 ATP600      0.0000 
     16 O4'       189.5510  214.1690  223.8040 O.3       1 ATP600      0.0000 
     17 C3'       190.4380  215.6800  225.3880 C.3       1 ATP600      0.0000 
     18 O3'       191.8230  215.9930  225.2940 O.3       1 ATP600      0.0000 
     19 C2'       189.6730  216.4490  224.3390 C.3       1 ATP600      0.0000 
     20 O2'       190.4280  217.5780  223.9360 O.3       1 ATP600      0.0000 
     21 C1'       189.4980  215.4620  223.2090 C.3       1 ATP600      0.0000 
     22 N9        188.1980  215.6550  222.5320 N.pl3     1 ATP600      0.0000 
     23 C8        186.9890  215.6430  223.1020 C.2       1 ATP600      0.0000 
     24 N7        186.0140  215.8420  222.1830 N.2       1 ATP600      0.0000 
     25 C5        186.6060  215.9900  220.9920 C.ar      1 ATP600      0.0000 
     26 C6        186.1860  216.2330  219.6010 C.ar      1 ATP600      0.0000 
     27 N6        184.8880  216.3700  219.2580 N.pl3     1 ATP600      0.0000 
     28 N1        187.1450  216.3180  218.6660 N.ar      1 ATP600      0.0000 
     29 C2        188.4450  216.1920  218.9610 C.ar      1 ATP600      0.0000 
     30 N3        188.8950  215.9690  220.1950 N.ar      1 ATP600      0.0000 
     31 C4        188.0430  215.8670  221.2330 C.ar      1 ATP600      0.0000 
@<TRIPOS>BOND
     1    1    2 ar   
     2    1    3 ar   
     3    1    4 ar   
     4    1    8 1    
     5    5    6 ar   
     6    5    7 ar   
     7    5    8 1    
     8    5   12 1    
     9    9   10 ar   
    10    9   11 ar   
    11    9   12 1    
    12    9   13 1    
    13   13   14 1    
    14   14   15 1    
    15   15   16 1    
    16   15   17 1    
    17   16   21 1    
    18   17   18 1    
    19   17   19 1    
    20   19   20 1    
    21   19   21 1    
    22   21   22 1    
    23   22   23 1    
    24   22   31 1    
    25   23   24 2    
    26   24   25 1    
    27   25   26 ar   
    28   25   31 ar   
    29   26   27 1    
    30   26   28 ar   
    31   28   29 ar   
    32   29   30 ar   
    33   30   31 ar   
@<TRIPOS>SUBSTRUCTURE
     1 ATP600      1 GROUP   
@<TRIPOS>SET
ATOM$ORANGE STATIC     ATOMS   COLORGROUP SYSTEM 
20 14 14 15 15 17 17 19 19 21 21 23 23 25 25 26 26 29 \
29 31 31 

