#    Name: 6fkf_4_ATP
#    Modification time : Fri May 22 19:27:34 2020

@<TRIPOS>MOLECULE
6fkf_4_ATP
   31    33     1     0     1
SMALL
NO_CHARGES


@<TRIPOS>ATOM
      1 PG        205.2510  169.4630  239.0750 P.3       1 ATP600      0.0000 
      2 O1G       204.3330  170.6440  238.9080 O.co2     1 ATP600      0.0000 
      3 O2G       206.2340  169.6210  240.2040 O.co2     1 ATP600      0.0000 
      4 O3G       204.5350  168.1410  239.0560 O.co2     1 ATP600      0.0000 
      5 PB        207.2670  170.4910  237.3410 P.3       1 ATP600      0.0000 
      6 O1B       206.5560  171.6910  236.7970 O.co2     1 ATP600      0.0000 
      7 O2B       208.2480  170.6400  238.4660 O.co2     1 ATP600      0.0000 
      8 O3B       206.1280  169.4230  237.7250 O.3       1 ATP600      0.0000 
      9 PA        209.1080  168.6190  236.3650 P.3       1 ATP600      0.0000 
     10 O1A       210.4750  169.1970  236.5630 O.co2     1 ATP600      0.0000 
     11 O2A       208.5620  167.6590  237.3840 O.co2     1 ATP600      0.0000 
     12 O3A       208.0480  169.8000  236.1250 O.3       1 ATP600      0.0000 
     13 O5'       209.1260  167.9090  234.9430 O.3       1 ATP600      0.0000 
     14 C5'       208.0020  167.1690  234.5030 C.3       1 ATP600      0.0000 
     15 C4'       208.5340  166.2670  233.4090 C.3       1 ATP600      0.0000 
     16 O4'       209.0640  167.0920  232.3780 O.3       1 ATP600      0.0000 
     17 C3'       209.6900  165.4140  233.9050 C.3       1 ATP600      0.0000 
     18 O3'       209.3140  164.0390  233.9380 O.3       1 ATP600      0.0000 
     19 C2'       210.8040  165.6080  232.9040 C.3       1 ATP600      0.0000 
     20 O2'       211.2190  164.3500  232.3750 O.3       1 ATP600      0.0000 
     21 C1'       210.1970  166.4530  231.8040 C.3       1 ATP600      0.0000 
     22 N9        211.1730  167.4470  231.3090 N.pl3     1 ATP600      0.0000 
     23 C8        211.4650  168.6390  231.8520 C.2       1 ATP600      0.0000 
     24 N7        212.4130  169.2860  231.1280 N.2       1 ATP600      0.0000 
     25 C5        212.7340  168.4930  230.0900 C.ar      1 ATP600      0.0000 
     26 C6        213.6560  168.5560  228.9410 C.ar      1 ATP600      0.0000 
     27 N6        214.4570  169.6260  228.7280 N.pl3     1 ATP600      0.0000 
     28 N1        213.6710  167.5010  228.1070 N.ar      1 ATP600      0.0000 
     29 C2        212.8870  166.4280  228.2930 C.ar      1 ATP600      0.0000 
     30 N3        212.0280  166.3080  229.3080 N.ar      1 ATP600      0.0000 
     31 C4        211.9120  167.2890  230.2190 C.ar      1 ATP600      0.0000 
@<TRIPOS>BOND
     1    1    2 ar   
     2    1    3 ar   
     3    1    4 ar   
     4    1    8 1    
     5    5    6 ar   
     6    5    7 ar   
     7    5    8 1    
     8    5   12 1    
     9    9   10 ar   
    10    9   11 ar   
    11    9   12 1    
    12    9   13 1    
    13   13   14 1    
    14   14   15 1    
    15   15   16 1    
    16   15   17 1    
    17   16   21 1    
    18   17   18 1    
    19   17   19 1    
    20   19   20 1    
    21   19   21 1    
    22   21   22 1    
    23   22   23 1    
    24   22   31 1    
    25   23   24 2    
    26   24   25 1    
    27   25   26 ar   
    28   25   31 ar   
    29   26   27 1    
    30   26   28 ar   
    31   28   29 ar   
    32   29   30 ar   
    33   30   31 ar   
@<TRIPOS>SUBSTRUCTURE
     1 ATP600      1 GROUP   
@<TRIPOS>SET
ATOM$ORANGE STATIC     ATOMS   COLORGROUP SYSTEM 
20 14 14 15 15 17 17 19 19 21 21 23 23 25 25 26 26 29 \
29 31 31 

