#    Name: 6fkf_2_ATP
#    Modification time : Fri May 22 19:26:54 2020

@<TRIPOS>MOLECULE
6fkf_2_ATP
   31    33     1     0     1
SMALL
NO_CHARGES


@<TRIPOS>ATOM
      1 PG        158.2190  173.7610  233.8180 P.3       1 ATP600      0.0000 
      2 O1G       157.7190  175.0930  233.3440 O.co2     1 ATP600      0.0000 
      3 O2G       157.5150  173.2250  235.0320 O.co2     1 ATP600      0.0000 
      4 O3G       159.7130  173.6560  233.8690 O.co2     1 ATP600      0.0000 
      5 PB        158.3990  171.2750  232.5710 P.3       1 ATP600      0.0000 
      6 O1B       159.8080  171.3280  232.0670 O.co2     1 ATP600      0.0000 
      7 O2B       158.0670  170.6130  233.8760 O.co2     1 ATP600      0.0000 
      8 O3B       157.8160  172.7660  232.6320 O.3       1 ATP600      0.0000 
      9 PA        156.0000  170.4350  231.2450 P.3       1 ATP600      0.0000 
     10 O1A       155.6190  169.0360  231.6180 O.co2     1 ATP600      0.0000 
     11 O2A       155.2930  171.5860  231.9050 O.co2     1 ATP600      0.0000 
     12 O3A       157.5920  170.5550  231.3910 O.3       1 ATP600      0.0000 
     13 O5'       155.7800  170.5310  229.6630 O.3       1 ATP600      0.0000 
     14 C5'       155.7960  171.7730  228.9730 C.3       1 ATP600      0.0000 
     15 C4'       154.6200  171.7860  228.0090 C.3       1 ATP600      0.0000 
     16 O4'       154.7970  170.8000  227.0060 O.3       1 ATP600      0.0000 
     17 C3'       153.3330  171.4390  228.7240 C.3       1 ATP600      0.0000 
     18 O3'       152.3910  172.4890  228.5250 O.3       1 ATP600      0.0000 
     19 C2'       152.8060  170.1810  228.0810 C.3       1 ATP600      0.0000 
     20 O2'       151.4400  170.3930  227.7420 O.3       1 ATP600      0.0000 
     21 C1'       153.6310  170.0060  226.8220 C.3       1 ATP600      0.0000 
     22 N9        154.0840  168.6130  226.6330 N.pl3     1 ATP600      0.0000 
     23 C8        154.9580  168.0070  227.4410 C.2       1 ATP600      0.0000 
     24 N7        155.2160  166.7470  227.0410 N.2       1 ATP600      0.0000 
     25 C5        154.4930  166.5300  225.9410 C.ar      1 ATP600      0.0000 
     26 C6        154.3000  165.3930  225.0280 C.ar      1 ATP600      0.0000 
     27 N6        154.9490  164.2270  225.2240 N.pl3     1 ATP600      0.0000 
     28 N1        153.4530  165.5600  223.9970 N.ar      1 ATP600      0.0000 
     29 C2        152.7950  166.7160  223.7960 C.ar      1 ATP600      0.0000 
     30 N3        152.9220  167.7910  224.5890 N.ar      1 ATP600      0.0000 
     31 C4        153.7430  167.7610  225.6660 C.ar      1 ATP600      0.0000 
@<TRIPOS>BOND
     1    1    2 ar   
     2    1    3 ar   
     3    1    4 ar   
     4    1    8 1    
     5    5    6 ar   
     6    5    7 ar   
     7    5    8 1    
     8    5   12 1    
     9    9   10 ar   
    10    9   11 ar   
    11    9   12 1    
    12    9   13 1    
    13   13   14 1    
    14   14   15 1    
    15   15   16 1    
    16   15   17 1    
    17   16   21 1    
    18   17   18 1    
    19   17   19 1    
    20   19   20 1    
    21   19   21 1    
    22   21   22 1    
    23   22   23 1    
    24   22   31 1    
    25   23   24 2    
    26   24   25 1    
    27   25   26 ar   
    28   25   31 ar   
    29   26   27 1    
    30   26   28 ar   
    31   28   29 ar   
    32   29   30 ar   
    33   30   31 ar   
@<TRIPOS>SUBSTRUCTURE
     1 ATP600      1 GROUP   
@<TRIPOS>SET
ATOM$ORANGE STATIC     ATOMS   COLORGROUP SYSTEM 
20 14 14 15 15 17 17 19 19 21 21 23 23 25 25 26 26 29 \
29 31 31 

