#    Name: 5oya_6_CAP_CAVITY_N1_6
#    Modification time : Fri May 22 19:16:29 2020

@<TRIPOS>MOLECULE
5oya_6_CAP_CAVITY_N1_6
   79     0     7     0     0
SMALL
NO_CHARGES


@<TRIPOS>ATOM
      1 OG         37.8400   -2.0000   35.2700 O.3       1 SER1        0.0000 
      2 OG         38.0500   -1.7200   36.7300 O.3       1 SER1        0.0000 
      3 OG         39.2200   -0.8500   36.4000 O.3       1 SER1        0.0000 
      4 OG         41.5700    0.9000   35.7200 O.3       1 SER1        0.0000 
      5 OG         40.8700    2.3600   37.0900 O.3       1 SER1        0.0000 
      6 OG         41.7800    1.1700   37.1800 O.3       1 SER1        0.0000 
      7 OG         42.6900   -0.0100   37.2800 O.3       1 SER1        0.0000 
      8 OG         43.6000   -1.2000   37.3700 O.3       1 SER1        0.0000 
      9 OG         43.8600    0.8600   36.9400 O.3       1 SER1        0.0000 
     10 OG         46.3700    1.1000   39.6200 O.3       1 SER1        0.0000 
     11 O          34.5300   -4.3400   37.7400 O.2       2 ALA2        0.0000 
     12 O          34.7900   -2.2800   37.3100 O.2       2 ALA2        0.0000 
     13 O          33.8300   -2.8800   39.1000 O.2       2 ALA2        0.0000 
     14 O          35.0000   -2.0000   38.7700 O.2       2 ALA2        0.0000 
     15 N          39.6900    1.4900   37.4200 N.am      2 ALA2        0.0000 
     16 O          47.0700   -0.3600   38.2500 O.2       2 ALA2        0.0000 
     17 N          47.3300    1.7000   37.8200 N.am      2 ALA2        0.0000 
     18 O          48.2400    0.5100   37.9200 O.2       2 ALA2        0.0000 
     19 O          48.4500    0.7900   39.3700 O.2       2 ALA2        0.0000 
     20 OD1        37.5300   -5.8400   37.5900 O.co2     3 ASP3        0.0000 
     21 OD1        36.8800   -2.6000   37.0700 O.co2     3 ASP3        0.0000 
     22 OD1        37.7900   -3.7800   37.1600 O.co2     3 ASP3        0.0000 
     23 OD1        38.9600   -2.9100   36.8300 O.co2     3 ASP3        0.0000 
     24 OD1        39.8700   -4.1000   36.9200 O.co2     3 ASP3        0.0000 
     25 OD1        40.1300   -2.0400   36.4900 O.co2     3 ASP3        0.0000 
     26 OD1        41.0500   -3.2300   36.5800 O.co2     3 ASP3        0.0000 
     27 OD1        41.3100   -1.1600   36.1500 O.co2     3 ASP3        0.0000 
     28 OD1        34.7400   -4.0600   39.2000 O.co2     3 ASP3        0.0000 
     29 OD1        35.6500   -5.2500   39.2900 O.co2     3 ASP3        0.0000 
     30 OD1        35.9200   -3.1900   38.8600 O.co2     3 ASP3        0.0000 
     31 OD1        40.0800   -3.8200   38.3800 O.co2     3 ASP3        0.0000 
     32 OD1        41.0000   -5.0100   38.4700 O.co2     3 ASP3        0.0000 
     33 OD1        41.2600   -2.9500   38.0400 O.co2     3 ASP3        0.0000 
     34 OD1        42.1700   -4.1400   38.1400 O.co2     3 ASP3        0.0000 
     35 OD1        34.9500   -3.7900   40.6600 O.co2     3 ASP3        0.0000 
     36 NZ         40.4000    0.0200   36.0600 N.4       4 LYS4        0.0000 
     37 NZ         42.2200   -2.3500   36.2500 N.4       4 LYS4        0.0000 
     38 NZ         44.3000   -2.6700   36.0100 N.4       4 LYS4        0.0000 
     39 NZ         42.4300   -2.0700   37.7100 N.4       4 LYS4        0.0000 
     40 NZ         43.3400   -3.2600   37.8000 N.4       4 LYS4        0.0000 
     41 NZ         44.5100   -2.3900   37.4700 N.4       4 LYS4        0.0000 
     42 CZ         44.7700   -0.3300   37.0300 C.ar      5 PHE5        0.0000 
     43 CZ         45.6900   -1.5200   37.1300 C.ar      5 PHE5        0.0000 
     44 CZ         45.9500    0.5400   36.7000 C.ar      5 PHE5        0.0000 
     45 CA         36.6700   -2.8700   35.6100 C.3       6 GLY6        0.0000 
     46 CA         34.2700   -6.4000   38.1700 C.3       6 GLY6        0.0000 
     47 CA         35.4400   -5.5300   37.8300 C.3       6 GLY6        0.0000 
     48 CA         36.3600   -6.7200   37.9300 C.3       6 GLY6        0.0000 
     49 CA         35.7000   -3.4700   37.4000 C.3       6 GLY6        0.0000 
     50 CA         36.6200   -4.6600   37.5000 C.3       6 GLY6        0.0000 
     51 CA         35.9700   -1.4100   36.9700 C.3       6 GLY6        0.0000 
     52 CA         46.3900   -2.9800   35.7600 C.3       6 GLY6        0.0000 
     53 CA         33.5700   -4.9400   39.5300 C.3       6 GLY6        0.0000 
     54 CA         38.2600   -1.4500   38.1900 C.3       6 GLY6        0.0000 
     55 CA         39.4300   -0.5700   37.8500 C.3       6 GLY6        0.0000 
     56 CA         40.3400   -1.7600   37.9500 C.3       6 GLY6        0.0000 
     57 CA         40.6100    0.3000   37.5200 C.3       6 GLY6        0.0000 
     58 CA         46.8600   -0.6400   36.7900 C.3       6 GLY6        0.0000 
     59 CA         40.5600   -1.4800   39.4100 C.3       6 GLY6        0.0000 
     60 CA         41.4700   -2.6700   39.5000 C.3       6 GLY6        0.0000 
     61 CA         41.7300   -0.6100   39.0700 C.3       6 GLY6        0.0000 
     62 CA         42.6400   -1.8000   39.1700 C.3       6 GLY6        0.0000 
     63 CA         41.9900    1.4500   38.6400 C.3       6 GLY6        0.0000 
     64 CA         42.9000    0.2600   38.7400 C.3       6 GLY6        0.0000 
     65 CA         43.8100   -0.9200   38.8300 C.3       6 GLY6        0.0000 
     66 CA         45.2500    2.0100   38.0600 C.3       6 GLY6        0.0000 
     67 CA         41.6800   -2.3900   40.9600 C.3       6 GLY6        0.0000 
     68 CA         45.2000    0.2300   39.9500 C.3       6 GLY6        0.0000 
     69 CA         45.4100    0.5100   41.4100 C.3       6 GLY6        0.0000 
     70 CA         47.4900    0.1900   41.1700 C.3       6 GLY6        0.0000 
     71 DU         41.5200   -0.8900   37.6100 H         7 CUB7        0.0000 
     72 DU         43.5500   -2.9800   39.2600 H         7 CUB7        0.0000 
     73 DU         44.7200   -2.1100   38.9200 H         7 CUB7        0.0000 
     74 DU         44.0700    1.1400   38.4000 H         7 CUB7        0.0000 
     75 DU         44.9900   -0.0500   38.4900 H         7 CUB7        0.0000 
     76 DU         45.9000   -1.2400   38.5900 H         7 CUB7        0.0000 
     77 DU         46.1600    0.8200   38.1600 H         7 CUB7        0.0000 
     78 DU         46.1100   -0.9600   40.0500 H         7 CUB7        0.0000 
     79 DU         47.2800   -0.0900   39.7100 H         7 CUB7        0.0000 
@<TRIPOS>BOND
@<TRIPOS>SUBSTRUCTURE
     1 SER1        1 GROUP   
     2 ALA2       11 GROUP   
     3 ASP3       20 GROUP   
     4 LYS4       36 GROUP   
     5 PHE5       42 GROUP   
     6 GLY6       45 GROUP   
     7 CUB7       71 GROUP   
@<TRIPOS>SET

