#    Name: 5oya_6_CAP
#    Modification time : Fri May 22 19:16:28 2020

@<TRIPOS>MOLECULE
5oya_6_CAP
   21    20     1     0     0
SMALL
NO_CHARGES


@<TRIPOS>ATOM
      1 C1         37.8590   -1.7770   36.6910 C.3       1 CAP502      0.0000 
      2 C2         39.1800   -2.0650   35.9700 C.3       1 CAP502      0.0000 
      3 C3         40.0200   -0.7810   35.8580 C.3       1 CAP502      0.0000 
      4 C4         40.4620   -0.1410   37.1980 C.3       1 CAP502      0.0000 
      5 C5         41.8080    0.5730   37.1340 C.3       1 CAP502      0.0000 
      6 C          39.9720   -3.1450   36.6740 C.2       1 CAP502      0.0000 
      7 O1         36.9430   -2.8830   36.6970 O.3       1 CAP502      0.0000 
      8 O2         38.9010   -2.5460   34.6240 O.3       1 CAP502      0.0000 
      9 O3         41.1570   -1.0700   35.0290 O.3       1 CAP502      0.0000 
     10 O4         39.4720    0.8080   37.5650 O.3       1 CAP502      0.0000 
     11 O5         42.0300    1.3280   38.3310 O.3       1 CAP502      0.0000 
     12 O6         40.7800   -3.8290   35.9730 O.co2     1 CAP502      0.0000 
     13 O7         39.7830   -3.3190   37.9140 O.co2     1 CAP502      0.0000 
     14 P1         35.5310   -2.6690   37.4570 P.3       1 CAP502      0.0000 
     15 P2         42.3140    2.9160   38.3010 P.3       1 CAP502      0.0000 
     16 O1P        34.8670   -1.4600   36.8570 O.co2     1 CAP502      0.0000 
     17 O2P        35.9210   -2.4390   38.9190 O.co2     1 CAP502      0.0000 
     18 O3P        34.7550   -3.9390   37.2520 O.co2     1 CAP502      0.0000 
     19 O4P        41.1110    3.5040   37.5790 O.co2     1 CAP502      0.0000 
     20 O5P        42.4020    3.3020   39.7790 O.co2     1 CAP502      0.0000 
     21 O6P        43.6230    3.0370   37.5870 O.co2     1 CAP502      0.0000 
@<TRIPOS>BOND
     1    1    2 1    
     2    1    7 1    
     3    2    3 1    
     4    2    6 1    
     5    2    8 1    
     6    3    4 1    
     7    3    9 1    
     8    4    5 1    
     9    4   10 1    
    10    5   11 1    
    11    6   12 ar   
    12    6   13 ar   
    13    7   14 1    
    14   11   15 1    
    15   14   16 ar   
    16   14   17 ar   
    17   14   18 ar   
    18   15   19 ar   
    19   15   20 ar   
    20   15   21 ar   
@<TRIPOS>SUBSTRUCTURE
     1 CAP502      1 GROUP   
@<TRIPOS>SET

