#    Name: 5oya_7_CAP
#    Modification time : Fri May 22 19:16:35 2020

@<TRIPOS>MOLECULE
5oya_7_CAP
   21    20     1     0     0
SMALL
NO_CHARGES


@<TRIPOS>ATOM
      1 C1         20.7110    5.2890  146.8390 C.3       1 CAP502      0.0000 
      2 C2         19.3920    5.5830  146.1320 C.3       1 CAP502      0.0000 
      3 C3         18.5320    4.3170  146.0070 C.3       1 CAP502      0.0000 
      4 C4         18.0910    3.6900  147.3500 C.3       1 CAP502      0.0000 
      5 C5         16.7710    2.9400  147.2510 C.3       1 CAP502      0.0000 
      6 C          18.6270    6.6620  146.8510 C.2       1 CAP502      0.0000 
      7 O1         21.5700    6.4320  146.8660 O.3       1 CAP502      0.0000 
      8 O2         19.6940    6.0790  144.8040 O.3       1 CAP502      0.0000 
      9 O3         17.3820    4.6370  145.1890 O.3       1 CAP502      0.0000 
     10 O4         19.1120    2.7960  147.7650 O.3       1 CAP502      0.0000 
     11 O5         16.5100    2.2070  148.4480 O.3       1 CAP502      0.0000 
     12 O6         17.8180    7.3420  146.1670 O.co2     1 CAP502      0.0000 
     13 O7         18.8130    6.8260  148.0980 O.co2     1 CAP502      0.0000 
     14 P1         23.0240    6.2320  147.5840 P.3       1 CAP502      0.0000 
     15 P2         16.2120    0.6320  148.4180 P.3       1 CAP502      0.0000 
     16 O1P        23.7010    5.0300  146.9910 O.co2     1 CAP502      0.0000 
     17 O2P        22.6420    5.9590  149.0280 O.co2     1 CAP502      0.0000 
     18 O3P        23.7490    7.5170  147.3300 O.co2     1 CAP502      0.0000 
     19 O4P        17.4010    0.0250  147.7090 O.co2     1 CAP502      0.0000 
     20 O5P        14.8750    0.5270  147.7370 O.co2     1 CAP502      0.0000 
     21 O6P        16.0840    0.2240  149.8890 O.co2     1 CAP502      0.0000 
@<TRIPOS>BOND
     1    1    2 1    
     2    1    7 1    
     3    2    3 1    
     4    2    6 1    
     5    2    8 1    
     6    3    4 1    
     7    3    9 1    
     8    4    5 1    
     9    4   10 1    
    10    5   11 1    
    11    6   12 ar   
    12    6   13 ar   
    13    7   14 1    
    14   11   15 1    
    15   14   16 ar   
    16   14   17 ar   
    17   14   18 ar   
    18   15   19 ar   
    19   15   20 ar   
    20   15   21 ar   
@<TRIPOS>SUBSTRUCTURE
     1 CAP502      1 GROUP   
@<TRIPOS>SET

