#    Name: 5oya_7_CAP_CAVITY_N1_ALL
#    Modification time : Fri May 22 19:16:36 2020

@<TRIPOS>MOLECULE
5oya_7_CAP_CAVITY_N1_ALL
   89     0     7     0     0
SMALL
NO_CHARGES


@<TRIPOS>ATOM
      1 OG         14.7900    2.4700  147.2600 O.3       1 SER1        0.0000 
      2 OG         15.7000    1.2800  147.3600 O.3       1 SER1        0.0000 
      3 OG         15.0500    4.5300  146.8300 O.3       1 SER1        0.0000 
      4 OG         15.9600    3.3400  146.9200 O.3       1 SER1        0.0000 
      5 OG         16.8700    2.1600  147.0200 O.3       1 SER1        0.0000 
      6 OG         17.1300    4.2200  146.5900 O.3       1 SER1        0.0000 
      7 OG         18.0400    3.0300  146.6800 O.3       1 SER1        0.0000 
      8 OG         19.2200    3.9000  146.3500 O.3       1 SER1        0.0000 
      9 OG         20.3900    4.7700  146.0100 O.3       1 SER1        0.0000 
     10 OG         21.5600    5.6500  145.6800 O.3       1 SER1        0.0000 
     11 OG         11.7400    2.1900  149.3000 O.3       1 SER1        0.0000 
     12 O          10.6200    3.1000  147.7400 O.2       2 ALA2        0.0000 
     13 N          11.5300    1.9100  147.8400 N.am      2 ALA2        0.0000 
     14 O          10.8800    5.1600  147.3100 O.2       2 ALA2        0.0000 
     15 O           9.9200    4.5600  149.1100 O.2       2 ALA2        0.0000 
     16 O          10.8300    3.3800  149.2000 O.2       2 ALA2        0.0000 
     17 O          22.9000    5.0200  148.6900 O.2       2 ALA2        0.0000 
     18 O          24.0700    5.8900  148.3500 O.2       2 ALA2        0.0000 
     19 O          24.2800    6.1700  149.8100 O.2       2 ALA2        0.0000 
     20 O          24.5400    8.2300  149.3800 O.2       2 ALA2        0.0000 
     21 O          25.4500    7.0400  149.4700 O.2       2 ALA2        0.0000 
     22 OD1        18.3100    5.0900  146.2500 O.co2     3 ASP3        0.0000 
     23 OD1        19.4800    5.9600  145.9200 O.co2     3 ASP3        0.0000 
     24 OD1        13.8300    1.8700  149.0600 O.co2     3 ASP3        0.0000 
     25 OD1        16.6900    7.7400  147.5200 O.co2     3 ASP3        0.0000 
     26 OD1        17.6100    6.5500  147.6200 O.co2     3 ASP3        0.0000 
     27 OD1        18.5200    5.3700  147.7100 O.co2     3 ASP3        0.0000 
     28 OD1        18.7800    7.4300  147.2800 O.co2     3 ASP3        0.0000 
     29 OD1        19.6900    6.2400  147.3800 O.co2     3 ASP3        0.0000 
     30 OD1        20.8600    7.1100  147.0400 O.co2     3 ASP3        0.0000 
     31 OD1        21.7700    5.9300  147.1300 O.co2     3 ASP3        0.0000 
     32 OD1        16.9000    8.0200  148.9800 O.co2     3 ASP3        0.0000 
     33 OD1        17.8200    6.8300  149.0800 O.co2     3 ASP3        0.0000 
     34 OD1        18.0800    8.8900  148.6500 O.co2     3 ASP3        0.0000 
     35 OD1        19.2500    9.7700  148.3100 O.co2     3 ASP3        0.0000 
     36 OD1        21.9800    6.2000  148.5900 O.co2     3 ASP3        0.0000 
     37 OD1        21.3300    9.4500  148.0700 O.co2     3 ASP3        0.0000 
     38 OD1        22.2500    8.2600  148.1600 O.co2     3 ASP3        0.0000 
     39 OD1        23.1600    7.0800  148.2600 O.co2     3 ASP3        0.0000 
     40 OD1        23.3700    7.3500  149.7200 O.co2     3 ASP3        0.0000 
     41 OD1        23.6300    9.4200  149.2900 O.co2     3 ASP3        0.0000 
     42 OD1        22.6700    8.8200  151.0800 O.co2     3 ASP3        0.0000 
     43 OD1        23.5800    7.6300  151.1700 O.co2     3 ASP3        0.0000 
     44 NZ         13.2300    6.9100  146.6400 N.4       4 LYS4        0.0000 
     45 NZ         14.1400    5.7200  146.7400 N.4       4 LYS4        0.0000 
     46 NZ         16.2200    5.4000  146.4900 N.4       4 LYS4        0.0000 
     47 NZ         15.5200    6.8700  147.8600 N.4       4 LYS4        0.0000 
     48 CZ         12.7000    2.7800  147.5000 C.ar      5 PHE5        0.0000 
     49 CZ         12.0500    6.0300  146.9800 C.ar      5 PHE5        0.0000 
     50 CZ         12.9700    4.8500  147.0700 C.ar      5 PHE5        0.0000 
     51 CZ         13.8800    3.6600  147.1700 C.ar      5 PHE5        0.0000 
     52 CA         11.7900    3.9700  147.4100 C.3       6 GLY6        0.0000 
     53 CA         13.6200    1.6000  147.6000 C.3       6 GLY6        0.0000 
     54 CA          7.8400    4.8800  149.3500 C.3       6 GLY6        0.0000 
     55 CA          8.7500    3.6900  149.4400 C.3       6 GLY6        0.0000 
     56 CA         15.0000    2.7500  148.7200 C.3       6 GLY6        0.0000 
     57 CA         15.9100    1.5600  148.8100 C.3       6 GLY6        0.0000 
     58 CA         16.1700    3.6200  148.3800 C.3       6 GLY6        0.0000 
     59 CA         17.0800    2.4300  148.4800 C.3       6 GLY6        0.0000 
     60 CA         17.3400    4.4900  148.0500 C.3       6 GLY6        0.0000 
     61 CA         18.2600    3.3100  148.1400 C.3       6 GLY6        0.0000 
     62 CA         19.4300    4.1800  147.8100 C.3       6 GLY6        0.0000 
     63 CA         20.6000    5.0500  147.4700 C.3       6 GLY6        0.0000 
     64 CA         22.6800    4.7400  147.2300 C.3       6 GLY6        0.0000 
     65 CA         22.9500    6.8000  146.8000 C.3       6 GLY6        0.0000 
     66 CA          8.9600    3.9700  150.9000 C.3       6 GLY6        0.0000 
     67 CA         10.1300    4.8400  150.5700 C.3       6 GLY6        0.0000 
     68 CA         11.0400    3.6500  150.6600 C.3       6 GLY6        0.0000 
     69 CA         13.1300    3.3400  150.4200 C.3       6 GLY6        0.0000 
     70 CA         14.3000    4.2100  150.0800 C.3       6 GLY6        0.0000 
     71 CA         15.4700    5.0900  149.7500 C.3       6 GLY6        0.0000 
     72 CA         16.6400    5.9600  149.4100 C.3       6 GLY6        0.0000 
     73 CA         17.5600    4.7700  149.5100 C.3       6 GLY6        0.0000 
     74 CA         22.5100   10.3300  147.7300 C.3       6 GLY6        0.0000 
     75 CA         23.4200    9.1400  147.8300 C.3       6 GLY6        0.0000 
     76 CA         24.8000   10.2900  148.9500 C.3       6 GLY6        0.0000 
     77 CA         25.6600    7.3200  150.9300 C.3       6 GLY6        0.0000 
     78 CA         25.9200    9.3800  150.5000 C.3       6 GLY6        0.0000 
     79 CA         23.7900    7.9100  152.6300 C.3       6 GLY6        0.0000 
     80 DU         12.0000    4.2500  148.8700 H         7 CUB7        0.0000 
     81 DU         12.9200    3.0600  148.9600 H         7 CUB7        0.0000 
     82 DU         13.1800    5.1200  148.5300 H         7 CUB7        0.0000 
     83 DU         14.0900    3.9400  148.6300 H         7 CUB7        0.0000 
     84 DU         14.3500    6.0000  148.1900 H         7 CUB7        0.0000 
     85 DU         15.2600    4.8100  148.2900 H         7 CUB7        0.0000 
     86 DU         16.4300    5.6800  147.9500 H         7 CUB7        0.0000 
     87 DU         12.2100    4.5300  150.3300 H         7 CUB7        0.0000 
     88 DU         24.7500    8.5100  150.8400 H         7 CUB7        0.0000 
     89 DU         24.9600    8.7800  152.3000 H         7 CUB7        0.0000 
@<TRIPOS>BOND
@<TRIPOS>SUBSTRUCTURE
     1 SER1        1 GROUP   
     2 ALA2       12 GROUP   
     3 ASP3       22 GROUP   
     4 LYS4       44 GROUP   
     5 PHE5       48 GROUP   
     6 GLY6       52 GROUP   
     7 CUB7       80 GROUP   
@<TRIPOS>SET

