#    Name: 6tkv_1_GDP
#    Modification time : Fri May 22 19:36:37 2020

@<TRIPOS>MOLECULE
6tkv_1_GDP
   28    30     1     0     1
SMALL
NO_CHARGES


@<TRIPOS>ATOM
      1 PB         34.0290   -9.4100   17.7370 P.3       1 GDP601      0.0000 
      2 O1B        32.6910   -9.9190   17.1060 O.co2     1 GDP601      0.0000 
      3 O2B        33.7180   -8.4090   18.7940 O.co2     1 GDP601      0.0000 
      4 O3B        34.9370  -10.5680   18.0960 O.co2     1 GDP601      0.0000 
      5 O3A        34.5670   -8.5920   16.4780 O.3       1 GDP601      0.0000 
      6 PA         36.0750   -8.4420   15.7790 P.3       1 GDP601      0.0000 
      7 O1A        35.7820   -7.9230   14.4000 O.co2     1 GDP601      0.0000 
      8 O2A        37.0290   -7.6660   16.6600 O.co2     1 GDP601      0.0000 
      9 O5'        36.6270   -9.9600   15.5770 O.3       1 GDP601      0.0000 
     10 C5'        35.7500  -10.9790   15.0400 C.3       1 GDP601      0.0000 
     11 C4'        36.1180  -11.3450   13.6380 C.3       1 GDP601      0.0000 
     12 O4'        35.4600  -12.5740   13.2700 O.3       1 GDP601      0.0000 
     13 C3'        35.7860  -10.3270   12.5400 C.3       1 GDP601      0.0000 
     14 O3'        36.7090   -9.2200   12.4410 O.3       1 GDP601      0.0000 
     15 C2'        35.7970  -11.2320   11.3490 C.3       1 GDP601      0.0000 
     16 O2'        37.1950  -11.4130   11.0720 O.3       1 GDP601      0.0000 
     17 C1'        35.1380  -12.5060   11.8780 C.3       1 GDP601      0.0000 
     18 N9         33.6650  -12.4000   11.8050 N.pl3     1 GDP601      0.0000 
     19 C8         32.7600  -12.3530   12.8510 C.2       1 GDP601      0.0000 
     20 N7         31.4900  -12.1910   12.3720 N.2       1 GDP601      0.0000 
     21 C5         31.6590  -12.1590   11.0290 C.2       1 GDP601      0.0000 
     22 C6         30.7450  -12.0210    9.9300 C.2       1 GDP601      0.0000 
     23 O6         29.4980  -11.8770   10.2180 O.2       1 GDP601      0.0000 
     24 N1         31.2650  -12.0190    8.6890 N.am      1 GDP601      0.0000 
     25 C2         32.5520  -12.1070    8.4090 C.2       1 GDP601      0.0000 
     26 N2         32.8400  -12.0650    7.1370 N.pl3     1 GDP601      0.0000 
     27 N3         33.4860  -12.2530    9.3550 N.2       1 GDP601      0.0000 
     28 C4         33.0560  -12.2530   10.6530 C.2       1 GDP601      0.0000 
@<TRIPOS>BOND
     1    1    2 ar   
     2    1    3 ar   
     3    1    4 ar   
     4    1    5 1    
     5    5    6 1    
     6    6    7 ar   
     7    6    8 ar   
     8    6    9 1    
     9    9   10 1    
    10   10   11 1    
    11   11   12 1    
    12   11   13 1    
    13   12   17 1    
    14   13   14 1    
    15   13   15 1    
    16   15   16 1    
    17   15   17 1    
    18   17   18 1    
    19   18   19 1    
    20   18   28 1    
    21   19   20 2    
    22   20   21 1    
    23   21   22 1    
    24   21   28 2    
    25   22   23 2    
    26   22   24 am   
    27   24   25 1    
    28   25   26 1    
    29   25   27 2    
    30   27   28 1    
@<TRIPOS>SUBSTRUCTURE
     1 GDP601      1 GROUP   
@<TRIPOS>SET
ATOM$ORANGE STATIC     ATOMS   COLORGROUP SYSTEM 
20 10 10 11 11 13 13 15 15 17 17 19 19 21 21 22 22 25 \
25 28 28 

