#    Name: 6tkv_2_GDP
#    Modification time : Fri May 22 19:36:43 2020

@<TRIPOS>MOLECULE
6tkv_2_GDP
   28    30     1     0     1
SMALL
NO_CHARGES


@<TRIPOS>ATOM
      1 PB         28.1980   22.0120  -31.4010 P.3       1 GDP601      0.0000 
      2 O1B        27.0640   21.9350  -32.4760 O.co2     1 GDP601      0.0000 
      3 O2B        28.1550   21.1950  -30.1500 O.co2     1 GDP601      0.0000 
      4 O3B        29.6870   21.8880  -31.9560 O.co2     1 GDP601      0.0000 
      5 O3A        28.0170   23.6210  -31.0010 O.3       1 GDP601      0.0000 
      6 PA         29.2200   24.8110  -31.0230 P.3       1 GDP601      0.0000 
      7 O1A        28.7190   26.1970  -31.4470 O.co2     1 GDP601      0.0000 
      8 O2A        30.0350   24.7800  -29.7260 O.co2     1 GDP601      0.0000 
      9 O5'        30.0550   24.2200  -32.3040 O.3       1 GDP601      0.0000 
     10 C5'        29.4230   24.1970  -33.6060 C.3       1 GDP601      0.0000 
     11 C4'        29.7580   25.4490  -34.4360 C.3       1 GDP601      0.0000 
     12 O4'        30.0340   25.0790  -35.8160 O.3       1 GDP601      0.0000 
     13 C3'        28.6330   26.4930  -34.4990 C.3       1 GDP601      0.0000 
     14 O3'        28.7430   27.5640  -33.5710 O.3       1 GDP601      0.0000 
     15 C2'        28.8270   27.0580  -35.8740 C.3       1 GDP601      0.0000 
     16 O2'        29.9100   28.0010  -35.8450 O.3       1 GDP601      0.0000 
     17 C1'        29.1190   25.7830  -36.6590 C.3       1 GDP601      0.0000 
     18 N9         27.8270   25.0220  -36.8380 N.pl3     1 GDP601      0.0000 
     19 C8         27.4770   23.7630  -36.4210 C.2       1 GDP601      0.0000 
     20 N7         26.1690   23.4780  -36.7600 N.2       1 GDP601      0.0000 
     21 C5         25.6820   24.5630  -37.3840 C.2       1 GDP601      0.0000 
     22 C6         24.4330   24.9780  -38.0220 C.2       1 GDP601      0.0000 
     23 O6         23.4500   24.2660  -38.1300 O.2       1 GDP601      0.0000 
     24 N1         24.3240   26.1580  -38.5370 N.am      1 GDP601      0.0000 
     25 C2         25.3190   27.0070  -38.5340 C.2       1 GDP601      0.0000 
     26 N2         25.1040   28.1920  -39.1080 N.pl3     1 GDP601      0.0000 
     27 N3         26.5110   26.7210  -38.0100 N.2       1 GDP601      0.0000 
     28 C4         26.7450   25.5460  -37.4320 C.2       1 GDP601      0.0000 
@<TRIPOS>BOND
     1    1    2 ar   
     2    1    3 ar   
     3    1    4 ar   
     4    1    5 1    
     5    5    6 1    
     6    6    7 ar   
     7    6    8 ar   
     8    6    9 1    
     9    9   10 1    
    10   10   11 1    
    11   11   12 1    
    12   11   13 1    
    13   12   17 1    
    14   13   14 1    
    15   13   15 1    
    16   15   16 1    
    17   15   17 1    
    18   17   18 1    
    19   18   19 1    
    20   18   28 1    
    21   19   20 2    
    22   20   21 1    
    23   21   22 1    
    24   21   28 2    
    25   22   23 2    
    26   22   24 am   
    27   24   25 1    
    28   25   26 1    
    29   25   27 2    
    30   27   28 1    
@<TRIPOS>SUBSTRUCTURE
     1 GDP601      1 GROUP   
@<TRIPOS>SET
ATOM$ORANGE STATIC     ATOMS   COLORGROUP SYSTEM 
20 10 10 11 11 13 13 15 15 17 17 19 19 21 21 22 22 25 \
25 28 28 

