#    Name: 6tkv_1_GDP_CAVITY_N1_8
#    Modification time : Fri May 22 19:36:39 2020

@<TRIPOS>MOLECULE
6tkv_1_GDP_CAVITY_N1_8
   71     0     6     0     0
SMALL
NO_CHARGES


@<TRIPOS>ATOM
      1 OG         31.2700  -11.8000   10.1400 O.3       1 SER1        0.0000 
      2 OG         31.8600  -11.1400   11.3500 O.3       1 SER1        0.0000 
      3 OG         31.3700  -12.2700   12.2000 O.3       1 SER1        0.0000 
      4 OG         36.8100  -11.5900   11.0200 O.3       1 SER1        0.0000 
      5 OG         36.1200  -10.1900   12.4600 O.3       1 SER1        0.0000 
      6 O          30.7700  -12.9300   10.9900 O.2       2 ALA2        0.0000 
      7 O          36.7100   -9.5400   13.6800 O.2       2 ALA2        0.0000 
      8 O          34.2400   -8.5300   16.2000 O.2       2 ALA2        0.0000 
      9 O          36.0200   -8.1400   15.1200 O.2       2 ALA2        0.0000 
     10 OD1        35.7200  -13.3700   10.6600 O.co2     3 ASP3        0.0000 
     11 OD1        33.2400  -12.3600   13.1900 O.co2     3 ASP3        0.0000 
     12 OD1        32.7400  -13.4900   14.0400 O.co2     3 ASP3        0.0000 
     13 OD1        34.5300  -13.1000   12.9600 O.co2     3 ASP3        0.0000 
     14 OD1        33.8400  -11.7100   14.4000 O.co2     3 ASP3        0.0000 
     15 OD1        35.1200  -12.4500   14.1700 O.co2     3 ASP3        0.0000 
     16 OD1        34.4300  -11.0500   15.6100 O.co2     3 ASP3        0.0000 
     17 OD1        35.7100  -11.7900   15.3800 O.co2     3 ASP3        0.0000 
     18 OD1        33.7400   -9.6600   17.0500 O.co2     3 ASP3        0.0000 
     19 OD1        35.0200  -10.4000   16.8200 O.co2     3 ASP3        0.0000 
     20 OD1        36.3100  -11.1400   16.6000 O.co2     3 ASP3        0.0000 
     21 OD1        34.3300   -9.0000   18.2700 O.co2     3 ASP3        0.0000 
     22 OD1        35.6100   -9.7400   18.0400 O.co2     3 ASP3        0.0000 
     23 OD1        35.1100  -10.8700   18.8900 O.co2     3 ASP3        0.0000 
     24 OD1        36.4000  -11.6100   18.6600 O.co2     3 ASP3        0.0000 
     25 OD1        35.9000  -12.7400   19.5100 O.co2     3 ASP3        0.0000 
     26 NZ         30.6800  -12.4500    8.9200 N.4       4 LYS4        0.0000 
     27 NZ         37.6800  -12.3600   18.4300 N.4       4 LYS4        0.0000 
     28 NZ         37.1800  -13.4800   19.2900 N.4       4 LYS4        0.0000 
     29 NZ         38.9700  -13.1000   18.2000 N.4       4 LYS4        0.0000 
     30 NZ         36.9900  -10.9600   19.8700 N.4       4 LYS4        0.0000 
     31 NZ         36.4900  -12.0900   20.7300 N.4       4 LYS4        0.0000 
     32 NZ         37.7800  -12.8300   20.5000 N.4       4 LYS4        0.0000 
     33 NZ         37.2800  -13.9600   21.3500 N.4       4 LYS4        0.0000 
     34 NZ         39.0600  -13.5700   20.2700 N.4       4 LYS4        0.0000 
     35 NZ         38.8700  -11.0500   20.8600 N.4       4 LYS4        0.0000 
     36 NZ         38.3700  -12.1800   21.7100 N.4       4 LYS4        0.0000 
     37 NZ         37.8700  -13.3000   22.5600 N.4       4 LYS4        0.0000 
     38 CA         31.9600  -13.1900    8.6900 C.3       5 GLY6        0.0000 
     39 CA         31.7700  -10.6700    9.2800 C.3       5 GLY6        0.0000 
     40 CA         33.0600  -11.4100    9.0500 C.3       5 GLY6        0.0000 
     41 CA         32.5600  -12.5400    9.9100 C.3       5 GLY6        0.0000 
     42 CA         32.0600  -13.6700   10.7600 C.3       5 GLY6        0.0000 
     43 CA         34.3400  -12.1500    8.8300 C.3       5 GLY6        0.0000 
     44 CA         32.3600  -10.0200   10.5000 C.3       5 GLY6        0.0000 
     45 CA         33.6500  -10.7600   10.2700 C.3       5 GLY6        0.0000 
     46 CA         32.6500  -13.0100   11.9700 C.3       5 GLY6        0.0000 
     47 CA         34.9300  -11.5000   10.0400 C.3       5 GLY6        0.0000 
     48 CA         34.4300  -12.6300   10.8900 C.3       5 GLY6        0.0000 
     49 CA         33.9300  -13.7600   11.7400 C.3       5 GLY6        0.0000 
     50 CA         36.2200  -12.2400    9.8100 C.3       5 GLY6        0.0000 
     51 CA         31.9600  -11.6200   13.4100 C.3       5 GLY6        0.0000 
     52 CA         34.2400  -10.1000   11.4800 C.3       5 GLY6        0.0000 
     53 CA         33.7400  -11.2300   12.3300 C.3       5 GLY6        0.0000 
     54 CA         35.5300  -10.8400   11.2500 C.3       5 GLY6        0.0000 
     55 CA         36.3100  -12.7100   11.8800 C.3       5 GLY6        0.0000 
     56 CA         34.3300  -10.5800   13.5500 C.3       5 GLY6        0.0000 
     57 CA         36.9000  -12.0600   13.0900 C.3       5 GLY6        0.0000 
     58 CA         35.4300   -8.8000   13.9100 C.3       5 GLY6        0.0000 
     59 CA         34.9300   -9.9200   14.7600 C.3       5 GLY6        0.0000 
     60 CA         37.3000   -8.8800   14.8900 C.3       5 GLY6        0.0000 
     61 CA         36.8000  -10.0100   15.7400 C.3       5 GLY6        0.0000 
     62 CA         34.8300   -7.8700   17.4100 C.3       5 GLY6        0.0000 
     63 CA         36.1100   -8.6200   17.1800 C.3       5 GLY6        0.0000 
     64 DU         33.1500  -11.8900   11.1200 H         6 CUB7        0.0000 
     65 DU         35.0300  -11.9700   12.1000 H         6 CUB7        0.0000 
     66 DU         35.6200  -11.3200   13.3200 H         6 CUB7        0.0000 
     67 DU         36.2100  -10.6700   14.5300 H         6 CUB7        0.0000 
     68 DU         35.5200   -9.2700   15.9700 H         6 CUB7        0.0000 
     69 DU         38.2800  -11.7000   19.6500 H         6 CUB7        0.0000 
     70 DU         39.5600  -12.4400   19.4200 H         6 CUB7        0.0000 
     71 DU         40.1500  -11.7900   20.6300 H         6 CUB7        0.0000 
@<TRIPOS>BOND
@<TRIPOS>SUBSTRUCTURE
     1 SER1        1 GROUP   
     2 ALA2        6 GROUP   
     3 ASP3       10 GROUP   
     4 LYS4       26 GROUP   
     5 GLY6       38 GROUP   
     6 CUB7       64 GROUP   
@<TRIPOS>SET

