#    Name: 6mmo_4_AMP
#    Modification time : Fri May 22 19:28:32 2020

@<TRIPOS>MOLECULE
6mmo_4_AMP
   23    25     1     0     1
SMALL
NO_CHARGES


@<TRIPOS>ATOM
      1 P          34.9230  -24.0610  -21.1730 P.3       1 AMP202      0.0000 
      2 O1P        34.6890  -24.0870  -22.6730 O.co2     1 AMP202      0.0000 
      3 O2P        34.6030  -25.3220  -20.3910 O.co2     1 AMP202      0.0000 
      4 O3P        36.2520  -23.4670  -20.7710 O.co2     1 AMP202      0.0000 
      5 O5'        33.8670  -22.9910  -20.6160 O.3       1 AMP202      0.0000 
      6 C5'        32.4940  -23.0110  -21.0020 C.3       1 AMP202      0.0000 
      7 C4'        31.8610  -21.6480  -20.8590 C.3       1 AMP202      0.0000 
      8 O4'        32.3060  -21.0170  -19.6220 O.3       1 AMP202      0.0000 
      9 C3'        32.2280  -20.6300  -21.9240 C.3       1 AMP202      0.0000 
     10 O3'        31.5410  -20.8140  -23.1500 O.3       1 AMP202      0.0000 
     11 C2'        31.9230  -19.3110  -21.2330 C.3       1 AMP202      0.0000 
     12 O2'        30.5090  -19.0520  -21.2190 O.3       1 AMP202      0.0000 
     13 C1'        32.3720  -19.6200  -19.8010 C.3       1 AMP202      0.0000 
     14 N9         33.7460  -19.1380  -19.5100 N.pl3     1 AMP202      0.0000 
     15 C8         34.9290  -19.7880  -19.7030 C.2       1 AMP202      0.0000 
     16 N7         35.9830  -19.0290  -19.3180 N.2       1 AMP202      0.0000 
     17 C5         35.4840  -17.8560  -18.8800 C.ar      1 AMP202      0.0000 
     18 C6         36.0570  -16.6160  -18.3200 C.ar      1 AMP202      0.0000 
     19 N6         37.4130  -16.4580  -18.1730 N.pl3     1 AMP202      0.0000 
     20 N1         35.1750  -15.6250  -17.9760 N.ar      1 AMP202      0.0000 
     21 C2         33.8300  -15.7700  -18.1400 C.ar      1 AMP202      0.0000 
     22 N3         33.2290  -16.8710  -18.6290 N.ar      1 AMP202      0.0000 
     23 C4         34.0060  -17.9350  -19.0080 C.ar      1 AMP202      0.0000 
@<TRIPOS>BOND
     1    1    2 ar   
     2    1    3 ar   
     3    1    4 ar   
     4    1    5 1    
     5    5    6 1    
     6    6    7 1    
     7    7    8 1    
     8    7    9 1    
     9    8   13 1    
    10    9   10 1    
    11    9   11 1    
    12   11   12 1    
    13   11   13 1    
    14   13   14 1    
    15   14   15 1    
    16   14   23 1    
    17   15   16 2    
    18   16   17 1    
    19   17   18 ar   
    20   17   23 ar   
    21   18   19 1    
    22   18   20 ar   
    23   20   21 ar   
    24   21   22 ar   
    25   22   23 ar   
@<TRIPOS>SUBSTRUCTURE
     1 AMP202      1 GROUP   
@<TRIPOS>SET
ATOM$ORANGE STATIC     ATOMS   COLORGROUP SYSTEM 
20 6 6 7 7 9 9 11 11 13 13 15 15 17 17 18 18 21 \
21 23 23 

