#    Name: 6mmo_3_AMP
#    Modification time : Fri May 22 19:28:29 2020

@<TRIPOS>MOLECULE
6mmo_3_AMP
   23    25     1     0     1
SMALL
NO_CHARGES


@<TRIPOS>ATOM
      1 P           9.3250  -17.2610   -5.7770 P.3       1 AMP201      0.0000 
      2 O1P         8.5710  -18.0430   -6.8140 O.co2     1 AMP201      0.0000 
      3 O2P         8.7240  -15.9120   -5.4410 O.co2     1 AMP201      0.0000 
      4 O3P         9.8060  -18.0940   -4.6190 O.co2     1 AMP201      0.0000 
      5 O5'        10.6710  -16.8450   -6.5440 O.3       1 AMP201      0.0000 
      6 C5'        10.6000  -16.2930   -7.8490 C.3       1 AMP201      0.0000 
      7 C4'        11.8850  -16.4550   -8.6080 C.3       1 AMP201      0.0000 
      8 O4'        13.0070  -16.1040   -7.7490 O.3       1 AMP201      0.0000 
      9 C3'        12.2170  -17.8610   -9.0670 C.3       1 AMP201      0.0000 
     10 O3'        11.4860  -18.2800  -10.2150 O.3       1 AMP201      0.0000 
     11 C2'        13.7180  -17.7640   -9.2970 C.3       1 AMP201      0.0000 
     12 O2'        13.9740  -17.0760  -10.5240 O.3       1 AMP201      0.0000 
     13 C1'        14.1330  -16.8580   -8.1270 C.3       1 AMP201      0.0000 
     14 N9         14.6040  -17.6190   -6.9530 N.pl3     1 AMP201      0.0000 
     15 C8         13.8850  -18.0610   -5.9160 C.2       1 AMP201      0.0000 
     16 N7         14.6750  -18.6920   -5.0140 N.2       1 AMP201      0.0000 
     17 C5         15.9310  -18.6710   -5.4660 C.ar      1 AMP201      0.0000 
     18 C6         17.2360  -19.1640   -4.9930 C.ar      1 AMP201      0.0000 
     19 N6         17.3530  -19.8420   -3.8150 N.pl3     1 AMP201      0.0000 
     20 N1         18.2940  -18.8860   -5.7930 N.ar      1 AMP201      0.0000 
     21 C2         18.1950  -18.2090   -6.9570 C.ar      1 AMP201      0.0000 
     22 N3         17.0240  -17.7470   -7.4550 N.ar      1 AMP201      0.0000 
     23 C4         15.8900  -17.9560   -6.7460 C.ar      1 AMP201      0.0000 
@<TRIPOS>BOND
     1    1    2 ar   
     2    1    3 ar   
     3    1    4 ar   
     4    1    5 1    
     5    5    6 1    
     6    6    7 1    
     7    7    8 1    
     8    7    9 1    
     9    8   13 1    
    10    9   10 1    
    11    9   11 1    
    12   11   12 1    
    13   11   13 1    
    14   13   14 1    
    15   14   15 1    
    16   14   23 1    
    17   15   16 2    
    18   16   17 1    
    19   17   18 ar   
    20   17   23 ar   
    21   18   19 1    
    22   18   20 ar   
    23   20   21 ar   
    24   21   22 ar   
    25   22   23 ar   
@<TRIPOS>SUBSTRUCTURE
     1 AMP201      1 GROUP   
@<TRIPOS>SET
ATOM$ORANGE STATIC     ATOMS   COLORGROUP SYSTEM 
20 6 6 7 7 9 9 11 11 13 13 15 15 17 17 18 18 21 \
21 23 23 

