#    Name: 6mmo_5_AMP
#    Modification time : Fri May 22 19:28:36 2020

@<TRIPOS>MOLECULE
6mmo_5_AMP
   23    25     1     0     1
SMALL
NO_CHARGES


@<TRIPOS>ATOM
      1 P          23.0170   19.2260   26.0470 P.3       1 AMP301      0.0000 
      2 O1P        23.6090   20.4110   25.3040 O.co2     1 AMP301      0.0000 
      3 O2P        23.5670   19.0760   27.4460 O.co2     1 AMP301      0.0000 
      4 O3P        21.5170   19.0540   25.9590 O.co2     1 AMP301      0.0000 
      5 O5'        23.6040   17.9120   25.3540 O.3       1 AMP301      0.0000 
      6 C5'        23.7910   17.8390   23.9480 C.3       1 AMP301      0.0000 
      7 C4'        24.4710   16.5530   23.5380 C.3       1 AMP301      0.0000 
      8 O4'        25.8430   16.5270   24.0350 O.3       1 AMP301      0.0000 
      9 C3'        23.8630   15.2750   24.0950 C.3       1 AMP301      0.0000 
     10 O3'        22.6960   14.8560   23.4090 O.3       1 AMP301      0.0000 
     11 C2'        25.0210   14.2960   23.9940 C.3       1 AMP301      0.0000 
     12 O2'        25.1690   13.8280   22.6570 O.3       1 AMP301      0.0000 
     13 C1'        26.2140   15.2000   24.3370 C.3       1 AMP301      0.0000 
     14 N9         26.5720   15.1090   25.7670 N.pl3     1 AMP301      0.0000 
     15 C8         26.0700   15.8570   26.7630 C.2       1 AMP301      0.0000 
     16 N7         26.5980   15.5100   27.9610 N.2       1 AMP301      0.0000 
     17 C5         27.4510   14.5020   27.7510 C.ar      1 AMP301      0.0000 
     18 C6         28.3310   13.6710   28.5980 C.ar      1 AMP301      0.0000 
     19 N6         28.4120   13.8670   29.9420 N.pl3     1 AMP301      0.0000 
     20 N1         29.0670   12.7230   27.9800 N.ar      1 AMP301      0.0000 
     21 C2         28.9940   12.5410   26.6480 C.ar      1 AMP301      0.0000 
     22 N3         28.2250   13.2600   25.8150 N.ar      1 AMP301      0.0000 
     23 C4         27.4330   14.2380   26.3030 C.ar      1 AMP301      0.0000 
@<TRIPOS>BOND
     1    1    2 ar   
     2    1    3 ar   
     3    1    4 ar   
     4    1    5 1    
     5    5    6 1    
     6    6    7 1    
     7    7    8 1    
     8    7    9 1    
     9    8   13 1    
    10    9   10 1    
    11    9   11 1    
    12   11   12 1    
    13   11   13 1    
    14   13   14 1    
    15   14   15 1    
    16   14   23 1    
    17   15   16 2    
    18   16   17 1    
    19   17   18 ar   
    20   17   23 ar   
    21   18   19 1    
    22   18   20 ar   
    23   20   21 ar   
    24   21   22 ar   
    25   22   23 ar   
@<TRIPOS>SUBSTRUCTURE
     1 AMP301      1 GROUP   
@<TRIPOS>SET
ATOM$ORANGE STATIC     ATOMS   COLORGROUP SYSTEM 
20 6 6 7 7 9 9 11 11 13 13 15 15 17 17 18 18 21 \
21 23 23 

