#    Name: 6mmo_2_AMP
#    Modification time : Fri May 22 19:28:25 2020

@<TRIPOS>MOLECULE
6mmo_2_AMP
   23    25     1     0     1
SMALL
NO_CHARGES


@<TRIPOS>ATOM
      1 P          33.2910   -8.7390   20.9780 P.3       1 AMP201      0.0000 
      2 O1P        32.3880   -9.3220   19.9160 O.co2     1 AMP201      0.0000 
      3 O2P        34.7440   -9.2110   20.9930 O.co2     1 AMP201      0.0000 
      4 O3P        32.6390   -8.6320   22.3600 O.co2     1 AMP201      0.0000 
      5 O5'        33.4100   -7.2140   20.5320 O.3       1 AMP201      0.0000 
      6 C5'        32.2560   -6.4470   20.2000 C.3       1 AMP201      0.0000 
      7 C4'        32.6370   -5.2140   19.4170 C.3       1 AMP201      0.0000 
      8 O4'        33.7490   -4.5440   20.0810 O.3       1 AMP201      0.0000 
      9 C3'        33.1810   -5.4710   18.0230 C.3       1 AMP201      0.0000 
     10 O3'        32.1870   -5.7760   17.0720 O.3       1 AMP201      0.0000 
     11 C2'        33.9470   -4.1830   17.7350 C.3       1 AMP201      0.0000 
     12 O2'        33.0480   -3.1300   17.4080 O.3       1 AMP201      0.0000 
     13 C1'        34.5510   -3.8880   19.1160 C.3       1 AMP201      0.0000 
     14 N9         35.9230   -4.4130   19.2220 N.pl3     1 AMP201      0.0000 
     15 C8         36.2810   -5.6620   19.6020 C.2       1 AMP201      0.0000 
     16 N7         37.6310   -5.8050   19.5810 N.2       1 AMP201      0.0000 
     17 C5         38.1380   -4.6300   19.1390 C.ar      1 AMP201      0.0000 
     18 C6         39.4830   -4.1320   18.8590 C.ar      1 AMP201      0.0000 
     19 N6         40.5530   -4.9370   19.0640 N.pl3     1 AMP201      0.0000 
     20 N1         39.5960   -2.8760   18.3780 N.ar      1 AMP201      0.0000 
     21 C2         38.5150   -2.0730   18.1990 C.ar      1 AMP201      0.0000 
     22 N3         37.2250   -2.4540   18.4190 N.ar      1 AMP201      0.0000 
     23 C4         37.0050   -3.7200   18.8830 C.ar      1 AMP201      0.0000 
@<TRIPOS>BOND
     1    1    2 ar   
     2    1    3 ar   
     3    1    4 ar   
     4    1    5 1    
     5    5    6 1    
     6    6    7 1    
     7    7    8 1    
     8    7    9 1    
     9    8   13 1    
    10    9   10 1    
    11    9   11 1    
    12   11   12 1    
    13   11   13 1    
    14   13   14 1    
    15   14   15 1    
    16   14   23 1    
    17   15   16 2    
    18   16   17 1    
    19   17   18 ar   
    20   17   23 ar   
    21   18   19 1    
    22   18   20 ar   
    23   20   21 ar   
    24   21   22 ar   
    25   22   23 ar   
@<TRIPOS>SUBSTRUCTURE
     1 AMP201      1 GROUP   
@<TRIPOS>SET
ATOM$ORANGE STATIC     ATOMS   COLORGROUP SYSTEM 
20 6 6 7 7 9 9 11 11 13 13 15 15 17 17 18 18 21 \
21 23 23 

