#    Name: 6mmo_1_AMP
#    Modification time : Fri May 22 19:28:21 2020

@<TRIPOS>MOLECULE
6mmo_1_AMP
   23    25     1     0     1
SMALL
NO_CHARGES


@<TRIPOS>ATOM
      1 P          23.9000    4.3040  -21.4600 P.3       1 AMP201      0.0000 
      2 O1P        23.0630    4.3050  -22.7190 O.co2     1 AMP201      0.0000 
      3 O2P        25.4100    4.1550  -21.6080 O.co2     1 AMP201      0.0000 
      4 O3P        23.4700    5.3710  -20.4790 O.co2     1 AMP201      0.0000 
      5 O5'        23.5770    2.8790  -20.8230 O.3       1 AMP201      0.0000 
      6 C5'        23.7290    1.7000  -21.5850 C.3       1 AMP201      0.0000 
      7 C4'        23.0640    0.5250  -20.9220 C.3       1 AMP201      0.0000 
      8 O4'        23.7050    0.3070  -19.6360 O.3       1 AMP201      0.0000 
      9 C3'        21.6020    0.7330  -20.5490 C.3       1 AMP201      0.0000 
     10 O3'        20.7010    0.5640  -21.6330 O.3       1 AMP201      0.0000 
     11 C2'        21.4200   -0.2830  -19.4320 C.3       1 AMP201      0.0000 
     12 O2'        21.4030   -1.5980  -19.9830 O.3       1 AMP201      0.0000 
     13 C1'        22.7440   -0.1310  -18.6920 C.3       1 AMP201      0.0000 
     14 N9         22.7110    0.8360  -17.5540 N.pl3     1 AMP201      0.0000 
     15 C8         22.9030    2.1630  -17.5770 C.2       1 AMP201      0.0000 
     16 N7         22.8820    2.6770  -16.3330 N.2       1 AMP201      0.0000 
     17 C5         22.6620    1.6570  -15.4890 C.ar      1 AMP201      0.0000 
     18 C6         22.4730    1.5160  -14.0400 C.ar      1 AMP201      0.0000 
     19 N6         22.5780    2.6010  -13.2730 N.pl3     1 AMP201      0.0000 
     20 N1         22.2750    0.2790  -13.5280 N.ar      1 AMP201      0.0000 
     21 C2         22.2220   -0.8010  -14.3300 C.ar      1 AMP201      0.0000 
     22 N3         22.3620   -0.7210  -15.6680 N.ar      1 AMP201      0.0000 
     23 C4         22.5730    0.4630  -16.2830 C.ar      1 AMP201      0.0000 
@<TRIPOS>BOND
     1    1    2 ar   
     2    1    3 ar   
     3    1    4 ar   
     4    1    5 1    
     5    5    6 1    
     6    6    7 1    
     7    7    8 1    
     8    7    9 1    
     9    8   13 1    
    10    9   10 1    
    11    9   11 1    
    12   11   12 1    
    13   11   13 1    
    14   13   14 1    
    15   14   15 1    
    16   14   23 1    
    17   15   16 2    
    18   16   17 1    
    19   17   18 ar   
    20   17   23 ar   
    21   18   19 1    
    22   18   20 ar   
    23   20   21 ar   
    24   21   22 ar   
    25   22   23 ar   
@<TRIPOS>SUBSTRUCTURE
     1 AMP201      1 GROUP   
@<TRIPOS>SET
ATOM$ORANGE STATIC     ATOMS   COLORGROUP SYSTEM 
20 6 6 7 7 9 9 11 11 13 13 15 15 17 17 18 18 21 \
21 23 23 

