#    Name: 6hq4_2_CMP
#    Modification time : Fri May 22 19:27:42 2020

@<TRIPOS>MOLECULE
6hq4_2_CMP
   22    25     1     0     1
SMALL
NO_CHARGES


@<TRIPOS>ATOM
      1 P         -80.6190  -40.3600   -9.4060 P.3       1 CMP901      0.0000 
      2 O1P       -79.3550  -41.1420   -9.6550 O.co2     1 CMP901      0.0000 
      3 O2P       -80.8600  -39.7440   -8.0490 O.co2     1 CMP901      0.0000 
      4 O5'       -81.8760  -41.3340   -9.7090 O.3       1 CMP901      0.0000 
      5 C5'       -83.1340  -40.8450  -10.1870 C.3       1 CMP901      0.0000 
      6 C4'       -82.8450  -39.8680  -11.3110 C.3       1 CMP901      0.0000 
      7 O4'       -83.9920  -39.2610  -11.9090 O.3       1 CMP901      0.0000 
      8 C3'       -82.0240  -38.7280  -10.7500 C.3       1 CMP901      0.0000 
      9 O3'       -80.7120  -39.2120  -10.5360 O.3       1 CMP901      0.0000 
     10 C2'       -82.2580  -37.6310  -11.7620 C.3       1 CMP901      0.0000 
     11 O2'       -81.3930  -37.7580  -12.8870 O.3       1 CMP901      0.0000 
     12 C1'       -83.7110  -37.8750  -12.1570 C.3       1 CMP901      0.0000 
     13 N9        -84.6090  -37.0240  -11.3260 N.pl3     1 CMP901      0.0000 
     14 C8        -84.7870  -37.1190   -9.9890 C.2       1 CMP901      0.0000 
     15 N7        -85.6710  -36.1930   -9.5410 N.2       1 CMP901      0.0000 
     16 C5        -86.0750  -35.4830  -10.6060 C.ar      1 CMP901      0.0000 
     17 C6        -87.0020  -34.3560  -10.8360 C.ar      1 CMP901      0.0000 
     18 N6        -87.6770  -33.8080   -9.8000 N.pl3     1 CMP901      0.0000 
     19 N1        -87.1440  -33.9030  -12.1040 N.ar      1 CMP901      0.0000 
     20 C2        -86.4760  -34.4530  -13.1390 C.ar      1 CMP901      0.0000 
     21 N3        -85.6140  -35.4780  -12.9940 N.ar      1 CMP901      0.0000 
     22 C4        -85.3760  -36.0300  -11.7780 C.ar      1 CMP901      0.0000 
@<TRIPOS>BOND
     1    1    2 ar   
     2    1    3 ar   
     3    1    4 1    
     4    1    9 1    
     5    4    5 1    
     6    5    6 1    
     7    6    7 1    
     8    6    8 1    
     9    7   12 1    
    10    8    9 1    
    11    8   10 1    
    12   10   11 1    
    13   10   12 1    
    14   12   13 1    
    15   13   14 1    
    16   13   22 1    
    17   14   15 2    
    18   15   16 1    
    19   16   17 ar   
    20   16   22 ar   
    21   17   18 1    
    22   17   19 ar   
    23   19   20 ar   
    24   20   21 ar   
    25   21   22 ar   
@<TRIPOS>SUBSTRUCTURE
     1 CMP901      1 GROUP   
@<TRIPOS>SET
ATOM$ORANGE STATIC     ATOMS   COLORGROUP SYSTEM 
20 5 5 6 6 8 8 10 10 12 12 14 14 16 16 17 17 20 \
20 22 22 

