#    Name: 6hq4_1_CMP
#    Modification time : Fri May 22 19:27:33 2020

@<TRIPOS>MOLECULE
6hq4_1_CMP
   22    25     1     0     1
SMALL
NO_CHARGES


@<TRIPOS>ATOM
      1 P         -83.5360  -17.2470   -6.4830 P.3       1 CMP901      0.0000 
      2 O1P       -84.3130  -18.1060   -7.4500 O.co2     1 CMP901      0.0000 
      3 O2P       -82.6250  -16.1920   -7.0500 O.co2     1 CMP901      0.0000 
      4 O5'       -84.6200  -16.5670   -5.4970 O.3       1 CMP901      0.0000 
      5 C5'       -85.2350  -17.2800   -4.4140 C.3       1 CMP901      0.0000 
      6 C4'       -84.1640  -18.0400   -3.6530 C.3       1 CMP901      0.0000 
      7 O4'       -84.6310  -18.9080   -2.6130 O.3       1 CMP901      0.0000 
      8 C3'       -83.4450  -18.9550   -4.6110 C.3       1 CMP901      0.0000 
      9 O3'       -82.6640  -18.1540   -5.4750 O.3       1 CMP901      0.0000 
     10 C2'       -82.7610  -19.9250   -3.6750 C.3       1 CMP901      0.0000 
     11 O2'       -81.5410  -19.3970   -3.1700 O.3       1 CMP901      0.0000 
     12 C1'       -83.7810  -20.0670   -2.5520 C.3       1 CMP901      0.0000 
     13 N9        -84.6090  -21.2850   -2.7520 N.pl3     1 CMP901      0.0000 
     14 C8        -85.4450  -21.5010   -3.7900 C.2       1 CMP901      0.0000 
     15 N7        -86.0590  -22.7020   -3.6780 N.2       1 CMP901      0.0000 
     16 C5        -85.6190  -23.2710   -2.5480 C.ar      1 CMP901      0.0000 
     17 C6        -85.8680  -24.5420   -1.8400 C.ar      1 CMP901      0.0000 
     18 N6        -86.7390  -25.4370   -2.3520 N.pl3     1 CMP901      0.0000 
     19 N1        -85.2110  -24.7710   -0.6820 N.ar      1 CMP901      0.0000 
     20 C2        -84.3460  -23.8690   -0.1750 C.ar      1 CMP901      0.0000 
     21 N3        -84.0730  -22.6920   -0.7770 N.ar      1 CMP901      0.0000 
     22 C4        -84.6650  -22.3390   -1.9410 C.ar      1 CMP901      0.0000 
@<TRIPOS>BOND
     1    1    2 ar   
     2    1    3 ar   
     3    1    4 1    
     4    1    9 1    
     5    4    5 1    
     6    5    6 1    
     7    6    7 1    
     8    6    8 1    
     9    7   12 1    
    10    8    9 1    
    11    8   10 1    
    12   10   11 1    
    13   10   12 1    
    14   12   13 1    
    15   13   14 1    
    16   13   22 1    
    17   14   15 2    
    18   15   16 1    
    19   16   17 ar   
    20   16   22 ar   
    21   17   18 1    
    22   17   19 ar   
    23   19   20 ar   
    24   20   21 ar   
    25   21   22 ar   
@<TRIPOS>SUBSTRUCTURE
     1 CMP901      1 GROUP   
@<TRIPOS>SET
ATOM$ORANGE STATIC     ATOMS   COLORGROUP SYSTEM 
20 5 5 6 6 8 8 10 10 12 12 14 14 16 16 17 17 20 \
20 22 22 

