#    Name: 6pf9_6_NDP
#    Modification time : Fri May 22 19:31:15 2020

@<TRIPOS>MOLECULE
6pf9_6_NDP
   48    52     1     0     1
SMALL
NO_CHARGES


@<TRIPOS>ATOM
      1 PA          7.6520  -35.2000   87.2450 P.3       1 NDP601      0.0000 
      2 O1A         6.6020  -35.4640   86.1900 O.co2     1 NDP601      0.0000 
      3 O2A         7.0640  -35.4480   88.6030 O.co2     1 NDP601      0.0000 
      4 O5B         8.8070  -36.1850   87.0360 O.3       1 NDP601      0.0000 
      5 C5B         9.8460  -35.9270   86.1330 C.3       1 NDP601      0.0000 
      6 C4B        10.8840  -36.9640   86.0370 C.3       1 NDP601      0.0000 
      7 O4B        10.3000  -38.1950   85.6750 O.3       1 NDP601      0.0000 
      8 C3B        11.8710  -36.6950   84.9900 C.3       1 NDP601      0.0000 
      9 O3B        12.8830  -35.8650   85.4420 O.3       1 NDP601      0.0000 
     10 C2B        12.3650  -38.0170   84.6820 C.3       1 NDP601      0.0000 
     11 O2B        13.2800  -38.4630   85.6410 O.3       1 NDP601      0.0000 
     12 C1B        11.1800  -38.8490   84.7760 C.3       1 NDP601      0.0000 
     13 N9A        10.5760  -38.9920   83.4980 N.pl3     1 NDP601      0.0000 
     14 C8A         9.5280  -38.2760   83.0230 C.2       1 NDP601      0.0000 
     15 N7A         9.2310  -38.6930   81.7760 N.2       1 NDP601      0.0000 
     16 C5A        10.1060  -39.7000   81.4410 C.ar      1 NDP601      0.0000 
     17 C6A        10.2900  -40.5110   80.2950 C.ar      1 NDP601      0.0000 
     18 N6A         9.3980  -40.3290   79.1230 N.pl3     1 NDP601      0.0000 
     19 N1A        11.2750  -41.4500   80.2730 N.ar      1 NDP601      0.0000 
     20 C2A        12.0770  -41.5950   81.3630 C.ar      1 NDP601      0.0000 
     21 N3A        11.9430  -40.8550   82.4670 N.ar      1 NDP601      0.0000 
     22 C4A        10.9550  -39.8890   82.5350 C.ar      1 NDP601      0.0000 
     23 O3          8.1540  -33.6890   87.1710 O.3       1 NDP601      0.0000 
     24 PN          7.1350  -32.4710   87.0280 P.3       1 NDP601      0.0000 
     25 O1N         7.8750  -31.1280   87.0950 O.co2     1 NDP601      0.0000 
     26 O2N         6.4370  -32.5590   85.6880 O.co2     1 NDP601      0.0000 
     27 O5D         6.0500  -32.5470   88.2310 O.3       1 NDP601      0.0000 
     28 C5D         6.3750  -32.0630   89.5080 C.3       1 NDP601      0.0000 
     29 C4D         5.5550  -30.9870   90.0400 C.3       1 NDP601      0.0000 
     30 O4D         4.1790  -31.3470   89.9260 O.3       1 NDP601      0.0000 
     31 C3D         5.8230  -30.7720   91.4690 C.3       1 NDP601      0.0000 
     32 O3D         5.7140  -29.4200   91.7780 O.3       1 NDP601      0.0000 
     33 C2D         4.7820  -31.4830   92.1280 C.3       1 NDP601      0.0000 
     34 O2D         4.5200  -30.9210   93.3780 O.3       1 NDP601      0.0000 
     35 C1D         3.6390  -31.3170   91.2040 C.3       1 NDP601      0.0000 
     36 N1N         2.6770  -32.3570   91.4150 N.pl3     1 NDP601      0.0000 
     37 C2N         1.3880  -32.0120   91.5800 C.2       1 NDP601      0.0000 
     38 C3N         0.4060  -32.9890   91.7930 C.2       1 NDP601      0.0000 
     39 C7N        -1.0370  -32.5520   91.9730 C.2       1 NDP601      0.0000 
     40 O7N        -1.9300  -33.4130   92.0260 O.2       1 NDP601      0.0000 
     41 N7N        -1.3820  -31.1640   92.0890 N.am      1 NDP601      0.0000 
     42 C4N         0.7680  -34.3480   91.8380 C.3       1 NDP601      0.0000 
     43 C5N         2.1200  -34.6690   91.6660 C.2       1 NDP601      0.0000 
     44 C6N         3.0660  -33.6690   91.4530 C.2       1 NDP601      0.0000 
     45 P2B        14.8160  -38.4620   85.3640 P.3       1 NDP601      0.0000 
     46 O1X        15.2230  -37.0650   84.8570 O.co2     1 NDP601      0.0000 
     47 O2X        15.5320  -38.7760   86.6090 O.co2     1 NDP601      0.0000 
     48 O3X        15.1700  -39.5000   84.3470 O.co2     1 NDP601      0.0000 
@<TRIPOS>BOND
     1    1    2 ar   
     2    1    3 ar   
     3    1    4 1    
     4    1   23 1    
     5    4    5 1    
     6    5    6 1    
     7    6    7 1    
     8    6    8 1    
     9    7   12 1    
    10    8    9 1    
    11    8   10 1    
    12   10   11 1    
    13   10   12 1    
    14   11   45 1    
    15   12   13 1    
    16   13   14 1    
    17   13   22 1    
    18   14   15 2    
    19   15   16 1    
    20   16   17 ar   
    21   16   22 ar   
    22   17   18 1    
    23   17   19 ar   
    24   19   20 ar   
    25   20   21 ar   
    26   21   22 ar   
    27   23   24 1    
    28   24   25 ar   
    29   24   26 ar   
    30   24   27 1    
    31   27   28 1    
    32   28   29 1    
    33   29   30 1    
    34   29   31 1    
    35   30   35 1    
    36   31   32 1    
    37   31   33 1    
    38   33   34 1    
    39   33   35 1    
    40   35   36 1    
    41   36   37 1    
    42   36   44 1    
    43   37   38 2    
    44   38   39 1    
    45   38   42 1    
    46   39   40 2    
    47   39   41 am   
    48   42   43 1    
    49   43   44 2    
    50   45   46 ar   
    51   45   47 ar   
    52   45   48 ar   
@<TRIPOS>SUBSTRUCTURE
     1 NDP601      1 GROUP   
@<TRIPOS>SET
ATOM$ORANGE STATIC     ATOMS   COLORGROUP SYSTEM 
42 5 5 6 6 8 8 10 10 12 12 14 14 16 16 17 17 20 \
20 22 22 28 28 29 29 31 31 33 33 35 35 37 37 38 38 39 \
39 42 42 43 43 44 44 

