#    Name: 6pf9_5_MTX
#    Modification time : Fri May 22 19:30:51 2020

@<TRIPOS>MOLECULE
6pf9_5_MTX
   33    35     1     0     0
SMALL
NO_CHARGES


@<TRIPOS>ATOM
      1 N1         -3.7280  -34.2450   95.4440 N.ar      1 MTX604      0.0000 
      2 C2         -4.5760  -34.9360   94.6660 C.ar      1 MTX604      0.0000 
      3 NA2        -5.9780  -34.6190   94.7290 N.pl3     1 MTX604      0.0000 
      4 N3         -4.1570  -35.9070   93.8380 N.ar      1 MTX604      0.0000 
      5 C4         -2.8460  -36.2240   93.7620 C.ar      1 MTX604      0.0000 
      6 NA4        -2.3650  -37.2510   92.8940 N.pl3     1 MTX604      0.0000 
      7 C4A        -1.9200  -35.5230   94.5610 C.ar      1 MTX604      0.0000 
      8 N5         -0.5900  -35.8180   94.5100 N.ar      1 MTX604      0.0000 
      9 C6          0.2550  -35.1190   95.2920 C.ar      1 MTX604      0.0000 
     10 C7         -0.1930  -34.1070   96.1520 C.ar      1 MTX604      0.0000 
     11 N8         -1.5140  -33.8310   96.1920 N.ar      1 MTX604      0.0000 
     12 C8A        -2.3900  -34.5310   95.4010 C.ar      1 MTX604      0.0000 
     13 C9          1.7250  -35.4450   95.2360 C.3       1 MTX604      0.0000 
     14 N10         2.4250  -35.2100   96.4800 N.pl3     1 MTX604      0.0000 
     15 CM          3.4830  -34.2280   96.5280 C.3       1 MTX604      0.0000 
     16 C11         1.3240  -37.3010  100.0060 C.ar      1 MTX604      0.0000 
     17 C12         1.8500  -36.0150  100.0710 C.ar      1 MTX604      0.0000 
     18 C13         2.2070  -35.3400   98.9090 C.ar      1 MTX604      0.0000 
     19 C14         2.0410  -35.9470   97.6740 C.ar      1 MTX604      0.0000 
     20 C15         1.5100  -37.2330   97.5980 C.ar      1 MTX604      0.0000 
     21 C16         1.1520  -37.9080   98.7670 C.ar      1 MTX604      0.0000 
     22 C           0.9430  -38.0030  101.2890 C.2       1 MTX604      0.0000 
     23 O           1.5830  -37.7600  102.2980 O.2       1 MTX604      0.0000 
     24 N          -0.1570  -38.9400  101.3650 N.am      1 MTX604      0.0000 
     25 CA         -0.4850  -39.5750  102.6170 C.3       1 MTX604      0.0000 
     26 CT         -0.9530  -40.9500  102.3390 C.2       1 MTX604      0.0000 
     27 O1         -1.1230  -41.3150  101.1490 O.co2     1 MTX604      0.0000 
     28 O2         -1.1860  -41.7540  103.2940 O.co2     1 MTX604      0.0000 
     29 CB         -1.6230  -38.8390  103.2360 C.3       1 MTX604      0.0000 
     30 CG         -1.3860  -37.8780  104.3640 C.3       1 MTX604      0.0000 
     31 CD         -2.5940  -37.4880  105.1590 C.2       1 MTX604      0.0000 
     32 OE1        -3.4660  -38.3550  105.3950 O.co2     1 MTX604      0.0000 
     33 OE2        -2.9130  -36.2730  105.2420 O.co2     1 MTX604      0.0000 
@<TRIPOS>BOND
     1    1    2 ar   
     2    1   12 ar   
     3    2    3 1    
     4    2    4 ar   
     5    4    5 ar   
     6    5    6 1    
     7    5    7 ar   
     8    7    8 ar   
     9    7   12 ar   
    10    8    9 ar   
    11    9   10 ar   
    12    9   13 1    
    13   10   11 ar   
    14   11   12 ar   
    15   13   14 1    
    16   14   15 1    
    17   14   19 1    
    18   16   17 ar   
    19   16   21 ar   
    20   16   22 1    
    21   17   18 ar   
    22   18   19 ar   
    23   19   20 ar   
    24   20   21 ar   
    25   22   23 2    
    26   22   24 am   
    27   24   25 1    
    28   25   26 1    
    29   25   29 1    
    30   26   27 ar   
    31   26   28 ar   
    32   29   30 1    
    33   30   31 1    
    34   31   32 ar   
    35   31   33 ar   
@<TRIPOS>SUBSTRUCTURE
     1 MTX604      1 GROUP   
@<TRIPOS>SET

