#    Name: 6pf9_7_NDP
#    Modification time : Fri May 22 19:31:04 2020

@<TRIPOS>MOLECULE
6pf9_7_NDP
   48    52     1     0     1
SMALL
NO_CHARGES


@<TRIPOS>ATOM
      1 PA         51.6570   40.7910   64.4990 P.3       1 NDP601      0.0000 
      2 O1A        50.8510   40.5780   63.2360 O.co2     1 NDP601      0.0000 
      3 O2A        51.9860   39.4590   65.1070 O.co2     1 NDP601      0.0000 
      4 O5B        52.9710   41.4930   64.1330 O.3       1 NDP601      0.0000 
      5 C5B        53.0440   42.8880   64.0070 C.3       1 NDP601      0.0000 
      6 C4B        54.3610   43.4400   63.6510 C.3       1 NDP601      0.0000 
      7 O4B        54.8070   42.8860   62.4310 O.3       1 NDP601      0.0000 
      8 C3B        54.3350   44.8840   63.4080 C.3       1 NDP601      0.0000 
      9 O3B        54.4150   45.6160   64.5810 O.3       1 NDP601      0.0000 
     10 C2B        55.5050   45.0650   62.5820 C.3       1 NDP601      0.0000 
     11 O2B        56.6860   44.9630   63.3240 O.3       1 NDP601      0.0000 
     12 C1B        55.4550   43.9160   61.6990 C.3       1 NDP601      0.0000 
     13 N9A        54.7450   44.2400   60.5100 N.pl3     1 NDP601      0.0000 
     14 C8A        53.4370   43.9820   60.2560 C.2       1 NDP601      0.0000 
     15 N7A        53.1220   44.4330   59.0260 N.2       1 NDP601      0.0000 
     16 C5A        54.2490   44.9920   58.4710 C.ar      1 NDP601      0.0000 
     17 C6A        54.5400   45.6160   57.2320 C.ar      1 NDP601      0.0000 
     18 N6A        53.4650   45.7600   56.2170 N.pl3     1 NDP601      0.0000 
     19 N1A        55.7940   46.0780   56.9760 N.ar      1 NDP601      0.0000 
     20 C2A        56.7600   45.9350   57.9220 C.ar      1 NDP601      0.0000 
     21 N3A        56.5340   45.3540   59.1040 N.ar      1 NDP601      0.0000 
     22 C4A        55.2750   44.8680   59.4110 C.ar      1 NDP601      0.0000 
     23 O3         50.8290   41.6580   65.5520 O.3       1 NDP601      0.0000 
     24 PN         49.3150   41.3130   65.9090 P.3       1 NDP601      0.0000 
     25 O1N        48.7890   42.2380   67.0170 O.co2     1 NDP601      0.0000 
     26 O2N        48.4630   41.5060   64.6740 O.co2     1 NDP601      0.0000 
     27 O5D        49.2210   39.7750   66.4190 O.3       1 NDP601      0.0000 
     28 C5D        49.4250   39.4680   67.7750 C.3       1 NDP601      0.0000 
     29 C4D        48.3340   38.8340   68.5030 C.3       1 NDP601      0.0000 
     30 O4D        47.7320   37.8280   67.6910 O.3       1 NDP601      0.0000 
     31 C3D        48.8190   38.1580   69.7140 C.3       1 NDP601      0.0000 
     32 O3D        47.8570   38.2340   70.7170 O.3       1 NDP601      0.0000 
     33 C2D        48.9730   36.8010   69.3120 C.3       1 NDP601      0.0000 
     34 O2D        48.8750   35.9530   70.4160 O.3       1 NDP601      0.0000 
     35 C1D        47.8480   36.6220   68.3680 C.3       1 NDP601      0.0000 
     36 N1N        48.0950   35.5340   67.4690 N.pl3     1 NDP601      0.0000 
     37 C2N        47.1350   34.6070   67.3080 C.2       1 NDP601      0.0000 
     38 C3N        47.3250   33.5230   66.4380 C.2       1 NDP601      0.0000 
     39 C7N        46.2160   32.4990   66.2880 C.2       1 NDP601      0.0000 
     40 O7N        46.3230   31.6140   65.4240 O.2       1 NDP601      0.0000 
     41 N7N        45.0540   32.5390   67.1310 N.am      1 NDP601      0.0000 
     42 C4N        48.5310   33.3980   65.7240 C.3       1 NDP601      0.0000 
     43 C5N        49.5080   34.3820   65.9190 C.2       1 NDP601      0.0000 
     44 C6N        49.2810   35.4460   66.7900 C.2       1 NDP601      0.0000 
     45 P2B        57.5480   46.2170   63.6640 P.3       1 NDP601      0.0000 
     46 O1X        56.6390   47.2930   64.2880 O.co2     1 NDP601      0.0000 
     47 O2X        58.6020   45.8340   64.6140 O.co2     1 NDP601      0.0000 
     48 O3X        58.2020   46.7490   62.4280 O.co2     1 NDP601      0.0000 
@<TRIPOS>BOND
     1    1    2 ar   
     2    1    3 ar   
     3    1    4 1    
     4    1   23 1    
     5    4    5 1    
     6    5    6 1    
     7    6    7 1    
     8    6    8 1    
     9    7   12 1    
    10    8    9 1    
    11    8   10 1    
    12   10   11 1    
    13   10   12 1    
    14   11   45 1    
    15   12   13 1    
    16   13   14 1    
    17   13   22 1    
    18   14   15 2    
    19   15   16 1    
    20   16   17 ar   
    21   16   22 ar   
    22   17   18 1    
    23   17   19 ar   
    24   19   20 ar   
    25   20   21 ar   
    26   21   22 ar   
    27   23   24 1    
    28   24   25 ar   
    29   24   26 ar   
    30   24   27 1    
    31   27   28 1    
    32   28   29 1    
    33   29   30 1    
    34   29   31 1    
    35   30   35 1    
    36   31   32 1    
    37   31   33 1    
    38   33   34 1    
    39   33   35 1    
    40   35   36 1    
    41   36   37 1    
    42   36   44 1    
    43   37   38 2    
    44   38   39 1    
    45   38   42 1    
    46   39   40 2    
    47   39   41 am   
    48   42   43 1    
    49   43   44 2    
    50   45   46 ar   
    51   45   47 ar   
    52   45   48 ar   
@<TRIPOS>SUBSTRUCTURE
     1 NDP601      1 GROUP   
@<TRIPOS>SET
ATOM$ORANGE STATIC     ATOMS   COLORGROUP SYSTEM 
42 5 5 6 6 8 8 10 10 12 12 14 14 16 16 17 17 20 \
20 22 22 28 28 29 29 31 31 33 33 35 35 37 37 38 38 39 \
39 42 42 43 43 44 44 

