#    Name: 6pf9_2_MTX
#    Modification time : Fri May 22 19:30:33 2020

@<TRIPOS>MOLECULE
6pf9_2_MTX
   33    35     1     0     0
SMALL
NO_CHARGES


@<TRIPOS>ATOM
      1 N1         46.7560   27.9280   66.6020 N.ar      1 MTX604      0.0000 
      2 C2         46.5080   27.6210   65.3150 C.ar      1 MTX604      0.0000 
      3 NA2        45.4560   26.6870   65.0100 N.pl3     1 MTX604      0.0000 
      4 N3         47.2100   28.1580   64.3050 N.ar      1 MTX604      0.0000 
      5 C4         48.2040   29.0370   64.5530 C.ar      1 MTX604      0.0000 
      6 NA4        48.9640   29.6200   63.4960 N.pl3     1 MTX604      0.0000 
      7 C4A        48.5000   29.3900   65.8870 C.ar      1 MTX604      0.0000 
      8 N5         49.4980   30.2750   66.1730 N.ar      1 MTX604      0.0000 
      9 C6         49.7460   30.5830   67.4620 C.ar      1 MTX604      0.0000 
     10 C7         49.0070   30.0190   68.5100 C.ar      1 MTX604      0.0000 
     11 N8         48.0230   29.1430   68.2070 N.ar      1 MTX604      0.0000 
     12 C8A        47.7560   28.8170   66.9010 C.ar      1 MTX604      0.0000 
     13 C9         50.8530   31.5630   67.7670 C.3       1 MTX604      0.0000 
     14 N10        51.5220   31.3550   69.0340 N.pl3     1 MTX604      0.0000 
     15 CM         51.4780   32.3810   70.0480 C.3       1 MTX604      0.0000 
     16 C11        53.5470   27.7040   69.8100 C.ar      1 MTX604      0.0000 
     17 C12        52.9590   28.4290   70.8420 C.ar      1 MTX604      0.0000 
     18 C13        52.2970   29.6230   70.5760 C.ar      1 MTX604      0.0000 
     19 C14        52.2240   30.1020   69.2770 C.ar      1 MTX604      0.0000 
     20 C15        52.8090   29.3820   68.2360 C.ar      1 MTX604      0.0000 
     21 C16        53.4720   28.1830   68.5070 C.ar      1 MTX604      0.0000 
     22 C          54.2560   26.4100   70.1320 C.2       1 MTX604      0.0000 
     23 O          54.8220   26.3030   71.2070 O.2       1 MTX604      0.0000 
     24 N          54.2870   25.2910   69.2160 N.am      1 MTX604      0.0000 
     25 CA         54.9790   24.0830   69.5910 C.3       1 MTX604      0.0000 
     26 CT         55.6160   23.5100   68.3860 C.2       1 MTX604      0.0000 
     27 O1         55.5330   24.1260   67.2920 O.co2     1 MTX604      0.0000 
     28 O2         56.2380   22.4050   68.4550 O.co2     1 MTX604      0.0000 
     29 CB         53.9830   23.0890   70.0840 C.3       1 MTX604      0.0000 
     30 CG         53.8650   22.8010   71.5510 C.3       1 MTX604      0.0000 
     31 CD         53.1400   21.5440   71.9200 C.2       1 MTX604      0.0000 
     32 OE1        53.2890   20.5180   71.2150 O.co2     1 MTX604      0.0000 
     33 OE2        52.2060   21.5820   72.7640 O.co2     1 MTX604      0.0000 
@<TRIPOS>BOND
     1    1    2 ar   
     2    1   12 ar   
     3    2    3 1    
     4    2    4 ar   
     5    4    5 ar   
     6    5    6 1    
     7    5    7 ar   
     8    7    8 ar   
     9    7   12 ar   
    10    8    9 ar   
    11    9   10 ar   
    12    9   13 1    
    13   10   11 ar   
    14   11   12 ar   
    15   13   14 1    
    16   14   15 1    
    17   14   19 1    
    18   16   17 ar   
    19   16   21 ar   
    20   16   22 1    
    21   17   18 ar   
    22   18   19 ar   
    23   19   20 ar   
    24   20   21 ar   
    25   22   23 2    
    26   22   24 am   
    27   24   25 1    
    28   25   26 1    
    29   25   29 1    
    30   26   27 ar   
    31   26   28 ar   
    32   29   30 1    
    33   30   31 1    
    34   31   32 ar   
    35   31   33 ar   
@<TRIPOS>SUBSTRUCTURE
     1 MTX604      1 GROUP   
@<TRIPOS>SET

