#    Name: 6pf9_3_MTX
#    Modification time : Fri May 22 19:30:41 2020

@<TRIPOS>MOLECULE
6pf9_3_MTX
   33    35     1     0     0
SMALL
NO_CHARGES


@<TRIPOS>ATOM
      1 N1         27.0870  -10.0770   25.3440 N.ar      1 MTX604      0.0000 
      2 C2         28.1060   -9.4200   25.9270 C.ar      1 MTX604      0.0000 
      3 NA2        27.9680   -9.0010   27.2970 N.pl3     1 MTX604      0.0000 
      4 N3         29.2470   -9.1450   25.2750 N.ar      1 MTX604      0.0000 
      5 C4         29.4070   -9.5250   23.9890 C.ar      1 MTX604      0.0000 
      6 NA4        30.6090   -9.2450   23.2740 N.pl3     1 MTX604      0.0000 
      7 C4A        28.3650  -10.2170   23.3330 C.ar      1 MTX604      0.0000 
      8 N5         28.4930  -10.6180   22.0350 N.ar      1 MTX604      0.0000 
      9 C6         27.4680  -11.2730   21.4520 C.ar      1 MTX604      0.0000 
     10 C7         26.2850  -11.5560   22.1460 C.ar      1 MTX604      0.0000 
     11 N8         26.1770  -11.1520   23.4300 N.ar      1 MTX604      0.0000 
     12 C8A        27.2070  -10.4810   24.0390 C.ar      1 MTX604      0.0000 
     13 C9         27.6090  -11.7140   20.0160 C.3       1 MTX604      0.0000 
     14 N10        26.3670  -11.7400   19.2690 N.pl3     1 MTX604      0.0000 
     15 CM         25.8760  -12.9850   18.7280 C.3       1 MTX604      0.0000 
     16 C11        24.1190   -8.1760   18.7200 C.ar      1 MTX604      0.0000 
     17 C12        23.4870   -9.4130   18.7930 C.ar      1 MTX604      0.0000 
     18 C13        24.2330  -10.5740   18.9730 C.ar      1 MTX604      0.0000 
     19 C14        25.6150  -10.5070   19.0810 C.ar      1 MTX604      0.0000 
     20 C15        26.2560   -9.2700   19.0100 C.ar      1 MTX604      0.0000 
     21 C16        25.5040   -8.1070   18.8290 C.ar      1 MTX604      0.0000 
     22 C          23.2910   -6.9250   18.5260 C.2       1 MTX604      0.0000 
     23 O          22.2630   -6.9940   17.8740 O.2       1 MTX604      0.0000 
     24 N          23.6800   -5.6510   19.0930 N.am      1 MTX604      0.0000 
     25 CA         22.8660   -4.4780   18.8880 C.3       1 MTX604      0.0000 
     26 CT         23.7580   -3.3000   18.8540 C.2       1 MTX604      0.0000 
     27 O1         25.0020   -3.4640   18.9510 O.co2     1 MTX604      0.0000 
     28 O2         23.2730   -2.1320   18.7340 O.co2     1 MTX604      0.0000 
     29 CB         21.9500   -4.3000   20.0520 C.3       1 MTX604      0.0000 
     30 CG         20.5300   -4.7780   19.9910 C.3       1 MTX604      0.0000 
     31 CD         19.6090   -4.2130   21.0280 C.2       1 MTX604      0.0000 
     32 OE1        19.7420   -3.0100   21.3540 O.co2     1 MTX604      0.0000 
     33 OE2        19.0460   -4.9950   21.8370 O.co2     1 MTX604      0.0000 
@<TRIPOS>BOND
     1    1    2 ar   
     2    1   12 ar   
     3    2    3 1    
     4    2    4 ar   
     5    4    5 ar   
     6    5    6 1    
     7    5    7 ar   
     8    7    8 ar   
     9    7   12 ar   
    10    8    9 ar   
    11    9   10 ar   
    12    9   13 1    
    13   10   11 ar   
    14   11   12 ar   
    15   13   14 1    
    16   14   15 1    
    17   14   19 1    
    18   16   17 ar   
    19   16   21 ar   
    20   16   22 1    
    21   17   18 ar   
    22   18   19 ar   
    23   19   20 ar   
    24   20   21 ar   
    25   22   23 2    
    26   22   24 am   
    27   24   25 1    
    28   25   26 1    
    29   25   29 1    
    30   26   27 ar   
    31   26   28 ar   
    32   29   30 1    
    33   30   31 1    
    34   31   32 ar   
    35   31   33 ar   
@<TRIPOS>SUBSTRUCTURE
     1 MTX604      1 GROUP   
@<TRIPOS>SET

