#    Name: 6hl7_1_CP
#    Modification time : Fri May 22 19:27:19 2020

@<TRIPOS>MOLECULE
6hl7_1_CP
    8     7     1     0     0
SMALL
NO_CHARGES


@<TRIPOS>ATOM
      1 N         -35.8170    6.9930  -69.1480 N.am      1 CP401       0.0000 
      2 C         -37.2810    7.0350  -68.9700 C.2       1 CP401       0.0000 
      3 O         -37.8400    6.4740  -68.0410 O.2       1 CP401       0.0000 
      4 O4P       -38.0330    7.7470  -69.9440 O.3       1 CP401       0.0000 
      5 P         -38.0750    9.4370  -70.1140 P.3       1 CP401       0.0000 
      6 O1P       -37.0760    9.9540  -71.0930 O.co2     1 CP401       0.0000 
      7 O2P       -37.6610   10.1600  -68.8960 O.co2     1 CP401       0.0000 
      8 O3P       -39.6250    9.8930  -70.5020 O.co2     1 CP401       0.0000 
@<TRIPOS>BOND
     1    1    2 am   
     2    2    3 2    
     3    2    4 1    
     4    4    5 1    
     5    5    6 ar   
     6    5    7 ar   
     7    5    8 ar   
@<TRIPOS>SUBSTRUCTURE
     1 CP401       1 GROUP   
@<TRIPOS>SET

