#    Name: 6hl7_2_CP_CAVITY_N1_6
#    Modification time : Fri May 22 19:27:24 2020

@<TRIPOS>MOLECULE
6hl7_2_CP_CAVITY_N1_6
   67     0     7     0     0
SMALL
NO_CHARGES


@<TRIPOS>ATOM
      1 OG        -49.4000   36.5700  -78.0800 O.3       1 SER1        0.0000 
      2 OG        -48.3500   37.5600  -77.6700 O.3       1 SER1        0.0000 
      3 N         -53.3700   34.4900  -73.8100 N.am      2 ALA2        0.0000 
      4 N         -51.1600   33.9000  -72.5700 N.am      2 ALA2        0.0000 
      5 N         -51.2500   34.5500  -73.9200 N.am      2 ALA2        0.0000 
      6 N         -51.4300   35.8600  -76.6200 N.am      2 ALA2        0.0000 
      7 N         -52.3200   35.4700  -73.4000 N.am      2 ALA2        0.0000 
      8 N         -50.0200   34.2300  -70.8200 N.am      2 ALA2        0.0000 
      9 N         -50.1100   34.8900  -72.1700 N.am      2 ALA2        0.0000 
     10 N         -50.2000   35.5400  -73.5100 N.am      2 ALA2        0.0000 
     11 N         -50.2900   36.1900  -74.8600 N.am      2 ALA2        0.0000 
     12 N         -50.3800   36.8400  -76.2100 N.am      2 ALA2        0.0000 
     13 N         -50.4700   37.4900  -77.5600 N.am      2 ALA2        0.0000 
     14 N         -47.9900   34.9500  -72.2800 N.am      2 ALA2        0.0000 
     15 N         -49.0500   35.8700  -71.7600 N.am      2 ALA2        0.0000 
     16 N         -49.3300   37.8300  -75.8000 N.am      2 ALA2        0.0000 
     17 N         -49.4200   38.4800  -77.1500 N.am      2 ALA2        0.0000 
     18 O         -43.8700   39.5500  -72.0000 O.2       2 ALA2        0.0000 
     19 N         -45.0200   41.1300  -72.8300 N.am      2 ALA2        0.0000 
     20 OD1       -49.1300   34.6200  -74.0300 O.co2     3 ASP3        0.0000 
     21 OD1       -49.2200   35.2700  -75.3800 O.co2     3 ASP3        0.0000 
     22 OD1       -49.3100   35.9200  -76.7300 O.co2     3 ASP3        0.0000 
     23 OD1       -48.0800   35.6000  -73.6200 O.co2     3 ASP3        0.0000 
     24 OD1       -48.1700   36.2600  -74.9700 O.co2     3 ASP3        0.0000 
     25 OD1       -48.2600   36.9100  -76.3200 O.co2     3 ASP3        0.0000 
     26 OD1       -47.2100   37.9000  -75.9100 O.co2     3 ASP3        0.0000 
     27 OD1       -48.0900   37.5100  -72.7000 O.co2     3 ASP3        0.0000 
     28 OD1       -48.1800   38.1700  -74.0500 O.co2     3 ASP3        0.0000 
     29 OD1       -48.2700   38.8200  -75.4000 O.co2     3 ASP3        0.0000 
     30 OD1       -49.2500   39.0900  -73.5300 O.co2     3 ASP3        0.0000 
     31 OD1       -45.8800   36.9300  -71.4600 O.co2     3 ASP3        0.0000 
     32 OD1       -47.0400   38.5000  -72.2900 O.co2     3 ASP3        0.0000 
     33 OD1       -47.1300   39.1500  -73.6400 O.co2     3 ASP3        0.0000 
     34 OD1       -48.1900   40.0800  -73.1200 O.co2     3 ASP3        0.0000 
     35 OD1       -44.8300   37.9100  -71.0600 O.co2     3 ASP3        0.0000 
     36 OD1       -44.9200   38.5700  -72.4000 O.co2     3 ASP3        0.0000 
     37 OD1       -46.0800   40.1400  -73.2300 O.co2     3 ASP3        0.0000 
     38 OD1       -47.1400   41.0600  -72.7200 O.co2     3 ASP3        0.0000 
     39 OD1       -48.2000   41.9800  -72.2000 O.co2     3 ASP3        0.0000 
     40 OD1       -42.8000   38.6300  -72.5100 O.co2     3 ASP3        0.0000 
     41 OD1       -46.0900   42.0500  -72.3100 O.co2     3 ASP3        0.0000 
     42 NZ        -46.9400   35.9400  -71.8700 N.4       4 LYS4        0.0000 
     43 CZ        -47.3000   38.5500  -77.2600 C.ar      5 PHE5        0.0000 
     44 CA        -51.0700   33.2500  -71.2300 C.3       6 GLY6        0.0000 
     45 CA        -52.4100   36.1300  -74.7500 C.3       6 GLY6        0.0000 
     46 CA        -52.5000   36.7800  -76.1000 C.3       6 GLY6        0.0000 
     47 CA        -53.3800   36.3900  -72.8900 C.3       6 GLY6        0.0000 
     48 CA        -51.2600   36.4600  -73.0000 C.3       6 GLY6        0.0000 
     49 CA        -51.3500   37.1100  -74.3400 C.3       6 GLY6        0.0000 
     50 CA        -50.2100   37.4500  -72.5900 C.3       6 GLY6        0.0000 
     51 CA        -50.3000   38.1000  -73.9400 C.3       6 GLY6        0.0000 
     52 CA        -51.2700   38.3700  -72.0700 C.3       6 GLY6        0.0000 
     53 CA        -50.2200   39.3600  -71.6700 C.3       6 GLY6        0.0000 
     54 CA        -49.1700   40.3400  -71.2600 C.3       6 GLY6        0.0000 
     55 CA        -43.9600   40.2100  -73.3400 C.3       6 GLY6        0.0000 
     56 DU        -52.2200   34.8200  -72.0600 H         7 CUB7        0.0000 
     57 DU        -51.1700   35.8100  -71.6500 H         7 CUB7        0.0000 
     58 DU        -49.1400   36.5300  -73.1100 H         7 CUB7        0.0000 
     59 DU        -49.2400   37.1800  -74.4500 H         7 CUB7        0.0000 
     60 DU        -50.1200   36.8000  -71.2400 H         7 CUB7        0.0000 
     61 DU        -48.0000   36.8600  -71.3500 H         7 CUB7        0.0000 
     62 DU        -49.1600   38.4400  -72.1800 H         7 CUB7        0.0000 
     63 DU        -46.9500   37.8500  -70.9500 H         7 CUB7        0.0000 
     64 DU        -48.1000   39.4200  -71.7800 H         7 CUB7        0.0000 
     65 DU        -45.9800   39.4900  -71.8900 H         7 CUB7        0.0000 
     66 DU        -47.0500   40.4100  -71.3700 H         7 CUB7        0.0000 
     67 DU        -44.9300   40.4800  -71.4800 H         7 CUB7        0.0000 
@<TRIPOS>BOND
@<TRIPOS>SUBSTRUCTURE
     1 SER1        1 GROUP   
     2 ALA2        3 GROUP   
     3 ASP3       20 GROUP   
     4 LYS4       42 GROUP   
     5 PHE5       43 GROUP   
     6 GLY6       44 GROUP   
     7 CUB7       56 GROUP   
@<TRIPOS>SET

