#    Name: 6hl7_2_CP
#    Modification time : Fri May 22 19:27:23 2020

@<TRIPOS>MOLECULE
6hl7_2_CP
    8     7     1     0     0
SMALL
NO_CHARGES


@<TRIPOS>ATOM
      1 N         -48.0160   37.2900  -78.4370 N.am      1 CP401       0.0000 
      2 C         -47.9400   37.4420  -76.9860 C.2       1 CP401       0.0000 
      3 O         -47.1780   38.2100  -76.4370 O.2       1 CP401       0.0000 
      4 O4P       -48.8160   36.6230  -76.2520 O.3       1 CP401       0.0000 
      5 P         -50.1910   35.9670  -76.9780 P.3       1 CP401       0.0000 
      6 O1P       -50.5400   36.6330  -78.2630 O.co2     1 CP401       0.0000 
      7 O2P       -51.2960   36.3830  -76.1180 O.co2     1 CP401       0.0000 
      8 O3P       -50.2480   34.2930  -77.1320 O.co2     1 CP401       0.0000 
@<TRIPOS>BOND
     1    1    2 am   
     2    2    3 2    
     3    2    4 1    
     4    4    5 1    
     5    5    6 ar   
     6    5    7 ar   
     7    5    8 ar   
@<TRIPOS>SUBSTRUCTURE
     1 CP401       1 GROUP   
@<TRIPOS>SET

