#    Name: 6hl7_2_CP_CAVITY_N1_12
#    Modification time : Fri May 22 19:27:24 2020

@<TRIPOS>MOLECULE
6hl7_2_CP_CAVITY_N1_12
   95     0     7     0     0
SMALL
NO_CHARGES


@<TRIPOS>ATOM
      1 OG        -49.4000   36.5700  -78.0800 O.3       1 SER1        0.0000 
      2 OG        -48.3500   37.5600  -77.6700 O.3       1 SER1        0.0000 
      3 OG        -42.7200   39.8900  -70.2400 O.3       1 SER1        0.0000 
      4 OG        -43.7900   40.8100  -69.7200 O.3       1 SER1        0.0000 
      5 OG        -42.7300   41.8000  -69.3200 O.3       1 SER1        0.0000 
      6 N         -53.3700   34.4900  -73.8100 N.am      2 ALA2        0.0000 
      7 N         -51.1600   33.9000  -72.5700 N.am      2 ALA2        0.0000 
      8 N         -51.2500   34.5500  -73.9200 N.am      2 ALA2        0.0000 
      9 N         -51.4300   35.8600  -76.6200 N.am      2 ALA2        0.0000 
     10 N         -52.3200   35.4700  -73.4000 N.am      2 ALA2        0.0000 
     11 N         -50.0200   34.2300  -70.8200 N.am      2 ALA2        0.0000 
     12 N         -50.1100   34.8900  -72.1700 N.am      2 ALA2        0.0000 
     13 N         -50.2000   35.5400  -73.5100 N.am      2 ALA2        0.0000 
     14 N         -50.2900   36.1900  -74.8600 N.am      2 ALA2        0.0000 
     15 N         -50.3800   36.8400  -76.2100 N.am      2 ALA2        0.0000 
     16 N         -50.4700   37.4900  -77.5600 N.am      2 ALA2        0.0000 
     17 N         -47.9900   34.9500  -72.2800 N.am      2 ALA2        0.0000 
     18 N         -49.0500   35.8700  -71.7600 N.am      2 ALA2        0.0000 
     19 N         -49.3300   37.8300  -75.8000 N.am      2 ALA2        0.0000 
     20 N         -49.4200   38.4800  -77.1500 N.am      2 ALA2        0.0000 
     21 O         -43.7800   38.9000  -70.6500 O.2       2 ALA2        0.0000 
     22 O         -43.8700   39.5500  -72.0000 O.2       2 ALA2        0.0000 
     23 N         -45.0200   41.1300  -72.8300 N.am      2 ALA2        0.0000 
     24 O         -48.1200   43.2400  -69.9300 O.2       2 ALA2        0.0000 
     25 O         -42.8100   40.5400  -71.5900 O.2       2 ALA2        0.0000 
     26 N         -43.8800   41.4600  -71.0700 N.am      2 ALA2        0.0000 
     27 O         -46.1000   43.9600  -71.3900 O.2       2 ALA2        0.0000 
     28 OD1       -49.1300   34.6200  -74.0300 O.co2     3 ASP3        0.0000 
     29 OD1       -49.2200   35.2700  -75.3800 O.co2     3 ASP3        0.0000 
     30 OD1       -49.3100   35.9200  -76.7300 O.co2     3 ASP3        0.0000 
     31 OD1       -48.0800   35.6000  -73.6200 O.co2     3 ASP3        0.0000 
     32 OD1       -48.1700   36.2600  -74.9700 O.co2     3 ASP3        0.0000 
     33 OD1       -48.2600   36.9100  -76.3200 O.co2     3 ASP3        0.0000 
     34 OD1       -47.2100   37.9000  -75.9100 O.co2     3 ASP3        0.0000 
     35 OD1       -48.0900   37.5100  -72.7000 O.co2     3 ASP3        0.0000 
     36 OD1       -48.1800   38.1700  -74.0500 O.co2     3 ASP3        0.0000 
     37 OD1       -48.2700   38.8200  -75.4000 O.co2     3 ASP3        0.0000 
     38 OD1       -49.2500   39.0900  -73.5300 O.co2     3 ASP3        0.0000 
     39 OD1       -45.8800   36.9300  -71.4600 O.co2     3 ASP3        0.0000 
     40 OD1       -47.0400   38.5000  -72.2900 O.co2     3 ASP3        0.0000 
     41 OD1       -47.1300   39.1500  -73.6400 O.co2     3 ASP3        0.0000 
     42 OD1       -48.1900   40.0800  -73.1200 O.co2     3 ASP3        0.0000 
     43 OD1       -43.7700   36.9900  -71.5700 O.co2     3 ASP3        0.0000 
     44 OD1       -44.8300   37.9100  -71.0600 O.co2     3 ASP3        0.0000 
     45 OD1       -44.9200   38.5700  -72.4000 O.co2     3 ASP3        0.0000 
     46 OD1       -46.0800   40.1400  -73.2300 O.co2     3 ASP3        0.0000 
     47 OD1       -47.1400   41.0600  -72.7200 O.co2     3 ASP3        0.0000 
     48 OD1       -48.2000   41.9800  -72.2000 O.co2     3 ASP3        0.0000 
     49 OD1       -42.8000   38.6300  -72.5100 O.co2     3 ASP3        0.0000 
     50 OD1       -46.0900   42.0500  -72.3100 O.co2     3 ASP3        0.0000 
     51 OD1       -47.1500   42.9700  -71.7900 O.co2     3 ASP3        0.0000 
     52 NZ        -46.8500   35.2900  -70.5200 N.4       4 LYS4        0.0000 
     53 NZ        -46.9400   35.9400  -71.8700 N.4       4 LYS4        0.0000 
     54 NZ        -45.7900   36.2800  -70.1100 N.4       4 LYS4        0.0000 
     55 NZ        -47.0700   44.2300  -69.5200 N.4       4 LYS4        0.0000 
     56 CZ        -47.3000   38.5500  -77.2600 C.ar      5 PHE5        0.0000 
     57 CA        -51.0700   33.2500  -71.2300 C.3       6 GLY6        0.0000 
     58 CA        -52.4100   36.1300  -74.7500 C.3       6 GLY6        0.0000 
     59 CA        -52.5000   36.7800  -76.1000 C.3       6 GLY6        0.0000 
     60 CA        -53.3800   36.3900  -72.8900 C.3       6 GLY6        0.0000 
     61 CA        -51.2600   36.4600  -73.0000 C.3       6 GLY6        0.0000 
     62 CA        -51.3500   37.1100  -74.3400 C.3       6 GLY6        0.0000 
     63 CA        -50.2100   37.4500  -72.5900 C.3       6 GLY6        0.0000 
     64 CA        -50.3000   38.1000  -73.9400 C.3       6 GLY6        0.0000 
     65 CA        -51.2700   38.3700  -72.0700 C.3       6 GLY6        0.0000 
     66 CA        -50.2200   39.3600  -71.6700 C.3       6 GLY6        0.0000 
     67 CA        -49.1700   40.3400  -71.2600 C.3       6 GLY6        0.0000 
     68 CA        -48.1100   41.3300  -70.8500 C.3       6 GLY6        0.0000 
     69 CA        -42.6200   37.3300  -69.8200 C.3       6 GLY6        0.0000 
     70 CA        -42.7100   37.9800  -71.1700 C.3       6 GLY6        0.0000 
     71 CA        -43.9600   40.2100  -73.3400 C.3       6 GLY6        0.0000 
     72 CA        -48.2100   43.8900  -71.2800 C.3       6 GLY6        0.0000 
     73 CA        -41.5700   38.3200  -69.4100 C.3       6 GLY6        0.0000 
     74 CA        -44.8500   41.7300  -69.2100 C.3       6 GLY6        0.0000 
     75 CA        -44.9400   42.3900  -70.5500 C.3       6 GLY6        0.0000 
     76 CA        -45.0300   43.0400  -71.9000 C.3       6 GLY6        0.0000 
     77 CA        -46.0100   43.3100  -70.0400 C.3       6 GLY6        0.0000 
     78 CA        -47.1600   44.8800  -70.8700 C.3       6 GLY6        0.0000 
     79 CA        -48.1400   45.1500  -69.0000 C.3       6 GLY6        0.0000 
     80 DU        -52.2200   34.8200  -72.0600 H         7 CUB7        0.0000 
     81 DU        -51.1700   35.8100  -71.6500 H         7 CUB7        0.0000 
     82 DU        -49.1400   36.5300  -73.1100 H         7 CUB7        0.0000 
     83 DU        -49.2400   37.1800  -74.4500 H         7 CUB7        0.0000 
     84 DU        -50.1200   36.8000  -71.2400 H         7 CUB7        0.0000 
     85 DU        -48.0000   36.8600  -71.3500 H         7 CUB7        0.0000 
     86 DU        -49.1600   38.4400  -72.1800 H         7 CUB7        0.0000 
     87 DU        -46.9500   37.8500  -70.9500 H         7 CUB7        0.0000 
     88 DU        -48.1000   39.4200  -71.7800 H         7 CUB7        0.0000 
     89 DU        -45.8900   38.8400  -70.5400 H         7 CUB7        0.0000 
     90 DU        -45.9800   39.4900  -71.8900 H         7 CUB7        0.0000 
     91 DU        -47.0500   40.4100  -71.3700 H         7 CUB7        0.0000 
     92 DU        -44.9300   40.4800  -71.4800 H         7 CUB7        0.0000 
     93 DU        -45.9100   40.7500  -69.6100 H         7 CUB7        0.0000 
     94 DU        -46.0000   41.4000  -70.9600 H         7 CUB7        0.0000 
     95 DU        -47.0600   42.3200  -70.4400 H         7 CUB7        0.0000 
@<TRIPOS>BOND
@<TRIPOS>SUBSTRUCTURE
     1 SER1        1 GROUP   
     2 ALA2        6 GROUP   
     3 ASP3       28 GROUP   
     4 LYS4       52 GROUP   
     5 PHE5       56 GROUP   
     6 GLY6       57 GROUP   
     7 CUB7       80 GROUP   
@<TRIPOS>SET

