#    Name: 6hl7_2_CP_CAVITY_N1_4
#    Modification time : Fri May 22 19:27:24 2020

@<TRIPOS>MOLECULE
6hl7_2_CP_CAVITY_N1_4
   36     0     6     0     0
SMALL
NO_CHARGES


@<TRIPOS>ATOM
      1 OG        -49.4000   36.5700  -78.0800 O.3       1 SER1        0.0000 
      2 OG        -48.3500   37.5600  -77.6700 O.3       1 SER1        0.0000 
      3 N         -53.3700   34.4900  -73.8100 N.am      2 ALA2        0.0000 
      4 N         -51.2500   34.5500  -73.9200 N.am      2 ALA2        0.0000 
      5 N         -51.4300   35.8600  -76.6200 N.am      2 ALA2        0.0000 
      6 N         -52.3200   35.4700  -73.4000 N.am      2 ALA2        0.0000 
      7 N         -50.2000   35.5400  -73.5100 N.am      2 ALA2        0.0000 
      8 N         -50.2900   36.1900  -74.8600 N.am      2 ALA2        0.0000 
      9 N         -50.3800   36.8400  -76.2100 N.am      2 ALA2        0.0000 
     10 N         -50.4700   37.4900  -77.5600 N.am      2 ALA2        0.0000 
     11 N         -49.3300   37.8300  -75.8000 N.am      2 ALA2        0.0000 
     12 N         -49.4200   38.4800  -77.1500 N.am      2 ALA2        0.0000 
     13 OD1       -49.1300   34.6200  -74.0300 O.co2     3 ASP3        0.0000 
     14 OD1       -49.2200   35.2700  -75.3800 O.co2     3 ASP3        0.0000 
     15 OD1       -49.3100   35.9200  -76.7300 O.co2     3 ASP3        0.0000 
     16 OD1       -48.0800   35.6000  -73.6200 O.co2     3 ASP3        0.0000 
     17 OD1       -48.1700   36.2600  -74.9700 O.co2     3 ASP3        0.0000 
     18 OD1       -48.2600   36.9100  -76.3200 O.co2     3 ASP3        0.0000 
     19 OD1       -47.2100   37.9000  -75.9100 O.co2     3 ASP3        0.0000 
     20 OD1       -48.0900   37.5100  -72.7000 O.co2     3 ASP3        0.0000 
     21 OD1       -48.1800   38.1700  -74.0500 O.co2     3 ASP3        0.0000 
     22 OD1       -48.2700   38.8200  -75.4000 O.co2     3 ASP3        0.0000 
     23 OD1       -49.2500   39.0900  -73.5300 O.co2     3 ASP3        0.0000 
     24 OD1       -47.1300   39.1500  -73.6400 O.co2     3 ASP3        0.0000 
     25 OD1       -48.1900   40.0800  -73.1200 O.co2     3 ASP3        0.0000 
     26 OD1       -46.0800   40.1400  -73.2300 O.co2     3 ASP3        0.0000 
     27 CZ        -47.3000   38.5500  -77.2600 C.ar      4 PHE5        0.0000 
     28 CA        -52.4100   36.1300  -74.7500 C.3       5 GLY6        0.0000 
     29 CA        -52.5000   36.7800  -76.1000 C.3       5 GLY6        0.0000 
     30 CA        -53.3800   36.3900  -72.8900 C.3       5 GLY6        0.0000 
     31 CA        -51.2600   36.4600  -73.0000 C.3       5 GLY6        0.0000 
     32 CA        -51.3500   37.1100  -74.3400 C.3       5 GLY6        0.0000 
     33 CA        -50.2100   37.4500  -72.5900 C.3       5 GLY6        0.0000 
     34 CA        -50.3000   38.1000  -73.9400 C.3       5 GLY6        0.0000 
     35 DU        -49.1400   36.5300  -73.1100 H         6 CUB7        0.0000 
     36 DU        -49.2400   37.1800  -74.4500 H         6 CUB7        0.0000 
@<TRIPOS>BOND
@<TRIPOS>SUBSTRUCTURE
     1 SER1        1 GROUP   
     2 ALA2        3 GROUP   
     3 ASP3       13 GROUP   
     4 PHE5       27 GROUP   
     5 GLY6       28 GROUP   
     6 CUB7       35 GROUP   
@<TRIPOS>SET

