#    Name: 6hl7_1_CP_CAVITY_N1_4
#    Modification time : Fri May 22 19:27:20 2020

@<TRIPOS>MOLECULE
6hl7_1_CP_CAVITY_N1_4
   55     0     5     0     0
SMALL
NO_CHARGES


@<TRIPOS>ATOM
      1 OG        -36.2700    5.2000  -69.0900 O.3       1 SER1        0.0000 
      2 OG        -36.3700    5.8500  -70.4400 O.3       1 SER1        0.0000 
      3 OG        -37.4300    6.7700  -69.9200 O.3       1 SER1        0.0000 
      4 OG        -35.0400    4.8800  -65.9900 O.3       1 SER1        0.0000 
      5 OG        -35.1300    5.5300  -67.3400 O.3       1 SER1        0.0000 
      6 OG        -37.5300    9.3300  -70.3500 O.3       1 SER1        0.0000 
      7 N         -35.3100    6.8400  -70.0400 N.am      2 ALA2        0.0000 
      8 O         -36.1000    5.8000  -65.4700 O.2       2 ALA2        0.0000 
      9 N         -36.2900    7.1100  -68.1700 N.am      2 ALA2        0.0000 
     10 N         -36.3800    7.7600  -69.5200 N.am      2 ALA2        0.0000 
     11 N         -36.4700    8.4100  -70.8700 N.am      2 ALA2        0.0000 
     12 O         -37.1700    6.7200  -64.9600 O.2       2 ALA2        0.0000 
     13 N         -37.4400    8.6800  -69.0000 N.am      2 ALA2        0.0000 
     14 N         -34.1700    7.1700  -68.2800 N.am      2 ALA2        0.0000 
     15 N         -35.2300    8.0900  -67.7600 N.am      2 ALA2        0.0000 
     16 N         -36.3900    9.6700  -68.5900 N.am      2 ALA2        0.0000 
     17 N         -36.4800   10.3200  -69.9400 N.am      2 ALA2        0.0000 
     18 O         -37.6300   11.8900  -70.7700 O.2       2 ALA2        0.0000 
     19 O         -38.6100   12.1600  -68.9100 O.2       2 ALA2        0.0000 
     20 N         -39.5800   12.4300  -67.0400 N.am      2 ALA2        0.0000 
     21 O         -37.6400   13.8000  -69.8500 O.2       2 ALA2        0.0000 
     22 OD1       -38.3100    6.3900  -66.7100 O.co2     3 ASP3        0.0000 
     23 OD1       -38.4000    7.0400  -68.0600 O.co2     3 ASP3        0.0000 
     24 OD1       -38.4900    7.6900  -69.4100 O.co2     3 ASP3        0.0000 
     25 OD1       -36.2000    6.4500  -66.8200 O.co2     3 ASP3        0.0000 
     26 OD1       -37.2600    7.3800  -66.3000 O.co2     3 ASP3        0.0000 
     27 OD1       -37.3500    8.0300  -67.6500 O.co2     3 ASP3        0.0000 
     28 OD1       -38.2300    7.6500  -64.4400 O.co2     3 ASP3        0.0000 
     29 OD1       -38.3200    8.3000  -65.7900 O.co2     3 ASP3        0.0000 
     30 OD1       -38.4100    8.9500  -67.1400 O.co2     3 ASP3        0.0000 
     31 OD1       -38.5000    9.6000  -68.4800 O.co2     3 ASP3        0.0000 
     32 OD1       -39.4800    9.8700  -66.6200 O.co2     3 ASP3        0.0000 
     33 OD1       -39.5700   10.5200  -67.9700 O.co2     3 ASP3        0.0000 
     34 OD1       -35.1400    7.4400  -66.4200 O.co2     3 ASP3        0.0000 
     35 OD1       -36.3000    9.0200  -67.2500 O.co2     3 ASP3        0.0000 
     36 OD1       -37.3600    9.9400  -66.7300 O.co2     3 ASP3        0.0000 
     37 OD1       -38.4300   10.8600  -66.2100 O.co2     3 ASP3        0.0000 
     38 OD1       -37.3700   11.8500  -65.8000 O.co2     3 ASP3        0.0000 
     39 CZ        -37.3400    6.1200  -68.5800 C.ar      4 PHE5        0.0000 
     40 CA        -37.1600    4.8200  -65.8800 C.3       5 GLY6        0.0000 
     41 CA        -37.2500    5.4700  -67.2300 C.3       5 GLY6        0.0000 
     42 CA        -38.2200    5.7400  -65.3600 C.3       5 GLY6        0.0000 
     43 CA        -35.2200    6.1800  -68.6900 C.3       5 GLY6        0.0000 
     44 CA        -37.6200    9.9800  -71.7000 C.3       5 GLY6        0.0000 
     45 CA        -38.6000   10.2500  -69.8300 C.3       5 GLY6        0.0000 
     46 CA        -34.0800    6.5200  -66.9300 C.3       5 GLY6        0.0000 
     47 CA        -36.5700   10.9700  -71.2900 C.3       5 GLY6        0.0000 
     48 CA        -37.4500   10.5900  -68.0800 C.3       5 GLY6        0.0000 
     49 CA        -37.5400   11.2400  -69.4200 C.3       5 GLY6        0.0000 
     50 CA        -38.5200   11.5100  -67.5600 C.3       5 GLY6        0.0000 
     51 CA        -39.6700   13.0900  -68.3900 C.3       5 GLY6        0.0000 
     52 CA        -33.0200    7.5100  -66.5300 C.3       5 GLY6        0.0000 
     53 CA        -36.5800   12.8800  -70.3600 C.3       5 GLY6        0.0000 
     54 CA        -37.4600   12.5000  -67.1500 C.3       5 GLY6        0.0000 
     55 CA        -37.5500   13.1500  -68.5000 C.3       5 GLY6        0.0000 
@<TRIPOS>BOND
@<TRIPOS>SUBSTRUCTURE
     1 SER1        1 GROUP   
     2 ALA2        7 GROUP   
     3 ASP3       22 GROUP   
     4 PHE5       39 GROUP   
     5 GLY6       40 GROUP   
@<TRIPOS>SET

