#    Name: 6fg0_3_NAD
#    Modification time : Fri May 22 19:27:39 2020

@<TRIPOS>MOLECULE
6fg0_3_NAD
   44    48     1     0     1
SMALL
NO_CHARGES


@<TRIPOS>ATOM
      1 PA        -35.5850   53.2920  -51.7540 P.3       1 NAD503      0.0000 
      2 O1A       -35.6040   54.0630  -53.0320 O.co2     1 NAD503      0.0000 
      3 O2A       -36.4700   52.0750  -51.6550 O.co2     1 NAD503      0.0000 
      4 O5B       -35.9030   54.2850  -50.5280 O.3       1 NAD503      0.0000 
      5 C5B       -35.4350   55.6190  -50.4190 C.3       1 NAD503      0.0000 
      6 C4B       -36.0890   56.1880  -49.1630 C.3       1 NAD503      0.0000 
      7 O4B       -35.2290   57.2340  -48.6910 O.3       1 NAD503      0.0000 
      8 C3B       -37.4740   56.7700  -49.4090 C.3       1 NAD503      0.0000 
      9 O3B       -38.4050   56.4140  -48.3690 O.3       1 NAD503      0.0000 
     10 C2B       -37.1800   58.2700  -49.4990 C.3       1 NAD503      0.0000 
     11 O2B       -38.2820   59.1460  -49.2490 O.3       1 NAD503      0.0000 
     12 C1B       -36.0320   58.4080  -48.5040 C.3       1 NAD503      0.0000 
     13 N9A       -35.2140   59.6380  -48.6320 N.pl3     1 NAD503      0.0000 
     14 C8A       -34.6670   60.1820  -49.7460 C.2       1 NAD503      0.0000 
     15 N7A       -33.9910   61.3270  -49.4270 N.2       1 NAD503      0.0000 
     16 C5A       -34.0750   61.4560  -48.0710 C.ar      1 NAD503      0.0000 
     17 C6A       -33.5940   62.4380  -47.0820 C.ar      1 NAD503      0.0000 
     18 N6A       -32.8700   63.4870  -47.5140 N.pl3     1 NAD503      0.0000 
     19 N1A       -33.9170   62.2850  -45.7830 N.ar      1 NAD503      0.0000 
     20 C2A       -34.6500   61.2220  -45.3750 C.ar      1 NAD503      0.0000 
     21 N3A       -35.1740   60.3180  -46.2390 N.ar      1 NAD503      0.0000 
     22 C4A       -34.9120   60.3860  -47.5760 C.ar      1 NAD503      0.0000 
     23 O3        -34.0430   52.9070  -51.5550 O.3       1 NAD503      0.0000 
     24 PN        -33.4610   51.4780  -51.0620 P.3       1 NAD503      0.0000 
     25 O1N       -33.5160   50.4660  -52.1860 O.co2     1 NAD503      0.0000 
     26 O2N       -33.9200   51.1510  -49.6700 O.co2     1 NAD503      0.0000 
     27 O5D       -31.9230   51.8840  -50.9390 O.3       1 NAD503      0.0000 
     28 C5D       -31.5150   52.8770  -49.9890 C.3       1 NAD503      0.0000 
     29 C4D       -30.0130   53.1360  -50.1460 C.3       1 NAD503      0.0000 
     30 O4D       -29.2460   51.9980  -49.6990 O.3       1 NAD503      0.0000 
     31 C3D       -29.6050   53.3910  -51.5870 C.3       1 NAD503      0.0000 
     32 O3D       -28.6390   54.4520  -51.6440 O.3       1 NAD503      0.0000 
     33 C2D       -28.9590   52.0540  -51.9710 C.3       1 NAD503      0.0000 
     34 O2D       -28.0670   52.1930  -53.0770 O.3       1 NAD503      0.0000 
     35 C1D       -28.2550   51.6860  -50.6760 C.3       1 NAD503      0.0000 
     36 N1N       -27.8030   50.3040  -50.5090 N.pl3     1 NAD503      0.0000 
     37 C2N       -26.6150   50.0950  -49.9180 C.ar      1 NAD503      0.0000 
     38 C3N       -26.0950   48.8220  -49.7120 C.ar      1 NAD503      0.0000 
     39 C7N       -24.7740   48.6190  -49.0280 C.2       1 NAD503      0.0000 
     40 O7N       -24.2590   47.4920  -49.0400 O.2       1 NAD503      0.0000 
     41 N7N       -24.2030   49.6260  -48.3360 N.am      1 NAD503      0.0000 
     42 C4N       -26.8550   47.7160  -50.1680 C.ar      1 NAD503      0.0000 
     43 C5N       -28.1100   47.9420  -50.6970 C.ar      1 NAD503      0.0000 
     44 C6N       -28.5550   49.2510  -50.8870 C.ar      1 NAD503      0.0000 
@<TRIPOS>BOND
     1    1    2 ar   
     2    1    3 ar   
     3    1    4 1    
     4    1   23 1    
     5    4    5 1    
     6    5    6 1    
     7    6    7 1    
     8    6    8 1    
     9    7   12 1    
    10    8    9 1    
    11    8   10 1    
    12   10   11 1    
    13   10   12 1    
    14   12   13 1    
    15   13   14 1    
    16   13   22 1    
    17   14   15 2    
    18   15   16 1    
    19   16   17 ar   
    20   16   22 ar   
    21   17   18 1    
    22   17   19 ar   
    23   19   20 ar   
    24   20   21 ar   
    25   21   22 ar   
    26   23   24 1    
    27   24   25 ar   
    28   24   26 ar   
    29   24   27 1    
    30   27   28 1    
    31   28   29 1    
    32   29   30 1    
    33   29   31 1    
    34   30   35 1    
    35   31   32 1    
    36   31   33 1    
    37   33   34 1    
    38   33   35 1    
    39   35   36 1    
    40   36   37 ar   
    41   36   44 ar   
    42   37   38 ar   
    43   38   39 1    
    44   38   42 ar   
    45   39   40 2    
    46   39   41 am   
    47   42   43 ar   
    48   43   44 ar   
@<TRIPOS>SUBSTRUCTURE
     1 NAD503      1 GROUP   
@<TRIPOS>SET
ATOM$ORANGE STATIC     ATOMS   COLORGROUP SYSTEM 
42 5 5 6 6 8 8 10 10 12 12 14 14 16 16 17 17 20 \
20 22 22 28 28 29 29 31 31 33 33 35 35 37 37 38 38 39 \
39 42 42 43 43 44 44 

