#    Name: 6fg0_1_NAD
#    Modification time : Fri May 22 19:27:22 2020

@<TRIPOS>MOLECULE
6fg0_1_NAD
   44    48     1     0     1
SMALL
NO_CHARGES


@<TRIPOS>ATOM
      1 PA          0.7240   14.0940  -24.8420 P.3       1 NAD503      0.0000 
      2 O1A         0.7450   12.6120  -24.5050 O.co2     1 NAD503      0.0000 
      3 O2A         1.6190   14.6680  -25.8790 O.co2     1 NAD503      0.0000 
      4 O5B         1.0390   14.8760  -23.4940 O.3       1 NAD503      0.0000 
      5 C5B         0.6090   14.5230  -22.1970 C.3       1 NAD503      0.0000 
      6 C4B         1.2530   15.5000  -21.2040 C.3       1 NAD503      0.0000 
      7 O4B         0.3940   15.5830  -20.0660 O.3       1 NAD503      0.0000 
      8 C3B         2.6490   15.0780  -20.7440 C.3       1 NAD503      0.0000 
      9 O3B         3.5710   16.1930  -20.6900 O.3       1 NAD503      0.0000 
     10 C2B         2.3550   14.4620  -19.3740 C.3       1 NAD503      0.0000 
     11 O2B         3.4570   14.3680  -18.4680 O.3       1 NAD503      0.0000 
     12 C1B         1.2250   15.3790  -18.9210 C.3       1 NAD503      0.0000 
     13 N9A         0.4040   14.8700  -17.8280 N.pl3     1 NAD503      0.0000 
     14 C8A        -0.1090   13.5980  -17.7360 C.2       1 NAD503      0.0000 
     15 N7A        -0.8050   13.4780  -16.6040 N.2       1 NAD503      0.0000 
     16 C5A        -0.6990   14.6500  -15.9330 C.ar      1 NAD503      0.0000 
     17 C6A        -1.2050   15.1860  -14.6520 C.ar      1 NAD503      0.0000 
     18 N6A        -1.9420   14.4490  -13.8270 N.pl3     1 NAD503      0.0000 
     19 N1A        -0.9030   16.4620  -14.3110 N.ar      1 NAD503      0.0000 
     20 C2A        -0.1730   17.2220  -15.1420 C.ar      1 NAD503      0.0000 
     21 N3A         0.3350   16.8230  -16.3070 N.ar      1 NAD503      0.0000 
     22 C4A         0.1030   15.5570  -16.7420 C.ar      1 NAD503      0.0000 
     23 O3         -0.8180   14.4380  -25.1030 O.3       1 NAD503      0.0000 
     24 PN         -1.4050   15.3900  -26.2420 P.3       1 NAD503      0.0000 
     25 O1N        -1.2890   14.7250  -27.5680 O.co2     1 NAD503      0.0000 
     26 O2N        -0.8900   16.8190  -26.0390 O.co2     1 NAD503      0.0000 
     27 O5D        -2.9530   15.3770  -25.8300 O.3       1 NAD503      0.0000 
     28 C5D        -3.4010   15.9280  -24.5880 C.3       1 NAD503      0.0000 
     29 C4D        -4.8790   15.6400  -24.3530 C.3       1 NAD503      0.0000 
     30 O4D        -5.6800   16.5000  -25.1880 O.3       1 NAD503      0.0000 
     31 C3D        -5.3240   14.2070  -24.6180 C.3       1 NAD503      0.0000 
     32 O3D        -6.3070   13.8080  -23.6700 O.3       1 NAD503      0.0000 
     33 C2D        -5.9820   14.3180  -25.9780 C.3       1 NAD503      0.0000 
     34 O2D        -6.8860   13.2380  -26.2400 O.3       1 NAD503      0.0000 
     35 C1D        -6.6380   15.6850  -25.8500 C.3       1 NAD503      0.0000 
     36 N1N        -7.0740   16.3370  -27.0940 N.pl3     1 NAD503      0.0000 
     37 C2N        -8.2730   16.9520  -27.0660 C.ar      1 NAD503      0.0000 
     38 C3N        -8.7830   17.5820  -28.1930 C.ar      1 NAD503      0.0000 
     39 C7N       -10.0980   18.2990  -28.1470 C.2       1 NAD503      0.0000 
     40 O7N       -10.5980   18.7060  -29.1930 O.2       1 NAD503      0.0000 
     41 N7N       -10.6850   18.6170  -26.9830 N.am      1 NAD503      0.0000 
     42 C4N        -8.0090   17.5960  -29.3680 C.ar      1 NAD503      0.0000 
     43 C5N        -6.7470   17.0120  -29.3460 C.ar      1 NAD503      0.0000 
     44 C6N        -6.2900   16.3890  -28.2020 C.ar      1 NAD503      0.0000 
@<TRIPOS>BOND
     1    1    2 ar   
     2    1    3 ar   
     3    1    4 1    
     4    1   23 1    
     5    4    5 1    
     6    5    6 1    
     7    6    7 1    
     8    6    8 1    
     9    7   12 1    
    10    8    9 1    
    11    8   10 1    
    12   10   11 1    
    13   10   12 1    
    14   12   13 1    
    15   13   14 1    
    16   13   22 1    
    17   14   15 2    
    18   15   16 1    
    19   16   17 ar   
    20   16   22 ar   
    21   17   18 1    
    22   17   19 ar   
    23   19   20 ar   
    24   20   21 ar   
    25   21   22 ar   
    26   23   24 1    
    27   24   25 ar   
    28   24   26 ar   
    29   24   27 1    
    30   27   28 1    
    31   28   29 1    
    32   29   30 1    
    33   29   31 1    
    34   30   35 1    
    35   31   32 1    
    36   31   33 1    
    37   33   34 1    
    38   33   35 1    
    39   35   36 1    
    40   36   37 ar   
    41   36   44 ar   
    42   37   38 ar   
    43   38   39 1    
    44   38   42 ar   
    45   39   40 2    
    46   39   41 am   
    47   42   43 ar   
    48   43   44 ar   
@<TRIPOS>SUBSTRUCTURE
     1 NAD503      1 GROUP   
@<TRIPOS>SET
ATOM$ORANGE STATIC     ATOMS   COLORGROUP SYSTEM 
42 5 5 6 6 8 8 10 10 12 12 14 14 16 16 17 17 20 \
20 22 22 28 28 29 29 31 31 33 33 35 35 37 37 38 38 39 \
39 42 42 43 43 44 44 

