#    Name: 6fg0_2_NAD
#    Modification time : Fri May 22 19:27:31 2020

@<TRIPOS>MOLECULE
6fg0_2_NAD
   44    48     1     0     1
SMALL
NO_CHARGES


@<TRIPOS>ATOM
      1 PA          4.7170   64.3150  -29.2300 P.3       1 NAD503      0.0000 
      2 O1A         4.9820   65.7670  -29.5170 O.co2     1 NAD503      0.0000 
      3 O2A         5.3970   63.6000  -28.0920 O.co2     1 NAD503      0.0000 
      4 O5B         5.0750   63.4690  -30.5290 O.3       1 NAD503      0.0000 
      5 C5B         4.8100   63.8660  -31.8460 C.3       1 NAD503      0.0000 
      6 C4B         5.4860   62.8650  -32.7620 C.3       1 NAD503      0.0000 
      7 O4B         4.7830   62.9080  -33.9940 O.3       1 NAD503      0.0000 
      8 C3B         6.9550   63.1230  -33.0660 C.3       1 NAD503      0.0000 
      9 O3B         7.6610   61.8860  -33.0360 O.3       1 NAD503      0.0000 
     10 C2B         6.9330   63.6790  -34.4830 C.3       1 NAD503      0.0000 
     11 O2B         8.1010   63.5080  -35.2940 O.3       1 NAD503      0.0000 
     12 C1B         5.7230   62.9530  -35.0610 C.3       1 NAD503      0.0000 
     13 N9A         5.0770   63.5750  -36.2390 N.pl3     1 NAD503      0.0000 
     14 C8A         4.6930   64.8690  -36.3720 C.2       1 NAD503      0.0000 
     15 N7A         4.1410   65.0580  -37.5950 N.2       1 NAD503      0.0000 
     16 C5A         4.1670   63.8690  -38.2230 C.ar      1 NAD503      0.0000 
     17 C6A         3.7480   63.3930  -39.5250 C.ar      1 NAD503      0.0000 
     18 N6A         3.1830   64.2460  -40.3900 N.pl3     1 NAD503      0.0000 
     19 N1A         3.9360   62.0780  -39.8250 N.ar      1 NAD503      0.0000 
     20 C2A         4.5080   61.2490  -38.9590 C.ar      1 NAD503      0.0000 
     21 N3A         4.9530   61.6120  -37.7500 N.ar      1 NAD503      0.0000 
     22 C4A         4.8090   62.9140  -37.3520 C.ar      1 NAD503      0.0000 
     23 O3          3.1180   64.1760  -29.1670 O.3       1 NAD503      0.0000 
     24 PN          2.2730   63.3380  -28.1030 P.3       1 NAD503      0.0000 
     25 O1N         2.3500   64.0230  -26.7680 O.co2     1 NAD503      0.0000 
     26 O2N         2.6300   61.8660  -28.2280 O.co2     1 NAD503      0.0000 
     27 O5D         0.7900   63.5810  -28.6740 O.3       1 NAD503      0.0000 
     28 C5D         0.4300   63.1170  -29.9830 C.3       1 NAD503      0.0000 
     29 C4D        -0.9640   63.5830  -30.3460 C.3       1 NAD503      0.0000 
     30 O4D        -1.8970   62.8610  -29.5230 O.3       1 NAD503      0.0000 
     31 C3D        -1.2110   65.0780  -30.1250 C.3       1 NAD503      0.0000 
     32 O3D        -1.9800   65.6320  -31.2070 O.3       1 NAD503      0.0000 
     33 C2D        -2.0030   65.0970  -28.8310 C.3       1 NAD503      0.0000 
     34 O2D        -2.7560   66.3130  -28.6210 O.3       1 NAD503      0.0000 
     35 C1D        -2.8180   63.8280  -29.0160 C.3       1 NAD503      0.0000 
     36 N1N        -3.4560   63.2440  -27.8310 N.pl3     1 NAD503      0.0000 
     37 C2N        -4.7340   62.8510  -27.9550 C.ar      1 NAD503      0.0000 
     38 C3N        -5.4390   62.2810  -26.8970 C.ar      1 NAD503      0.0000 
     39 C7N        -6.8530   61.8030  -27.0950 C.2       1 NAD503      0.0000 
     40 O7N        -7.5520   61.5440  -26.1220 O.2       1 NAD503      0.0000 
     41 N7N        -7.3260   61.5210  -28.3220 N.am      1 NAD503      0.0000 
     42 C4N        -4.7900   62.1240  -25.6470 C.ar      1 NAD503      0.0000 
     43 C5N        -3.4350   62.5010  -25.5680 C.ar      1 NAD503      0.0000 
     44 C6N        -2.7950   63.0630  -26.6510 C.ar      1 NAD503      0.0000 
@<TRIPOS>BOND
     1    1    2 ar   
     2    1    3 ar   
     3    1    4 1    
     4    1   23 1    
     5    4    5 1    
     6    5    6 1    
     7    6    7 1    
     8    6    8 1    
     9    7   12 1    
    10    8    9 1    
    11    8   10 1    
    12   10   11 1    
    13   10   12 1    
    14   12   13 1    
    15   13   14 1    
    16   13   22 1    
    17   14   15 2    
    18   15   16 1    
    19   16   17 ar   
    20   16   22 ar   
    21   17   18 1    
    22   17   19 ar   
    23   19   20 ar   
    24   20   21 ar   
    25   21   22 ar   
    26   23   24 1    
    27   24   25 ar   
    28   24   26 ar   
    29   24   27 1    
    30   27   28 1    
    31   28   29 1    
    32   29   30 1    
    33   29   31 1    
    34   30   35 1    
    35   31   32 1    
    36   31   33 1    
    37   33   34 1    
    38   33   35 1    
    39   35   36 1    
    40   36   37 ar   
    41   36   44 ar   
    42   37   38 ar   
    43   38   39 1    
    44   38   42 ar   
    45   39   40 2    
    46   39   41 am   
    47   42   43 ar   
    48   43   44 ar   
@<TRIPOS>SUBSTRUCTURE
     1 NAD503      1 GROUP   
@<TRIPOS>SET
ATOM$ORANGE STATIC     ATOMS   COLORGROUP SYSTEM 
42 5 5 6 6 8 8 10 10 12 12 14 14 16 16 17 17 20 \
20 22 22 28 28 29 29 31 31 33 33 35 35 37 37 38 38 39 \
39 42 42 43 43 44 44 

