#    Name: 6fg0_2_NAD_CAVITY_N1_4
#    Modification time : Fri May 22 19:27:33 2020

@<TRIPOS>MOLECULE
6fg0_2_NAD_CAVITY_N1_4
   71     0     7     0     0
SMALL
NO_CHARGES


@<TRIPOS>ATOM
      1 OG         -6.3800   60.8400  -25.1700 O.3       1 SER1        0.0000 
      2 OG         -2.9600   63.4800  -27.6400 O.3       1 SER1        0.0000 
      3 OG         -2.4700   64.3500  -28.7500 O.3       1 SER1        0.0000 
      4 OG         -4.6900   63.4600  -26.4000 O.3       1 SER1        0.0000 
      5 OG         -4.1900   64.3300  -27.5200 O.3       1 SER1        0.0000 
      6 OG         -3.7000   65.2000  -28.6300 O.3       1 SER1        0.0000 
      7 OG          2.9100   64.4200  -30.3500 O.3       1 SER1        0.0000 
      8 OG         -1.7600   65.2300  -27.7600 O.3       1 SER1        0.0000 
      9 OG         -5.4500   67.7800  -27.3900 O.3       1 SER1        0.0000 
     10 OG          4.8500   64.4400  -29.4700 O.3       1 SER1        0.0000 
     11 OG          5.3400   65.3100  -30.5900 O.3       1 SER1        0.0000 
     12 OG          3.6200   65.2900  -29.3500 O.3       1 SER1        0.0000 
     13 N          -6.0900   61.7100  -28.4000 N.am      2 ALA2        0.0000 
     14 N          -7.8200   61.6900  -27.1600 N.am      2 ALA2        0.0000 
     15 N          -7.3200   62.5600  -28.2800 N.am      2 ALA2        0.0000 
     16 N          -0.7100   61.7800  -29.9900 N.am      2 ALA2        0.0000 
     17 N          -1.4500   63.5000  -30.9900 N.am      2 ALA2        0.0000 
     18 N          -3.6700   62.6100  -28.6400 N.am      2 ALA2        0.0000 
     19 N          -5.3900   62.5900  -27.4000 N.am      2 ALA2        0.0000 
     20 N          -4.8900   63.4600  -28.5100 N.am      2 ALA2        0.0000 
     21 O          -7.6100   61.6900  -25.0500 O.2       2 ALA2        0.0000 
     22 N           1.7100   62.6700  -30.2300 N.am      2 ALA2        0.0000 
     23 N           0.4900   63.5200  -30.1100 N.am      2 ALA2        0.0000 
     24 N          -0.7400   64.3700  -29.9900 N.am      2 ALA2        0.0000 
     25 O          -1.9700   65.2300  -29.8700 O.2       2 ALA2        0.0000 
     26 O           3.6500   62.6900  -29.3600 O.2       2 ALA2        0.0000 
     27 N          -1.0300   63.5000  -26.7600 N.am      2 ALA2        0.0000 
     28 O           4.3500   63.5600  -28.3600 O.2       2 ALA2        0.0000 
     29 O           1.4000   64.3900  -27.0000 O.2       2 ALA2        0.0000 
     30 OD1        -2.7500   63.4800  -25.5300 O.co2     3 ASP3        0.0000 
     31 OD1        -4.4800   63.4600  -24.2900 O.co2     3 ASP3        0.0000 
     32 OD1        -5.7100   64.3100  -24.1700 O.co2     3 ASP3        0.0000 
     33 OD1         6.5700   64.4600  -30.7100 O.co2     3 ASP3        0.0000 
     34 OD1         2.6300   63.5400  -27.1200 O.co2     3 ASP3        0.0000 
     35 OD1        -5.0000   65.1800  -23.1700 O.co2     3 ASP3        0.0000 
     36 NZ         -5.6800   61.7100  -24.1800 N.4       4 LYS4        0.0000 
     37 NZ         -5.1800   62.5800  -25.2900 N.4       4 LYS4        0.0000 
     38 CZ         -9.0500   62.5400  -27.0400 C.ar      5 PHE5        0.0000 
     39 CZ         -7.1100   62.5600  -26.1600 C.ar      5 PHE5        0.0000 
     40 CZ         -8.3400   63.4200  -26.0400 C.ar      5 PHE5        0.0000 
     41 CZ         -7.6400   64.2900  -25.0500 C.ar      5 PHE5        0.0000 
     42 CZ         -6.2000   63.4300  -23.0600 C.ar      5 PHE5        0.0000 
     43 CA         -6.5900   60.8400  -27.2800 C.3       6 GLY6        0.0000 
     44 CA         -2.4400   61.7500  -28.7600 C.3       6 GLY6        0.0000 
     45 CA         -1.9400   62.6300  -29.8700 C.3       6 GLY6        0.0000 
     46 CA         -4.1600   61.7300  -27.5200 C.3       6 GLY6        0.0000 
     47 CA         -2.6700   64.3500  -30.8600 C.3       6 GLY6        0.0000 
     48 CA         -5.8900   61.7100  -26.2900 C.3       6 GLY6        0.0000 
     49 CA         -6.6200   63.4400  -27.2800 C.3       6 GLY6        0.0000 
     50 CA         -7.8500   64.2900  -27.1600 C.3       6 GLY6        0.0000 
     51 CA         -0.0100   62.6500  -29.0000 C.3       6 GLY6        0.0000 
     52 CA         -1.7300   62.6300  -27.7600 C.3       6 GLY6        0.0000 
     53 CA         -3.4600   62.6100  -26.5200 C.3       6 GLY6        0.0000 
     54 CA         -6.9100   62.5600  -24.0500 C.3       6 GLY6        0.0000 
     55 CA         -5.9200   64.3100  -26.2800 C.3       6 GLY6        0.0000 
     56 CA         -7.1400   65.1600  -26.1600 C.3       6 GLY6        0.0000 
     57 CA          5.3700   62.7100  -30.5900 C.3       6 GLY6        0.0000 
     58 CA          5.8700   63.5900  -31.7000 C.3       6 GLY6        0.0000 
     59 CA          4.1400   63.5700  -30.4700 C.3       6 GLY6        0.0000 
     60 CA          1.9200   62.6700  -28.1200 C.3       6 GLY6        0.0000 
     61 CA          2.4200   63.5400  -29.2300 C.3       6 GLY6        0.0000 
     62 CA          0.6900   63.5200  -28.0000 C.3       6 GLY6        0.0000 
     63 CA          1.1900   64.4000  -29.1100 C.3       6 GLY6        0.0000 
     64 CA          1.6900   65.2700  -30.2300 C.3       6 GLY6        0.0000 
     65 CA         -0.5300   64.3700  -27.8800 C.3       6 GLY6        0.0000 
     66 CA         -0.0400   65.2500  -28.9900 C.3       6 GLY6        0.0000 
     67 CA         -1.2700   66.1000  -28.8700 C.3       6 GLY6        0.0000 
     68 CA          3.1200   64.4200  -28.2400 C.3       6 GLY6        0.0000 
     69 DU         -1.2400   63.5000  -28.8700 H         7 CUB7        0.0000 
     70 DU         -6.4100   63.4400  -25.1700 H         7 CUB7        0.0000 
     71 DU          4.6400   64.4400  -31.5800 H         7 CUB7        0.0000 
@<TRIPOS>BOND
@<TRIPOS>SUBSTRUCTURE
     1 SER1        1 GROUP   
     2 ALA2       13 GROUP   
     3 ASP3       30 GROUP   
     4 LYS4       36 GROUP   
     5 PHE5       38 GROUP   
     6 GLY6       43 GROUP   
     7 CUB7       69 GROUP   
@<TRIPOS>SET

