#    Name: 6exn_1_GTP
#    Modification time : Fri May 22 19:41:20 2020

@<TRIPOS>MOLECULE
6exn_1_GTP
   32    34     1     0     1
SMALL
NO_CHARGES


@<TRIPOS>ATOM
      1 PG        283.1280  329.2150  304.3460 P.3       1 GTP2501     0.0000 
      2 O1G       281.9410  328.2880  304.4330 O.co2     1 GTP2501     0.0000 
      3 O2G       282.7040  330.6250  304.6510 O.co2     1 GTP2501     0.0000 
      4 O3G       284.1730  328.7600  305.3300 O.co2     1 GTP2501     0.0000 
      5 O3B       283.6530  329.2330  302.8330 O.3       1 GTP2501     0.0000 
      6 PB        285.0840  329.8440  302.4680 P.3       1 GTP2501     0.0000 
      7 O1B       284.9570  331.3370  302.3380 O.co2     1 GTP2501     0.0000 
      8 O2B       286.1500  329.4550  303.4530 O.co2     1 GTP2501     0.0000 
      9 O3A       285.3890  329.1830  301.0470 O.3       1 GTP2501     0.0000 
     10 PA        285.8180  330.0960  299.8040 P.3       1 GTP2501     0.0000 
     11 O1A       286.9360  329.4540  299.0250 O.co2     1 GTP2501     0.0000 
     12 O2A       286.1910  331.4650  300.2950 O.co2     1 GTP2501     0.0000 
     13 O5'       284.5270  330.2430  298.8810 O.3       1 GTP2501     0.0000 
     14 C5'       284.1340  331.5400  298.5310 C.3       1 GTP2501     0.0000 
     15 C4'       283.6580  331.4680  297.0960 C.3       1 GTP2501     0.0000 
     16 O4'       283.3000  332.7550  296.6680 O.3       1 GTP2501     0.0000 
     17 C3'       284.7740  331.0000  296.1910 C.3       1 GTP2501     0.0000 
     18 O3'       284.5590  329.6610  295.8290 O.3       1 GTP2501     0.0000 
     19 C2'       284.6660  331.8630  294.9620 C.3       1 GTP2501     0.0000 
     20 O2'       284.0820  331.1060  293.9330 O.3       1 GTP2501     0.0000 
     21 C1'       283.7430  332.9940  295.3540 C.3       1 GTP2501     0.0000 
     22 N9        284.4950  334.2490  295.3670 N.pl3     1 GTP2501     0.0000 
     23 C8        285.5420  334.5610  296.1830 C.2       1 GTP2501     0.0000 
     24 N7        285.9490  335.8110  295.8890 N.2       1 GTP2501     0.0000 
     25 C5        285.1720  336.2920  294.9040 C.2       1 GTP2501     0.0000 
     26 C6        285.1550  337.4980  294.2430 C.2       1 GTP2501     0.0000 
     27 O6        285.9700  338.3590  294.5390 O.2       1 GTP2501     0.0000 
     28 N1        284.2270  337.7260  293.2550 N.am      1 GTP2501     0.0000 
     29 C2        283.3160  336.7450  292.9320 C.2       1 GTP2501     0.0000 
     30 N2        282.4140  336.9500  291.9810 N.pl3     1 GTP2501     0.0000 
     31 N3        283.3400  335.5440  293.5980 N.2       1 GTP2501     0.0000 
     32 C4        284.2550  335.3230  294.5650 C.2       1 GTP2501     0.0000 
@<TRIPOS>BOND
     1    1    2 ar   
     2    1    3 ar   
     3    1    4 ar   
     4    1    5 1    
     5    5    6 1    
     6    6    7 ar   
     7    6    8 ar   
     8    6    9 1    
     9    9   10 1    
    10   10   11 ar   
    11   10   12 ar   
    12   10   13 1    
    13   13   14 1    
    14   14   15 1    
    15   15   16 1    
    16   15   17 1    
    17   16   21 1    
    18   17   18 1    
    19   17   19 1    
    20   19   20 1    
    21   19   21 1    
    22   21   22 1    
    23   22   23 1    
    24   22   32 1    
    25   23   24 2    
    26   24   25 1    
    27   25   26 1    
    28   25   32 2    
    29   26   27 2    
    30   26   28 am   
    31   28   29 1    
    32   29   30 1    
    33   29   31 2    
    34   31   32 1    
@<TRIPOS>SUBSTRUCTURE
     1 GTP2501     1 GROUP   
@<TRIPOS>SET
ATOM$ORANGE STATIC     ATOMS   COLORGROUP SYSTEM 
20 14 14 15 15 17 17 19 19 21 21 23 23 25 25 26 26 29 \
29 32 32 

