#    Name: 6b2m_6_COA
#    Modification time : Fri May 22 19:34:15 2020

@<TRIPOS>MOLECULE
6b2m_6_COA
   48    50     1     0     1
SMALL
NO_CHARGES


@<TRIPOS>ATOM
      1 N1A        26.2830   17.5270   -4.9120 N.ar      1 COA501      0.0000 
      2 C2A        26.9440   18.6330   -4.5480 C.ar      1 COA501      0.0000 
      3 N3A        28.1810   18.7440   -4.0630 N.ar      1 COA501      0.0000 
      4 C4A        28.7620   17.5440   -3.9550 C.ar      1 COA501      0.0000 
      5 C5A        28.2160   16.3200   -4.2860 C.ar      1 COA501      0.0000 
      6 C6A        26.9000   16.3290   -4.7890 C.ar      1 COA501      0.0000 
      7 N6A        26.2390   15.2250   -5.1510 N.pl3     1 COA501      0.0000 
      8 N7A        29.1170   15.2960   -4.0380 N.2       1 COA501      0.0000 
      9 C8A        30.1690   15.9140   -3.5730 C.2       1 COA501      0.0000 
     10 N9A        30.0220   17.2710   -3.4900 N.pl3     1 COA501      0.0000 
     11 C1B        30.9870   18.2460   -3.0070 C.3       1 COA501      0.0000 
     12 C2B        30.7170   18.6920   -1.5690 C.3       1 COA501      0.0000 
     13 O2B        31.0840   20.0640   -1.4020 O.3       1 COA501      0.0000 
     14 C3B        31.5500   17.6550   -0.8150 C.3       1 COA501      0.0000 
     15 O3B        31.8700   17.9860    0.5530 O.3       1 COA501      0.0000 
     16 P3B        31.4200   17.0490    1.7710 P.3       1 COA501      0.0000 
     17 O7A        30.7880   15.7740    1.2060 O.co2     1 COA501      0.0000 
     18 O8A        32.7050   16.6630    2.5520 O.co2     1 COA501      0.0000 
     19 O9A        30.4620   17.8160    2.6200 O.co2     1 COA501      0.0000 
     20 C4B        32.8140   17.5920   -1.6610 C.3       1 COA501      0.0000 
     21 O4B        32.2770   17.6570   -3.0230 O.3       1 COA501      0.0000 
     22 C5B        33.6420   16.3380   -1.4720 C.3       1 COA501      0.0000 
     23 O5B        32.8400   15.1870   -1.8220 O.3       1 COA501      0.0000 
     24 P1A        33.3690   13.7140   -1.6030 P.3       1 COA501      0.0000 
     25 O1A        32.1790   12.8410   -1.5780 O.co2     1 COA501      0.0000 
     26 O2A        34.3390   13.7240   -0.4160 O.co2     1 COA501      0.0000 
     27 O3A        34.2060   13.4060   -2.8980 O.3       1 COA501      0.0000 
     28 P2A        35.6980   12.9600   -3.2260 P.3       1 COA501      0.0000 
     29 O4A        36.6640   13.8360   -2.5290 O.co2     1 COA501      0.0000 
     30 O5A        35.7650   11.4630   -2.8930 O.co2     1 COA501      0.0000 
     31 O6A        35.8560   13.2700   -4.8030 O.3       1 COA501      0.0000 
     32 CBP        34.1860   14.1930   -6.5550 C.3       1 COA501      0.0000 
     33 CCP        34.7070   13.0680   -5.6440 C.3       1 COA501      0.0000 
     34 CDP        34.3980   15.5420   -5.8480 C.3       1 COA501      0.0000 
     35 CEP        35.0110   14.1970   -7.8430 C.3       1 COA501      0.0000 
     36 CAP        32.6550   14.0410   -6.8890 C.3       1 COA501      0.0000 
     37 OAP        32.0760   15.3270   -6.7460 O.3       1 COA501      0.0000 
     38 C9P        32.2800   13.4840   -8.2900 C.2       1 COA501      0.0000 
     39 O9P        31.6560   14.2170   -9.0560 O.2       1 COA501      0.0000 
     40 N8P        32.5330   12.1880   -8.6170 N.am      1 COA501      0.0000 
     41 C7P        33.2250   11.1790   -7.8160 C.3       1 COA501      0.0000 
     42 C6P        34.5900   10.8140   -8.3840 C.3       1 COA501      0.0000 
     43 C5P        35.3960    9.9400   -7.4320 C.2       1 COA501      0.0000 
     44 O5P        34.9030    8.9310   -6.9450 O.2       1 COA501      0.0000 
     45 N4P        36.6410   10.3300   -7.1520 N.am      1 COA501      0.0000 
     46 C3P        37.5260    9.5990   -6.2530 C.3       1 COA501      0.0000 
     47 C2P        38.6090   10.5140   -5.7250 C.3       1 COA501      0.0000 
     48 S1P        40.2130   10.1030   -6.4680 S.3       1 COA501      0.0000 
@<TRIPOS>BOND
     1    1    2 ar   
     2    1    6 ar   
     3    2    3 ar   
     4    3    4 ar   
     5    4    5 ar   
     6    4   10 1    
     7    5    6 ar   
     8    5    8 1    
     9    6    7 1    
    10    8    9 2    
    11    9   10 1    
    12   10   11 1    
    13   11   12 1    
    14   11   21 1    
    15   12   13 1    
    16   12   14 1    
    17   14   15 1    
    18   14   20 1    
    19   15   16 1    
    20   16   17 ar   
    21   16   18 ar   
    22   16   19 ar   
    23   20   21 1    
    24   20   22 1    
    25   22   23 1    
    26   23   24 1    
    27   24   25 ar   
    28   24   26 ar   
    29   24   27 1    
    30   27   28 1    
    31   28   29 ar   
    32   28   30 ar   
    33   28   31 1    
    34   31   33 1    
    35   32   33 1    
    36   32   34 1    
    37   32   35 1    
    38   32   36 1    
    39   36   37 1    
    40   36   38 1    
    41   38   39 2    
    42   38   40 am   
    43   40   41 1    
    44   41   42 1    
    45   42   43 1    
    46   43   44 2    
    47   43   45 am   
    48   45   46 1    
    49   46   47 1    
    50   47   48 1    
@<TRIPOS>SUBSTRUCTURE
     1 COA501      1 GROUP   
@<TRIPOS>SET
ATOM$ORANGE STATIC     ATOMS   COLORGROUP SYSTEM 
42 2 2 4 4 5 5 6 6 9 9 11 11 12 12 14 14 20 \
20 22 22 32 32 33 33 34 34 35 35 36 36 38 38 41 41 42 \
42 43 43 46 46 47 47 

