#    Name: 6b2m_1_COA
#    Modification time : Fri May 22 19:34:01 2020

@<TRIPOS>MOLECULE
6b2m_1_COA
   48    50     1     0     1
SMALL
NO_CHARGES


@<TRIPOS>ATOM
      1 N1A        36.8960  -46.3630  -16.4990 N.ar      1 COA501      0.0000 
      2 C2A        36.2040  -47.4320  -16.9380 C.ar      1 COA501      0.0000 
      3 N3A        34.8830  -47.5820  -17.0560 N.ar      1 COA501      0.0000 
      4 C4A        34.2400  -46.4840  -16.6560 C.ar      1 COA501      0.0000 
      5 C5A        34.8070  -45.3130  -16.1830 C.ar      1 COA501      0.0000 
      6 C6A        36.2140  -45.2660  -16.1060 C.ar      1 COA501      0.0000 
      7 N6A        36.9020  -44.2010  -15.6770 N.pl3     1 COA501      0.0000 
      8 N7A        33.8270  -44.3820  -15.8810 N.2       1 COA501      0.0000 
      9 C8A        32.7060  -45.0050  -16.1680 C.2       1 COA501      0.0000 
     10 N9A        32.8850  -46.2780  -16.6420 N.pl3     1 COA501      0.0000 
     11 C1B        31.8710  -47.2570  -17.0180 C.3       1 COA501      0.0000 
     12 C2B        31.5450  -48.2150  -15.8680 C.3       1 COA501      0.0000 
     13 O2B        31.1540  -49.4730  -16.4020 O.3       1 COA501      0.0000 
     14 C3B        30.3790  -47.4710  -15.2230 C.3       1 COA501      0.0000 
     15 O3B        29.5950  -48.2920  -14.3250 O.3       1 COA501      0.0000 
     16 P3B        29.5310  -47.9780  -12.7620 P.3       1 COA501      0.0000 
     17 O7A        30.4180  -46.7610  -12.4840 O.co2     1 COA501      0.0000 
     18 O8A        28.0690  -47.6470  -12.4170 O.co2     1 COA501      0.0000 
     19 O9A        29.9900  -49.1830  -12.0240 O.co2     1 COA501      0.0000 
     20 C4B        29.5810  -47.0440  -16.4510 C.3       1 COA501      0.0000 
     21 O4B        30.6520  -46.6000  -17.3670 O.3       1 COA501      0.0000 
     22 C5B        28.5840  -45.9370  -16.1980 C.3       1 COA501      0.0000 
     23 O5B        29.2620  -44.6630  -16.2490 O.3       1 COA501      0.0000 
     24 P1A        28.7020  -43.3900  -15.4950 P.3       1 COA501      0.0000 
     25 O1A        29.7720  -42.8550  -14.6270 O.co2     1 COA501      0.0000 
     26 O2A        27.3530  -43.7320  -14.8590 O.co2     1 COA501      0.0000 
     27 O3A        28.3930  -42.3860  -16.6560 O.3       1 COA501      0.0000 
     28 P2A        27.2270  -42.1720  -17.7190 P.3       1 COA501      0.0000 
     29 O4A        26.5110  -43.4390  -17.9830 O.co2     1 COA501      0.0000 
     30 O5A        26.3840  -41.0040  -17.1930 O.co2     1 COA501      0.0000 
     31 O6A        27.9490  -41.7910  -19.1170 O.3       1 COA501      0.0000 
     32 CBP        30.3190  -42.1870  -19.6850 C.3       1 COA501      0.0000 
     33 CCP        29.2660  -41.2200  -19.1490 C.3       1 COA501      0.0000 
     34 CDP        30.0350  -43.5810  -19.1160 C.3       1 COA501      0.0000 
     35 CEP        30.1710  -42.2670  -21.2000 C.3       1 COA501      0.0000 
     36 CAP        31.7830  -41.7800  -19.3160 C.3       1 COA501      0.0000 
     37 OAP        32.5730  -42.9320  -19.0730 O.3       1 COA501      0.0000 
     38 C9P        32.5000  -40.8670  -20.3300 C.2       1 COA501      0.0000 
     39 O9P        33.1310  -41.3750  -21.2540 O.2       1 COA501      0.0000 
     40 N8P        32.4440  -39.5430  -20.1490 N.am      1 COA501      0.0000 
     41 C7P        31.7230  -38.9000  -19.0600 C.3       1 COA501      0.0000 
     42 C6P        31.3480  -37.4760  -19.4110 C.3       1 COA501      0.0000 
     43 C5P        30.0240  -37.0550  -18.8180 C.2       1 COA501      0.0000 
     44 O5P        29.9600  -36.0540  -18.1110 O.2       1 COA501      0.0000 
     45 N4P        28.9500  -37.8040  -19.1070 N.am      1 COA501      0.0000 
     46 C3P        27.6140  -37.4890  -18.5920 C.3       1 COA501      0.0000 
     47 C2P        26.5860  -38.4810  -19.0980 C.3       1 COA501      0.0000 
     48 S1P        24.9240  -37.7470  -19.0660 S.3       1 COA501      0.0000 
@<TRIPOS>BOND
     1    1    2 ar   
     2    1    6 ar   
     3    2    3 ar   
     4    3    4 ar   
     5    4    5 ar   
     6    4   10 1    
     7    5    6 ar   
     8    5    8 1    
     9    6    7 1    
    10    8    9 2    
    11    9   10 1    
    12   10   11 1    
    13   11   12 1    
    14   11   21 1    
    15   12   13 1    
    16   12   14 1    
    17   14   15 1    
    18   14   20 1    
    19   15   16 1    
    20   16   17 ar   
    21   16   18 ar   
    22   16   19 ar   
    23   20   21 1    
    24   20   22 1    
    25   22   23 1    
    26   23   24 1    
    27   24   25 ar   
    28   24   26 ar   
    29   24   27 1    
    30   27   28 1    
    31   28   29 ar   
    32   28   30 ar   
    33   28   31 1    
    34   31   33 1    
    35   32   33 1    
    36   32   34 1    
    37   32   35 1    
    38   32   36 1    
    39   36   37 1    
    40   36   38 1    
    41   38   39 2    
    42   38   40 am   
    43   40   41 1    
    44   41   42 1    
    45   42   43 1    
    46   43   44 2    
    47   43   45 am   
    48   45   46 1    
    49   46   47 1    
    50   47   48 1    
@<TRIPOS>SUBSTRUCTURE
     1 COA501      1 GROUP   
@<TRIPOS>SET
ATOM$ORANGE STATIC     ATOMS   COLORGROUP SYSTEM 
42 2 2 4 4 5 5 6 6 9 9 11 11 12 12 14 14 20 \
20 22 22 32 32 33 33 34 34 35 35 36 36 38 38 41 41 42 \
42 43 43 46 46 47 47 

