#    Name: 6b2m_2_COA
#    Modification time : Fri May 22 19:34:05 2020

@<TRIPOS>MOLECULE
6b2m_2_COA
   48    50     1     0     1
SMALL
NO_CHARGES


@<TRIPOS>ATOM
      1 N1A        44.5570  -52.8420   26.2610 N.ar      1 COA501      0.0000 
      2 C2A        44.9870  -53.7580   25.3710 C.ar      1 COA501      0.0000 
      3 N3A        45.6570  -53.5660   24.2320 N.ar      1 COA501      0.0000 
      4 C4A        45.9010  -52.2640   24.0310 C.ar      1 COA501      0.0000 
      5 C5A        45.5370  -51.2120   24.8560 C.ar      1 COA501      0.0000 
      6 C6A        44.8230  -51.5340   26.0300 C.ar      1 COA501      0.0000 
      7 N6A        44.3910  -50.6230   26.9070 N.pl3     1 COA501      0.0000 
      8 N7A        45.9580  -50.0000   24.3230 N.2       1 COA501      0.0000 
      9 C8A        46.5610  -50.3470   23.2050 C.2       1 COA501      0.0000 
     10 N9A        46.5630  -51.6970   22.9700 N.pl3     1 COA501      0.0000 
     11 C1B        47.1020  -52.4120   21.8170 C.3       1 COA501      0.0000 
     12 C2B        46.0440  -52.6810   20.7380 C.3       1 COA501      0.0000 
     13 O2B        46.4360  -53.8410   20.0160 O.3       1 COA501      0.0000 
     14 C3B        46.1740  -51.4040   19.9070 C.3       1 COA501      0.0000 
     15 O3B        45.5480  -51.4920   18.6010 O.3       1 COA501      0.0000 
     16 P3B        44.3060  -50.5500   18.1700 P.3       1 COA501      0.0000 
     17 O7A        43.9710  -49.5920   19.3170 O.co2     1 COA501      0.0000 
     18 O8A        44.7450  -49.7780   16.9060 O.co2     1 COA501      0.0000 
     19 O9A        43.1160  -51.3970   17.9370 O.co2     1 COA501      0.0000 
     20 C4B        47.6930  -51.2840   19.8150 C.3       1 COA501      0.0000 
     21 O4B        48.1190  -51.6350   21.1970 O.3       1 COA501      0.0000 
     22 C5B        48.2320  -49.9270   19.4270 C.3       1 COA501      0.0000 
     23 O5B        47.9880  -48.9930   20.5010 O.3       1 COA501      0.0000 
     24 P1A        47.9400  -47.4310   20.2460 P.3       1 COA501      0.0000 
     25 O1A        46.6660  -46.8600   20.7330 O.co2     1 COA501      0.0000 
     26 O2A        48.3220  -47.1820   18.7770 O.co2     1 COA501      0.0000 
     27 O3A        49.1380  -46.9520   21.0790 O.3       1 COA501      0.0000 
     28 P2A        50.6900  -46.7150   20.8310 P.3       1 COA501      0.0000 
     29 O4A        51.0280  -47.0330   19.4280 O.co2     1 COA501      0.0000 
     30 O5A        51.0030  -45.3160   21.3540 O.co2     1 COA501      0.0000 
     31 O6A        51.4440  -47.7970   21.7570 O.3       1 COA501      0.0000 
     32 CBP        50.8190  -48.6520   23.9510 C.3       1 COA501      0.0000 
     33 CCP        51.5760  -47.5810   23.1720 C.3       1 COA501      0.0000 
     34 CDP        49.9510  -49.4440   22.9690 C.3       1 COA501      0.0000 
     35 CEP        51.8280  -49.6180   24.5740 C.3       1 COA501      0.0000 
     36 CAP        49.9080  -48.0640   25.0640 C.3       1 COA501      0.0000 
     37 OAP        48.8070  -48.9350   25.2500 O.3       1 COA501      0.0000 
     38 C9P        50.6010  -47.8230   26.4100 C.2       1 COA501      0.0000 
     39 O9P        50.6690  -48.7460   27.2170 O.2       1 COA501      0.0000 
     40 N8P        51.0880  -46.6060   26.6720 N.am      1 COA501      0.0000 
     41 C7P        51.0000  -45.4720   25.7680 C.3       1 COA501      0.0000 
     42 C6P        51.3620  -44.1860   26.4810 C.3       1 COA501      0.0000 
     43 C5P        52.0120  -43.1570   25.5780 C.2       1 COA501      0.0000 
     44 O5P        52.3030  -42.0410   26.0070 O.2       1 COA501      0.0000 
     45 N4P        52.2460  -43.5150   24.3140 N.am      1 COA501      0.0000 
     46 C3P        52.8410  -42.5890   23.3570 C.3       1 COA501      0.0000 
     47 C2P        53.3330  -43.3270   22.1350 C.3       1 COA501      0.0000 
     48 S1P        52.9750  -42.3660   20.6400 S.3       1 COA501      0.0000 
@<TRIPOS>BOND
     1    1    2 ar   
     2    1    6 ar   
     3    2    3 ar   
     4    3    4 ar   
     5    4    5 ar   
     6    4   10 1    
     7    5    6 ar   
     8    5    8 1    
     9    6    7 1    
    10    8    9 2    
    11    9   10 1    
    12   10   11 1    
    13   11   12 1    
    14   11   21 1    
    15   12   13 1    
    16   12   14 1    
    17   14   15 1    
    18   14   20 1    
    19   15   16 1    
    20   16   17 ar   
    21   16   18 ar   
    22   16   19 ar   
    23   20   21 1    
    24   20   22 1    
    25   22   23 1    
    26   23   24 1    
    27   24   25 ar   
    28   24   26 ar   
    29   24   27 1    
    30   27   28 1    
    31   28   29 ar   
    32   28   30 ar   
    33   28   31 1    
    34   31   33 1    
    35   32   33 1    
    36   32   34 1    
    37   32   35 1    
    38   32   36 1    
    39   36   37 1    
    40   36   38 1    
    41   38   39 2    
    42   38   40 am   
    43   40   41 1    
    44   41   42 1    
    45   42   43 1    
    46   43   44 2    
    47   43   45 am   
    48   45   46 1    
    49   46   47 1    
    50   47   48 1    
@<TRIPOS>SUBSTRUCTURE
     1 COA501      1 GROUP   
@<TRIPOS>SET
ATOM$ORANGE STATIC     ATOMS   COLORGROUP SYSTEM 
42 2 2 4 4 5 5 6 6 9 9 11 11 12 12 14 14 20 \
20 22 22 32 32 33 33 34 34 35 35 36 36 38 38 41 41 42 \
42 43 43 46 46 47 47 

