#    Name: 6b2m_5_COA
#    Modification time : Fri May 22 19:34:12 2020

@<TRIPOS>MOLECULE
6b2m_5_COA
   48    50     1     0     1
SMALL
NO_CHARGES


@<TRIPOS>ATOM
      1 N1A         0.9530    7.7500   29.3950 N.ar      1 COA501      0.0000 
      2 C2A         0.8110    8.9400   28.7910 C.ar      1 COA501      0.0000 
      3 N3A         0.6090    9.2000   27.4970 N.ar      1 COA501      0.0000 
      4 C4A         0.5610    8.0710   26.7820 C.ar      1 COA501      0.0000 
      5 C5A         0.6860    6.7770   27.2580 C.ar      1 COA501      0.0000 
      6 C6A         0.8960    6.6240   28.6440 C.ar      1 COA501      0.0000 
      7 N6A         1.0460    5.4390   29.2410 N.pl3     1 COA501      0.0000 
      8 N7A         0.5760    5.8580   26.2220 N.2       1 COA501      0.0000 
      9 C8A         0.3840    6.6080   25.1650 C.2       1 COA501      0.0000 
     10 N9A         0.3530    7.9500   25.4340 N.pl3     1 COA501      0.0000 
     11 C1B         0.1760    9.0390   24.4840 C.3       1 COA501      0.0000 
     12 C2B         1.4960    9.7070   24.1040 C.3       1 COA501      0.0000 
     13 O2B         1.2440   11.0600   23.7410 O.3       1 COA501      0.0000 
     14 C3B         1.8590    8.8480   22.9040 C.3       1 COA501      0.0000 
     15 O3B         2.9020    9.3890   22.0690 O.3       1 COA501      0.0000 
     16 P3B         4.1460    8.5020   21.6460 P.3       1 COA501      0.0000 
     17 O7A         4.0110    7.1380   22.3300 O.co2     1 COA501      0.0000 
     18 O8A         4.0640    8.2910   20.1270 O.co2     1 COA501      0.0000 
     19 O9A         5.4030    9.2380   22.0550 O.co2     1 COA501      0.0000 
     20 C4B         0.5180    8.8210   22.1900 C.3       1 COA501      0.0000 
     21 O4B        -0.3620    8.5030   23.2800 O.3       1 COA501      0.0000 
     22 C5B         0.3620    7.8180   21.0780 C.3       1 COA501      0.0000 
     23 O5B         1.1870    6.6620   21.3090 O.3       1 COA501      0.0000 
     24 P1A         1.1450    5.4440   20.3200 P.3       1 COA501      0.0000 
     25 O1A         2.3310    4.5820   20.4950 O.co2     1 COA501      0.0000 
     26 O2A         0.8810    6.0030   18.9120 O.co2     1 COA501      0.0000 
     27 O3A        -0.1860    4.7340   20.7610 O.3       1 COA501      0.0000 
     28 P2A        -1.7160    4.8110   20.3340 P.3       1 COA501      0.0000 
     29 O4A        -2.2160    6.2020   20.2800 O.co2     1 COA501      0.0000 
     30 O5A        -1.8350    4.0450   19.0140 O.co2     1 COA501      0.0000 
     31 O6A        -2.4880    3.9910   21.4550 O.3       1 COA501      0.0000 
     32 CBP        -2.8010    4.1870   23.8710 C.3       1 COA501      0.0000 
     33 CCP        -1.8730    3.7750   22.7340 C.3       1 COA501      0.0000 
     34 CDP        -2.6610    5.6990   24.0740 C.3       1 COA501      0.0000 
     35 CEP        -4.2450    3.8880   23.4630 C.3       1 COA501      0.0000 
     36 CAP        -2.4800    3.4440   25.2060 C.3       1 COA501      0.0000 
     37 OAP        -2.3380    4.3580   26.2770 O.3       1 COA501      0.0000 
     38 C9P        -3.4800    2.3470   25.5960 C.2       1 COA501      0.0000 
     39 O9P        -4.4320    2.6360   26.3210 O.2       1 COA501      0.0000 
     40 N8P        -3.2640    1.1110   25.1230 N.am      1 COA501      0.0000 
     41 C7P        -2.1120    0.7820   24.2870 C.3       1 COA501      0.0000 
     42 C6P        -2.3660   -0.3850   23.3520 C.3       1 COA501      0.0000 
     43 C5P        -3.6780   -0.2690   22.6040 C.2       1 COA501      0.0000 
     44 O5P        -4.4380   -1.2280   22.5310 O.2       1 COA501      0.0000 
     45 N4P        -3.9330    0.9010   22.0120 N.am      1 COA501      0.0000 
     46 C3P        -5.1570    1.1670   21.2650 C.3       1 COA501      0.0000 
     47 C2P        -5.0520    2.4850   20.5350 C.3       1 COA501      0.0000 
     48 S1P        -4.7710    2.2040   18.7670 S.3       1 COA501      0.0000 
@<TRIPOS>BOND
     1    1    2 ar   
     2    1    6 ar   
     3    2    3 ar   
     4    3    4 ar   
     5    4    5 ar   
     6    4   10 1    
     7    5    6 ar   
     8    5    8 1    
     9    6    7 1    
    10    8    9 2    
    11    9   10 1    
    12   10   11 1    
    13   11   12 1    
    14   11   21 1    
    15   12   13 1    
    16   12   14 1    
    17   14   15 1    
    18   14   20 1    
    19   15   16 1    
    20   16   17 ar   
    21   16   18 ar   
    22   16   19 ar   
    23   20   21 1    
    24   20   22 1    
    25   22   23 1    
    26   23   24 1    
    27   24   25 ar   
    28   24   26 ar   
    29   24   27 1    
    30   27   28 1    
    31   28   29 ar   
    32   28   30 ar   
    33   28   31 1    
    34   31   33 1    
    35   32   33 1    
    36   32   34 1    
    37   32   35 1    
    38   32   36 1    
    39   36   37 1    
    40   36   38 1    
    41   38   39 2    
    42   38   40 am   
    43   40   41 1    
    44   41   42 1    
    45   42   43 1    
    46   43   44 2    
    47   43   45 am   
    48   45   46 1    
    49   46   47 1    
    50   47   48 1    
@<TRIPOS>SUBSTRUCTURE
     1 COA501      1 GROUP   
@<TRIPOS>SET
ATOM$ORANGE STATIC     ATOMS   COLORGROUP SYSTEM 
42 2 2 4 4 5 5 6 6 9 9 11 11 12 12 14 14 20 \
20 22 22 32 32 33 33 34 34 35 35 36 36 38 38 41 41 42 \
42 43 43 46 46 47 47 

