#    Name: 6b2m_3_COA
#    Modification time : Fri May 22 19:34:08 2020

@<TRIPOS>MOLECULE
6b2m_3_COA
   48    50     1     0     1
SMALL
NO_CHARGES


@<TRIPOS>ATOM
      1 N1A         6.5550  -53.9480    9.6360 N.ar      1 COA501      0.0000 
      2 C2A         6.8710  -55.2000   10.0020 C.ar      1 COA501      0.0000 
      3 N3A         7.3160  -55.6340   11.1820 N.ar      1 COA501      0.0000 
      4 C4A         7.4230  -54.6300   12.0590 C.ar      1 COA501      0.0000 
      5 C5A         7.1330  -53.2950   11.8360 C.ar      1 COA501      0.0000 
      6 C6A         6.6750  -52.9540   10.5490 C.ar      1 COA501      0.0000 
      7 N6A         6.3330  -51.7180   10.1920 N.pl3     1 COA501      0.0000 
      8 N7A         7.3800  -52.5390   12.9760 N.2       1 COA501      0.0000 
      9 C8A         7.7850  -53.4280   13.8530 C.2       1 COA501      0.0000 
     10 N9A         7.8280  -54.7090   13.3640 N.pl3     1 COA501      0.0000 
     11 C1B         8.2830  -55.9220   14.0270 C.3       1 COA501      0.0000 
     12 C2B         9.7370  -56.2470   13.7080 C.3       1 COA501      0.0000 
     13 O2B         9.8540  -57.6620   13.7760 O.3       1 COA501      0.0000 
     14 C3B        10.4270  -55.5020   14.8460 C.3       1 COA501      0.0000 
     15 O3B        11.7770  -55.9470   15.1100 O.3       1 COA501      0.0000 
     16 P3B        13.0030  -54.9400   15.0230 P.3       1 COA501      0.0000 
     17 O7A        12.4480  -53.5510   14.7090 O.co2     1 COA501      0.0000 
     18 O8A        13.6850  -54.9140   16.4020 O.co2     1 COA501      0.0000 
     19 O9A        13.9230  -55.4190   13.9220 O.co2     1 COA501      0.0000 
     20 C4B         9.5170  -55.8470   16.0160 C.3       1 COA501      0.0000 
     21 O4B         8.2030  -55.7560   15.4360 O.3       1 COA501      0.0000 
     22 C5B         9.6490  -54.9110   17.1880 C.3       1 COA501      0.0000 
     23 O5B         9.0340  -53.6460   16.8620 O.3       1 COA501      0.0000 
     24 P1A         9.2550  -52.3680   17.7720 P.3       1 COA501      0.0000 
     25 O1A         9.2990  -51.1210   16.9770 O.co2     1 COA501      0.0000 
     26 O2A        10.4860  -52.6250   18.6860 O.co2     1 COA501      0.0000 
     27 O3A         8.0140  -52.4270   18.6880 O.3       1 COA501      0.0000 
     28 P2A         7.6420  -53.1080   20.0740 P.3       1 COA501      0.0000 
     29 O4A         8.6880  -54.0870   20.4430 O.co2     1 COA501      0.0000 
     30 O5A         7.4750  -51.9600   21.0680 O.co2     1 COA501      0.0000 
     31 O6A         6.2300  -53.8790   19.8090 O.3       1 COA501      0.0000 
     32 CBP         5.0600  -54.3050   17.6970 C.3       1 COA501      0.0000 
     33 CCP         5.2150  -53.3920   18.9120 C.3       1 COA501      0.0000 
     34 CDP         6.2690  -55.2420   17.6450 C.3       1 COA501      0.0000 
     35 CEP         3.8400  -55.2050   17.8840 C.3       1 COA501      0.0000 
     36 CAP         4.9410  -53.5420   16.3370 C.3       1 COA501      0.0000 
     37 OAP         4.8100  -54.4830   15.2910 O.3       1 COA501      0.0000 
     38 C9P         3.8150  -52.4780   16.2390 C.2       1 COA501      0.0000 
     39 O9P         2.9880  -52.3800   17.1400 O.2       1 COA501      0.0000 
     40 N8P         3.7680  -51.6960   15.1450 N.am      1 COA501      0.0000 
     41 C7P         4.7150  -51.8020   14.0470 C.3       1 COA501      0.0000 
     42 C6P         5.1490  -50.4540   13.5120 C.3       1 COA501      0.0000 
     43 C5P         4.1920  -49.9220   12.4600 C.2       1 COA501      0.0000 
     44 O5P         2.9840  -50.0390   12.6610 O.2       1 COA501      0.0000 
     45 N4P         4.6520  -49.2970   11.3480 N.am      1 COA501      0.0000 
     46 C3P         6.0080  -49.0570   10.8150 C.3       1 COA501      0.0000 
     47 C2P         7.0360  -48.7860   11.8860 C.3       1 COA501      0.0000 
     48 S1P         8.4920  -47.9650   11.1740 S.3       1 COA501      0.0000 
@<TRIPOS>BOND
     1    1    2 ar   
     2    1    6 ar   
     3    2    3 ar   
     4    3    4 ar   
     5    4    5 ar   
     6    4   10 1    
     7    5    6 ar   
     8    5    8 1    
     9    6    7 1    
    10    8    9 2    
    11    9   10 1    
    12   10   11 1    
    13   11   12 1    
    14   11   21 1    
    15   12   13 1    
    16   12   14 1    
    17   14   15 1    
    18   14   20 1    
    19   15   16 1    
    20   16   17 ar   
    21   16   18 ar   
    22   16   19 ar   
    23   20   21 1    
    24   20   22 1    
    25   22   23 1    
    26   23   24 1    
    27   24   25 ar   
    28   24   26 ar   
    29   24   27 1    
    30   27   28 1    
    31   28   29 ar   
    32   28   30 ar   
    33   28   31 1    
    34   31   33 1    
    35   32   33 1    
    36   32   34 1    
    37   32   35 1    
    38   32   36 1    
    39   36   37 1    
    40   36   38 1    
    41   38   39 2    
    42   38   40 am   
    43   40   41 1    
    44   41   42 1    
    45   42   43 1    
    46   43   44 2    
    47   43   45 am   
    48   45   46 1    
    49   46   47 1    
    50   47   48 1    
@<TRIPOS>SUBSTRUCTURE
     1 COA501      1 GROUP   
@<TRIPOS>SET
ATOM$ORANGE STATIC     ATOMS   COLORGROUP SYSTEM 
42 2 2 4 4 5 5 6 6 9 9 11 11 12 12 14 14 20 \
20 22 22 32 32 33 33 34 34 35 35 36 36 38 38 41 41 42 \
42 43 43 46 46 47 47 

