#    Name: 6el5_1_PU1
#    Modification time : Fri May 22 19:29:20 2020

@<TRIPOS>MOLECULE
6el5_1_PU1
   30    32     1     0     0
SMALL
NO_CHARGES


@<TRIPOS>ATOM
      1 CL          2.2390   31.7810   24.8120 Cl        1 PU1301      0.0000 
      2 C13         3.7780   32.5970   24.8890 C.ar      1 PU1301      0.0000 
      3 C15         4.8990   31.9510   24.3320 C.ar      1 PU1301      0.0000 
      4 O3          4.7380   30.8560   23.5230 O.3       1 PU1301      0.0000 
      5 C20         4.8740   29.5380   24.0000 C.3       1 PU1301      0.0000 
      6 C17         6.1510   32.5790   24.3590 C.ar      1 PU1301      0.0000 
      7 O2          7.2630   31.9610   23.8480 O.3       1 PU1301      0.0000 
      8 C19         7.4940   31.8830   22.4340 C.3       1 PU1301      0.0000 
      9 C16         6.3110   33.7850   25.0450 C.ar      1 PU1301      0.0000 
     10 O1          7.5700   34.3150   25.1280 O.3       1 PU1301      0.0000 
     11 C18         7.7960   35.4490   25.9820 C.3       1 PU1301      0.0000 
     12 C14         5.1960   34.4130   25.6190 C.ar      1 PU1301      0.0000 
     13 C12         3.9340   33.8310   25.5540 C.ar      1 PU1301      0.0000 
     14 C6          2.8050   34.5730   26.2490 C.3       1 PU1301      0.0000 
     15 C5          1.6680   34.8760   25.2980 C.2       1 PU1301      0.0000 
     16 N3          0.4500   34.4990   25.5270 N.2       1 PU1301      0.0000 
     17 C2         -0.3260   34.8510   24.4940 C.ar      1 PU1301      0.0000 
     18 C3         -1.6800   34.6860   24.1920 C.ar      1 PU1301      0.0000 
     19 N5         -2.5320   34.1060   25.1110 N.pl3     1 PU1301      0.0000 
     20 C1          0.4980   35.5240   23.5860 C.ar      1 PU1301      0.0000 
     21 N1         -0.0110   35.9710   22.4590 N.ar      1 PU1301      0.0000 
     22 C4         -1.2610   35.7390   22.1700 C.ar      1 PU1301      0.0000 
     23 N2         -2.1110   35.1440   23.0100 N.ar      1 PU1301      0.0000 
     24 N4          1.7500   35.5520   24.1150 N.pl3     1 PU1301      0.0000 
     25 C7          2.9140   36.2090   23.4860 C.3       1 PU1301      0.0000 
     26 C8          2.8750   37.7330   23.6810 C.3       1 PU1301      0.0000 
     27 C9          2.9620   38.1330   25.1540 C.3       1 PU1301      0.0000 
     28 C10         4.3350   38.0650   25.7120 C.1       1 PU1301      0.0000 
     29 C11         5.4100   38.0330   26.2000 C.1       1 PU1301      0.0000 
     30 F          -1.6560   36.1950   20.9810 F         1 PU1301      0.0000 
@<TRIPOS>BOND
     1    1    2 1    
     2    2    3 ar   
     3    2   13 ar   
     4    3    4 1    
     5    3    6 ar   
     6    4    5 1    
     7    6    7 1    
     8    6    9 ar   
     9    7    8 1    
    10    9   10 1    
    11    9   12 ar   
    12   10   11 1    
    13   12   13 ar   
    14   13   14 1    
    15   14   15 1    
    16   15   16 2    
    17   15   24 1    
    18   16   17 1    
    19   17   18 ar   
    20   17   20 ar   
    21   18   19 1    
    22   18   23 ar   
    23   20   21 ar   
    24   20   24 1    
    25   21   22 ar   
    26   22   23 ar   
    27   22   30 1    
    28   24   25 1    
    29   25   26 1    
    30   26   27 1    
    31   27   28 1    
    32   28   29 3    
@<TRIPOS>SUBSTRUCTURE
     1 PU1301      1 GROUP   
@<TRIPOS>SET

