#    Name: 5yud_1_ATP
#    Modification time : Fri May 22 19:27:14 2020

@<TRIPOS>MOLECULE
5yud_1_ATP
   31    33     1     0     1
SMALL
NO_CHARGES


@<TRIPOS>ATOM
      1 PG        106.6130  154.5180  142.6420 P.3       1 ATP1501     0.0000 
      2 O1G       107.3350  155.2430  141.5420 O.co2     1 ATP1501     0.0000 
      3 O2G       107.2830  153.2680  143.1500 O.co2     1 ATP1501     0.0000 
      4 O3G       105.1330  154.3550  142.4230 O.co2     1 ATP1501     0.0000 
      5 PB        105.5980  155.2040  144.9870 P.3       1 ATP1501     0.0000 
      6 O1B       104.2390  155.5020  144.4200 O.co2     1 ATP1501     0.0000 
      7 O2B       106.0070  155.8050  146.3000 O.co2     1 ATP1501     0.0000 
      8 O3B       106.6970  155.5180  143.8820 O.3       1 ATP1501     0.0000 
      9 PA        104.5550  152.7090  145.5300 P.3       1 ATP1501     0.0000 
     10 O1A       103.3100  153.5490  145.4400 O.co2     1 ATP1501     0.0000 
     11 O2A       104.9440  152.0510  146.8240 O.co2     1 ATP1501     0.0000 
     12 O3A       105.7710  153.6140  145.0330 O.3       1 ATP1501     0.0000 
     13 O5'       104.4800  151.5720  144.4120 O.3       1 ATP1501     0.0000 
     14 C5'       104.3310  150.2350  144.8600 C.3       1 ATP1501     0.0000 
     15 C4'       103.0840  149.5990  144.2740 C.3       1 ATP1501     0.0000 
     16 O4'       103.1730  148.1780  144.3570 O.3       1 ATP1501     0.0000 
     17 C3'       101.8670  150.0190  145.0650 C.3       1 ATP1501     0.0000 
     18 O3'       101.0010  150.7790  144.2240 O.3       1 ATP1501     0.0000 
     19 C2'       101.1880  148.7400  145.5100 C.3       1 ATP1501     0.0000 
     20 O2'        99.8790  148.6510  144.9520 O.3       1 ATP1501     0.0000 
     21 C1'       102.0310  147.6020  144.9860 C.3       1 ATP1501     0.0000 
     22 N9        102.5320  146.8080  146.1240 N.pl3     1 ATP1501     0.0000 
     23 C8        103.7500  146.9490  146.6590 C.2       1 ATP1501     0.0000 
     24 N7        103.9460  146.0890  147.6840 N.2       1 ATP1501     0.0000 
     25 C5        102.8290  145.3710  147.8150 C.ar      1 ATP1501     0.0000 
     26 C6        102.3740  144.2970  148.7110 C.ar      1 ATP1501     0.0000 
     27 N6        103.1720  143.8040  149.6820 N.pl3     1 ATP1501     0.0000 
     28 N1        101.1330  143.8260  148.5190 N.ar      1 ATP1501     0.0000 
     29 C2        100.3320  144.3070  147.5550 C.ar      1 ATP1501     0.0000 
     30 N3        100.6800  145.2850  146.7050 N.ar      1 ATP1501     0.0000 
     31 C4        101.8980  145.8490  146.7860 C.ar      1 ATP1501     0.0000 
@<TRIPOS>BOND
     1    1    2 ar   
     2    1    3 ar   
     3    1    4 ar   
     4    1    8 1    
     5    5    6 ar   
     6    5    7 ar   
     7    5    8 1    
     8    5   12 1    
     9    9   10 ar   
    10    9   11 ar   
    11    9   12 1    
    12    9   13 1    
    13   13   14 1    
    14   14   15 1    
    15   15   16 1    
    16   15   17 1    
    17   16   21 1    
    18   17   18 1    
    19   17   19 1    
    20   19   20 1    
    21   19   21 1    
    22   21   22 1    
    23   22   23 1    
    24   22   31 1    
    25   23   24 2    
    26   24   25 1    
    27   25   26 ar   
    28   25   31 ar   
    29   26   27 1    
    30   26   28 ar   
    31   28   29 ar   
    32   29   30 ar   
    33   30   31 ar   
@<TRIPOS>SUBSTRUCTURE
     1 ATP1501     1 GROUP   
@<TRIPOS>SET
ATOM$ORANGE STATIC     ATOMS   COLORGROUP SYSTEM 
20 14 14 15 15 17 17 19 19 21 21 23 23 25 25 26 26 29 \
29 31 31 

