#    Name: 5yn6_1_SAM_CAVITY_N1_ALL
#    Modification time : Fri May 22 19:13:46 2020

@<TRIPOS>MOLECULE
5yn6_1_SAM_CAVITY_N1_ALL
  106     0     6     0     0
SMALL
NO_CHARGES


@<TRIPOS>ATOM
      1 O          65.3500   83.1800  145.1900 O.2       1 ALA2        0.0000 
      2 N          60.8300   84.6100  145.1600 N.am      1 ALA2        0.0000 
      3 O          69.1800   82.7700  147.5100 O.2       1 ALA2        0.0000 
      4 O          68.8900   83.3700  146.1600 O.2       1 ALA2        0.0000 
      5 N          66.0700   83.9300  147.0400 N.am      1 ALA2        0.0000 
      6 N          64.6600   84.2000  147.4700 N.am      1 ALA2        0.0000 
      7 N          63.2600   84.4800  147.9100 N.am      1 ALA2        0.0000 
      8 N          62.6600   85.6800  145.2300 N.am      1 ALA2        0.0000 
      9 N          62.3600   86.2800  143.8800 N.am      1 ALA2        0.0000 
     10 N          61.2500   85.9600  145.6600 N.am      1 ALA2        0.0000 
     11 N          60.9500   86.5600  144.3200 N.am      1 ALA2        0.0000 
     12 N          59.5500   86.8400  144.7600 N.am      1 ALA2        0.0000 
     13 O          69.3100   84.7100  146.6700 O.2       1 ALA2        0.0000 
     14 O          68.2000   84.3900  148.4500 O.2       1 ALA2        0.0000 
     15 O          67.9000   84.9900  147.1100 O.2       1 ALA2        0.0000 
     16 N          66.7900   84.6700  148.8900 N.am      1 ALA2        0.0000 
     17 N          66.4900   85.2700  147.5400 N.am      1 ALA2        0.0000 
     18 N          65.0900   85.5500  147.9800 N.am      1 ALA2        0.0000 
     19 N          64.4900   86.7500  145.2900 N.am      1 ALA2        0.0000 
     20 N          64.1900   87.3500  143.9500 N.am      1 ALA2        0.0000 
     21 N          63.3800   86.4300  147.0700 N.am      1 ALA2        0.0000 
     22 N          61.6800   87.3100  146.1700 N.am      1 ALA2        0.0000 
     23 N          60.2700   87.5900  146.6000 N.am      1 ALA2        0.0000 
     24 N          59.9700   88.1800  145.2600 N.am      1 ALA2        0.0000 
     25 O          59.4600   86.6700  149.7300 O.2       1 ALA2        0.0000 
     26 O          59.1600   87.2700  148.3800 O.2       1 ALA2        0.0000 
     27 N          66.6200   87.2200  146.7100 N.am      1 ALA2        0.0000 
     28 N          65.5100   86.9000  148.4900 N.am      1 ALA2        0.0000 
     29 N          65.2100   87.5000  147.1400 N.am      1 ALA2        0.0000 
     30 N          64.1000   87.1800  148.9200 N.am      1 ALA2        0.0000 
     31 N          63.8100   87.7800  147.5800 N.am      1 ALA2        0.0000 
     32 O          62.4000   88.0500  148.0200 O.2       1 ALA2        0.0000 
     33 N          60.6900   88.9300  147.1100 N.am      1 ALA2        0.0000 
     34 N          58.9900   89.8100  146.2000 N.am      1 ALA2        0.0000 
     35 N          67.0400   88.5600  147.2100 N.am      1 ALA2        0.0000 
     36 O          55.3100   93.9400  147.1800 O.2       1 ALA2        0.0000 
     37 N          53.9100   94.2200  147.6200 N.am      1 ALA2        0.0000 
     38 OD1        68.4600   82.0200  145.6600 O.co2     2 ASP3        0.0000 
     39 OD1        68.0300   86.9400  146.2700 O.co2     2 ASP3        0.0000 
     40 OD1        68.1500   88.8800  145.4300 O.co2     2 ASP3        0.0000 
     41 NZ         66.7600   82.9000  144.7500 N.4       3 LYS4        0.0000 
     42 NZ         61.5500   85.3600  147.0000 N.4       3 LYS4        0.0000 
     43 NZ         60.1400   85.6400  147.4400 N.4       3 LYS4        0.0000 
     44 NZ         59.2500   87.4300  143.4100 N.4       3 LYS4        0.0000 
     45 NZ         63.6800   85.8300  148.4200 N.4       3 LYS4        0.0000 
     46 NZ         61.9700   86.7100  147.5100 N.4       3 LYS4        0.0000 
     47 NZ         60.5700   86.9900  147.9500 N.4       3 LYS4        0.0000 
     48 NZ         66.9200   86.6200  148.0500 N.4       3 LYS4        0.0000 
     49 NZ         56.9800   91.2800  143.9500 N.4       3 LYS4        0.0000 
     50 NZ         54.4700   91.2500  146.1700 N.4       3 LYS4        0.0000 
     51 NZ         55.1900   91.9900  148.0200 N.4       3 LYS4        0.0000 
     52 NZ         54.8900   92.5900  146.6800 N.4       3 LYS4        0.0000 
     53 NZ         53.4800   92.8700  147.1100 N.4       3 LYS4        0.0000 
     54 CZ         65.6000   87.0700  143.5100 C.ar      4 PHE5        0.0000 
     55 CZ         67.7300   87.5400  144.9300 C.ar      4 PHE5        0.0000 
     56 CZ         67.4300   88.1300  143.5800 C.ar      4 PHE5        0.0000 
     57 CZ         57.7100   92.0300  145.8000 C.ar      4 PHE5        0.0000 
     58 CZ         56.6000   91.7100  147.5800 C.ar      4 PHE5        0.0000 
     59 CZ         56.3000   92.3100  146.2400 C.ar      4 PHE5        0.0000 
     60 CA         64.2400   82.8600  146.9700 C.3       5 GLY6        0.0000 
     61 CA         68.0700   82.4500  149.2900 C.3       5 GLY6        0.0000 
     62 CA         67.7800   83.0500  147.9400 C.3       5 GLY6        0.0000 
     63 CA         65.1800   85.7200  143.0100 C.3       5 GLY6        0.0000 
     64 CA         63.7700   86.0000  143.4500 C.3       5 GLY6        0.0000 
     65 CA         59.8400   86.2400  146.1000 C.3       5 GLY6        0.0000 
     66 CA         58.7300   85.9200  147.8800 C.3       5 GLY6        0.0000 
     67 CA         59.6700   88.7800  143.9200 C.3       5 GLY6        0.0000 
     68 CA         58.8600   87.8600  147.0400 C.3       5 GLY6        0.0000 
     69 CA         58.5600   88.4600  145.7000 C.3       5 GLY6        0.0000 
     70 CA         58.2600   89.0600  144.3500 C.3       5 GLY6        0.0000 
     71 CA         56.8600   89.3400  144.7900 C.3       5 GLY6        0.0000 
     72 CA         55.4500   89.6200  145.2300 C.3       5 GLY6        0.0000 
     73 CA         66.3200   87.8200  145.3600 C.3       5 GLY6        0.0000 
     74 CA         60.9900   88.3300  148.4500 C.3       5 GLY6        0.0000 
     75 CA         59.5800   88.6100  148.8900 C.3       5 GLY6        0.0000 
     76 CA         59.2800   89.2100  147.5500 C.3       5 GLY6        0.0000 
     77 CA         58.6900   90.4100  144.8600 C.3       5 GLY6        0.0000 
     78 CA         58.1700   88.8900  149.3300 C.3       5 GLY6        0.0000 
     79 CA         57.8800   89.4900  147.9800 C.3       5 GLY6        0.0000 
     80 CA         57.5800   90.0900  146.6400 C.3       5 GLY6        0.0000 
     81 CA         57.2800   90.6900  145.3000 C.3       5 GLY6        0.0000 
     82 CA         56.4700   89.7700  148.4200 C.3       5 GLY6        0.0000 
     83 CA         56.1700   90.3700  147.0800 C.3       5 GLY6        0.0000 
     84 CA         55.8700   90.9700  145.7300 C.3       5 GLY6        0.0000 
     85 CA         58.3000   90.8400  148.4900 C.3       5 GLY6        0.0000 
     86 CA         56.8900   91.1200  148.9300 C.3       5 GLY6        0.0000 
     87 CA         55.6100   93.3400  148.5200 C.3       5 GLY6        0.0000 
     88 CA         55.0200   94.5400  145.8400 C.3       5 GLY6        0.0000 
     89 DU         63.9400   83.4600  145.6300 H         6 CUB7        0.0000 
     90 DU         63.6400   84.0500  144.2800 H         6 CUB7        0.0000 
     91 DU         62.5300   83.7300  146.0600 H         6 CUB7        0.0000 
     92 DU         62.2400   84.3300  144.7200 H         6 CUB7        0.0000 
     93 DU         67.4800   83.6500  146.6000 H         6 CUB7        0.0000 
     94 DU         65.7700   84.5200  145.7000 H         6 CUB7        0.0000 
     95 DU         65.4700   85.1200  144.3500 H         6 CUB7        0.0000 
     96 DU         64.3600   84.8000  146.1300 H         6 CUB7        0.0000 
     97 DU         64.0700   85.4000  144.7900 H         6 CUB7        0.0000 
     98 DU         62.9600   85.0800  146.5700 H         6 CUB7        0.0000 
     99 DU         67.6000   85.5900  145.7600 H         6 CUB7        0.0000 
    100 DU         67.3100   86.1900  144.4200 H         6 CUB7        0.0000 
    101 DU         66.2000   85.8700  146.2000 H         6 CUB7        0.0000 
    102 DU         65.9000   86.4700  144.8600 H         6 CUB7        0.0000 
    103 DU         64.7900   86.1500  146.6400 H         6 CUB7        0.0000 
    104 DU         69.4400   86.6600  145.8300 H         6 CUB7        0.0000 
    105 DU         69.1400   87.2600  144.4900 H         6 CUB7        0.0000 
    106 DU         55.5800   91.5600  144.3900 H         6 CUB7        0.0000 
@<TRIPOS>BOND
@<TRIPOS>SUBSTRUCTURE
     1 ALA2        1 GROUP   
     2 ASP3       38 GROUP   
     3 LYS4       41 GROUP   
     4 PHE5       54 GROUP   
     5 GLY6       60 GROUP   
     6 CUB7       89 GROUP   
@<TRIPOS>SET

