#    Name: 5yn6_1_SAM
#    Modification time : Fri May 22 19:13:44 2020

@<TRIPOS>MOLECULE
5yn6_1_SAM
   27    29     1     0     0
SMALL
NO_CHARGES


@<TRIPOS>ATOM
      1 N          67.4360   85.7120  151.5480 N.4       1 SAM401      0.0000 
      2 CA         67.4060   84.4180  150.8800 C.3       1 SAM401      0.0000 
      3 C          68.5820   83.5620  151.3760 C.2       1 SAM401      0.0000 
      4 O          69.0660   82.7870  150.5280 O.co2     1 SAM401      0.0000 
      5 OXT        68.9120   83.6440  152.5870 O.co2     1 SAM401      0.0000 
      6 CB         67.4500   84.6010  149.3520 C.3       1 SAM401      0.0000 
      7 CG         66.2940   85.5830  149.0810 C.3       1 SAM401      0.0000 
      8 SD         65.8290   85.7890  147.3100 S.3       1 SAM401      0.0000 
      9 CE         67.3060   86.3900  146.5180 C.3       1 SAM401      0.0000 
     10 C5'        64.4650   87.0120  147.1600 C.3       1 SAM401      0.0000 
     11 C4'        63.1790   86.6180  147.9180 C.3       1 SAM401      0.0000 
     12 O4'        62.2600   87.7510  148.0070 O.3       1 SAM401      0.0000 
     13 C3'        62.3830   85.5000  147.0880 C.3       1 SAM401      0.0000 
     14 O3'        62.4730   84.3210  147.8570 O.3       1 SAM401      0.0000 
     15 C2'        60.9630   86.1080  147.0280 C.3       1 SAM401      0.0000 
     16 O2'        59.9270   85.1350  147.2380 O.3       1 SAM401      0.0000 
     17 C1'        60.9380   87.1620  148.1800 C.3       1 SAM401      0.0000 
     18 N9         59.8700   88.2060  147.9510 N.pl3     1 SAM401      0.0000 
     19 C8         59.7280   89.0140  146.8780 C.2       1 SAM401      0.0000 
     20 N7         58.6690   89.8230  147.0540 N.2       1 SAM401      0.0000 
     21 C5         58.1380   89.5210  148.2470 C.ar      1 SAM401      0.0000 
     22 C6         57.0710   89.9980  148.9250 C.ar      1 SAM401      0.0000 
     23 N6         56.3060   90.9530  148.3800 N.pl3     1 SAM401      0.0000 
     24 N1         56.7320   89.5310  150.1170 N.ar      1 SAM401      0.0000 
     25 C2         57.5230   88.5360  150.6960 C.ar      1 SAM401      0.0000 
     26 N3         58.6260   88.0340  150.0120 N.ar      1 SAM401      0.0000 
     27 C4         58.9060   88.5410  148.7980 C.ar      1 SAM401      0.0000 
@<TRIPOS>BOND
     1    1    2 1    
     2    2    3 1    
     3    2    6 1    
     4    3    4 ar   
     5    3    5 ar   
     6    6    7 1    
     7    7    8 1    
     8    8    9 1    
     9    8   10 1    
    10   10   11 1    
    11   11   12 1    
    12   11   13 1    
    13   12   17 1    
    14   13   14 1    
    15   13   15 1    
    16   15   16 1    
    17   15   17 1    
    18   17   18 1    
    19   18   19 1    
    20   18   27 1    
    21   19   20 2    
    22   20   21 1    
    23   21   22 ar   
    24   21   27 ar   
    25   22   23 1    
    26   22   24 ar   
    27   24   25 ar   
    28   25   26 ar   
    29   26   27 ar   
@<TRIPOS>SUBSTRUCTURE
     1 SAM401      1 GROUP   
@<TRIPOS>SET

