#    Name: 5wgq_2_EST
#    Modification time : Fri May 22 19:12:26 2020

@<TRIPOS>MOLECULE
5wgq_2_EST
   20    23     1     0     0
SMALL
NO_CHARGES


@<TRIPOS>ATOM
      1 C1          1.3550   10.2230  -25.2810 C.ar      1 EST601      0.0000 
      2 C2          0.6580   10.7440  -26.3690 C.ar      1 EST601      0.0000 
      3 C3         -0.7120   10.9860  -26.2890 C.ar      1 EST601      0.0000 
      4 O3         -1.3690   11.4950  -27.3640 O.3       1 EST601      0.0000 
      5 C4         -1.4250   10.7140  -25.1210 C.ar      1 EST601      0.0000 
      6 C5         -0.7720   10.1960  -24.0090 C.ar      1 EST601      0.0000 
      7 C6         -1.5630    9.9100  -22.7460 C.3       1 EST601      0.0000 
      8 C7         -0.7790    8.9880  -21.8160 C.3       1 EST601      0.0000 
      9 C8          0.6530    9.4730  -21.6320 C.3       1 EST601      0.0000 
     10 C9          1.4340    9.3720  -22.9370 C.3       1 EST601      0.0000 
     11 C10         0.6880    9.9450  -24.0880 C.ar      1 EST601      0.0000 
     12 C11         2.8460    9.9480  -22.7730 C.3       1 EST601      0.0000 
     13 C12         3.6280    9.1840  -21.6960 C.3       1 EST601      0.0000 
     14 C13         2.8330    9.1290  -20.4000 C.3       1 EST601      0.0000 
     15 C14         1.4330    8.6030  -20.6580 C.3       1 EST601      0.0000 
     16 C15         0.8600    8.3660  -19.2690 C.3       1 EST601      0.0000 
     17 C16         2.0840    7.9350  -18.4560 C.3       1 EST601      0.0000 
     18 C17         3.3050    8.1340  -19.3550 C.3       1 EST601      0.0000 
     19 O17         4.4230    8.6110  -18.6020 O.3       1 EST601      0.0000 
     20 C18         2.7840   10.5170  -19.7670 C.3       1 EST601      0.0000 
@<TRIPOS>BOND
     1    1    2 ar   
     2    1   11 ar   
     3    2    3 ar   
     4    3    4 1    
     5    3    5 ar   
     6    5    6 ar   
     7    6    7 1    
     8    6   11 ar   
     9    7    8 1    
    10    8    9 1    
    11    9   10 1    
    12    9   15 1    
    13   10   11 1    
    14   10   12 1    
    15   12   13 1    
    16   13   14 1    
    17   14   15 1    
    18   14   18 1    
    19   14   20 1    
    20   15   16 1    
    21   16   17 1    
    22   17   18 1    
    23   18   19 1    
@<TRIPOS>SUBSTRUCTURE
     1 EST601      1 GROUP   
@<TRIPOS>SET

