#    Name: 5wgq_1_EST
#    Modification time : Fri May 22 19:12:23 2020

@<TRIPOS>MOLECULE
5wgq_1_EST
   20    23     1     0     0
SMALL
NO_CHARGES


@<TRIPOS>ATOM
      1 C1         -8.7610   17.6330    7.2480 C.ar      1 EST601      0.0000 
      2 C2        -10.0870   17.8190    7.4940 C.ar      1 EST601      0.0000 
      3 C3        -10.9180   18.3790    6.5530 C.ar      1 EST601      0.0000 
      4 O3        -12.2040   18.5450    6.8030 O.3       1 EST601      0.0000 
      5 C4        -10.4530   18.7800    5.3300 C.ar      1 EST601      0.0000 
      6 C5         -9.1320   18.6190    5.0420 C.ar      1 EST601      0.0000 
      7 C6         -8.6260   19.0450    3.7100 C.3       1 EST601      0.0000 
      8 C7         -7.1190   18.9950    3.5990 C.3       1 EST601      0.0000 
      9 C8         -6.5100   17.8010    4.2710 C.3       1 EST601      0.0000 
     10 C9         -6.7920   17.8260    5.7610 C.3       1 EST601      0.0000 
     11 C10        -8.2360   18.0040    6.0390 C.ar      1 EST601      0.0000 
     12 C11        -6.1950   16.6080    6.4470 C.3       1 EST601      0.0000 
     13 C12        -4.7060   16.4970    6.1770 C.3       1 EST601      0.0000 
     14 C13        -4.3920   16.5650    4.7060 C.3       1 EST601      0.0000 
     15 C14        -5.0150   17.8110    4.1440 C.3       1 EST601      0.0000 
     16 C15        -4.4320   17.9640    2.7750 C.3       1 EST601      0.0000 
     17 C16        -3.0480   17.3930    2.9200 C.3       1 EST601      0.0000 
     18 C17        -2.9610   16.8000    4.2980 C.3       1 EST601      0.0000 
     19 O17        -2.2120   15.6300    4.1400 O.3       1 EST601      0.0000 
     20 C18        -4.8930   15.3080    4.0380 C.3       1 EST601      0.0000 
@<TRIPOS>BOND
     1    1    2 ar   
     2    1   11 ar   
     3    2    3 ar   
     4    3    4 1    
     5    3    5 ar   
     6    5    6 ar   
     7    6    7 1    
     8    6   11 ar   
     9    7    8 1    
    10    8    9 1    
    11    9   10 1    
    12    9   15 1    
    13   10   11 1    
    14   10   12 1    
    15   12   13 1    
    16   13   14 1    
    17   14   15 1    
    18   14   18 1    
    19   14   20 1    
    20   15   16 1    
    21   16   17 1    
    22   17   18 1    
    23   18   19 1    
@<TRIPOS>SUBSTRUCTURE
     1 EST601      1 GROUP   
@<TRIPOS>SET

