#    Name: 6gkv_2_SAH
#    Modification time : Fri May 22 19:25:06 2020

@<TRIPOS>MOLECULE
6gkv_2_SAH
   26    28     1     0     0
SMALL
NO_CHARGES


@<TRIPOS>ATOM
      1 N          -3.8200   27.9340  -57.4310 N.4       1 SAH402      0.0000 
      2 CA         -4.6640   27.1540  -58.3340 C.3       1 SAH402      0.0000 
      3 CB         -3.7850   26.2790  -59.2090 C.3       1 SAH402      0.0000 
      4 CG         -2.4080   26.0590  -58.6120 C.3       1 SAH402      0.0000 
      5 SD         -1.2830   25.2990  -59.7970 S.3       1 SAH402      0.0000 
      6 C          -5.6920   26.3040  -57.6010 C.2       1 SAH402      0.0000 
      7 O          -6.5060   25.5970  -58.1990 O.co2     1 SAH402      0.0000 
      8 OXT        -5.7300   26.3130  -56.3720 O.co2     1 SAH402      0.0000 
      9 C5'        -0.2680   26.7950  -59.8450 C.3       1 SAH402      0.0000 
     10 C4'        -0.8730   27.9070  -60.7030 C.3       1 SAH402      0.0000 
     11 O4'        -0.0290   29.0420  -60.6700 O.3       1 SAH402      0.0000 
     12 C3'        -1.0420   27.5190  -62.1650 C.3       1 SAH402      0.0000 
     13 O3'        -2.4100   27.3620  -62.4680 O.3       1 SAH402      0.0000 
     14 C2'        -0.4570   28.6680  -62.9630 C.3       1 SAH402      0.0000 
     15 O2'        -1.4910   29.3520  -63.6220 O.3       1 SAH402      0.0000 
     16 C1'         0.1280   29.6230  -61.9470 C.3       1 SAH402      0.0000 
     17 N9          1.5640   29.8760  -62.1630 N.pl3     1 SAH402      0.0000 
     18 C8          2.5850   28.9550  -62.1700 C.2       1 SAH402      0.0000 
     19 N7          3.7550   29.6080  -62.3840 N.2       1 SAH402      0.0000 
     20 C5          3.4980   30.9370  -62.5120 C.ar      1 SAH402      0.0000 
     21 C6          4.3090   32.0520  -62.7440 C.ar      1 SAH402      0.0000 
     22 N6          5.6300   31.9340  -62.8850 N.pl3     1 SAH402      0.0000 
     23 N1          3.7300   33.3040  -62.8270 N.ar      1 SAH402      0.0000 
     24 C2          2.3610   33.4520  -62.6870 C.ar      1 SAH402      0.0000 
     25 N3          1.5640   32.3500  -62.4570 N.ar      1 SAH402      0.0000 
     26 C4          2.1210   31.1150  -62.3660 C.ar      1 SAH402      0.0000 
@<TRIPOS>BOND
     1    1    2 1    
     2    2    3 1    
     3    2    6 1    
     4    3    4 1    
     5    4    5 1    
     6    5    9 1    
     7    6    7 ar   
     8    6    8 ar   
     9    9   10 1    
    10   10   11 1    
    11   10   12 1    
    12   11   16 1    
    13   12   13 1    
    14   12   14 1    
    15   14   15 1    
    16   14   16 1    
    17   16   17 1    
    18   17   18 1    
    19   17   26 1    
    20   18   19 2    
    21   19   20 1    
    22   20   21 ar   
    23   20   26 ar   
    24   21   22 1    
    25   21   23 ar   
    26   23   24 ar   
    27   24   25 ar   
    28   25   26 ar   
@<TRIPOS>SUBSTRUCTURE
     1 SAH402      1 GROUP   
@<TRIPOS>SET

