#    Name: 5zdr_4_CHW
#    Modification time : Fri May 22 19:27:37 2020

@<TRIPOS>MOLECULE
5zdr_4_CHW
   24    24     1     0     0
SMALL
NO_CHARGES


@<TRIPOS>ATOM
      1 OAA       -39.9040   82.0490   30.5820 O.3       1 CHW504      0.0000 
      2 CAB       -38.5620   81.9340   30.4640 C.ar      1 CHW504      0.0000 
      3 CAC       -37.7560   82.9380   31.0040 C.ar      1 CHW504      0.0000 
      4 CAD       -38.3880   84.1050   31.7500 C.3       1 CHW504      0.0000 
      5 CAE       -38.6740   83.5090   33.1090 C.2       1 CHW504      0.0000 
      6 CAF       -39.7850   83.7070   33.8360 C.2       1 CHW504      0.0000 
      7 CAG       -39.9120   82.9930   35.1710 C.3       1 CHW504      0.0000 
      8 CAH       -41.1020   82.0310   35.2020 C.3       1 CHW504      0.0000 
      9 CAI       -41.0690   81.1590   36.4490 C.2       1 CHW504      0.0000 
     10 CAJ       -42.1450   80.4480   36.8610 C.2       1 CHW504      0.0000 
     11 CAK       -42.0840   79.5710   38.1050 C.3       1 CHW504      0.0000 
     12 OAL       -41.1830   78.4630   37.9130 O.3       1 CHW504      0.0000 
     13 OAM       -40.1060   79.9420   29.3160 O.2       1 CHW504      0.0000 
     14 CAN       -38.9040   79.7890   29.2230 C.2       1 CHW504      0.0000 
     15 CAO       -38.0170   80.8250   29.8020 C.ar      1 CHW504      0.0000 
     16 CAP       -36.3710   82.8300   30.9000 C.ar      1 CHW504      0.0000 
     17 OAQ       -35.5760   83.7960   31.4250 O.3       1 CHW504      0.0000 
     18 CAR       -40.8890   84.6160   33.3900 C.3       1 CHW504      0.0000 
     19 CAS       -43.4370   80.4950   36.0810 C.3       1 CHW504      0.0000 
     20 CAT       -41.6650   80.3530   39.3510 C.3       1 CHW504      0.0000 
     21 CAU       -36.5370   80.7220   29.6820 C.ar      1 CHW504      0.0000 
     22 CAV       -35.7860   81.7460   30.2460 C.ar      1 CHW504      0.0000 
     23 CLAW      -34.0140   81.6780   30.1320 Cl        1 CHW504      0.0000 
     24 CAX       -35.8400   79.5830   28.9790 C.3       1 CHW504      0.0000 
@<TRIPOS>BOND
     1    1    2 1    
     2    2    3 ar   
     3    2   15 ar   
     4    3    4 1    
     5    3   16 ar   
     6    4    5 1    
     7    5    6 2    
     8    6    7 1    
     9    6   18 1    
    10    7    8 1    
    11    8    9 1    
    12    9   10 2    
    13   10   11 1    
    14   10   19 1    
    15   11   12 1    
    16   11   20 1    
    17   13   14 2    
    18   14   15 1    
    19   15   21 ar   
    20   16   17 1    
    21   16   22 ar   
    22   21   22 ar   
    23   21   24 1    
    24   22   23 1    
@<TRIPOS>SUBSTRUCTURE
     1 CHW504      1 GROUP   
@<TRIPOS>SET

