#    Name: 5zdr_3_CHW
#    Modification time : Fri May 22 19:27:32 2020

@<TRIPOS>MOLECULE
5zdr_3_CHW
   24    24     1     0     0
SMALL
NO_CHARGES


@<TRIPOS>ATOM
      1 OAA       -60.0620   46.1520   21.4940 O.3       1 CHW504      0.0000 
      2 CAB       -60.8760   46.4240   20.4270 C.ar      1 CHW504      0.0000 
      3 CAC       -61.9760   45.5990   20.1550 C.ar      1 CHW504      0.0000 
      4 CAD       -62.2950   44.3880   21.0260 C.3       1 CHW504      0.0000 
      5 CAE       -62.4550   44.7480   22.5000 C.2       1 CHW504      0.0000 
      6 CAF       -63.6120   45.1550   23.0660 C.2       1 CHW504      0.0000 
      7 CAG       -63.6460   45.4800   24.5520 C.3       1 CHW504      0.0000 
      8 CAH       -64.1590   46.8800   24.9060 C.3       1 CHW504      0.0000 
      9 CAI       -63.2030   47.5330   25.8900 C.2       1 CHW504      0.0000 
     10 CAJ       -63.4000   48.7220   26.5250 C.2       1 CHW504      0.0000 
     11 CAK       -64.6390   49.5670   26.3170 C.3       1 CHW504      0.0000 
     12 OAL       -65.7450   49.1480   27.1320 O.3       1 CHW504      0.0000 
     13 OAM       -58.7070   48.1450   20.8410 O.2       1 CHW504      0.0000 
     14 CAN       -59.4460   48.4250   19.9040 C.2       1 CHW504      0.0000 
     15 CAO       -60.6090   47.5440   19.6250 C.ar      1 CHW504      0.0000 
     16 CAP       -62.7980   45.8880   19.0690 C.ar      1 CHW504      0.0000 
     17 OAQ       -63.8680   45.1230   18.7630 O.3       1 CHW504      0.0000 
     18 CAR       -64.8770   45.2760   22.2580 C.3       1 CHW504      0.0000 
     19 CAS       -62.3170   49.2030   27.4600 C.3       1 CHW504      0.0000 
     20 CAT       -64.3400   51.0240   26.6550 C.3       1 CHW504      0.0000 
     21 CAU       -61.5110   47.8290   18.4630 C.ar      1 CHW504      0.0000 
     22 CAV       -62.5610   46.9710   18.2580 C.ar      1 CHW504      0.0000 
     23 CLAW      -63.6590   47.2960   16.9100 Cl        1 CHW504      0.0000 
     24 CAX       -61.3570   48.9930   17.5060 C.3       1 CHW504      0.0000 
@<TRIPOS>BOND
     1    1    2 1    
     2    2    3 ar   
     3    2   15 ar   
     4    3    4 1    
     5    3   16 ar   
     6    4    5 1    
     7    5    6 2    
     8    6    7 1    
     9    6   18 1    
    10    7    8 1    
    11    8    9 1    
    12    9   10 2    
    13   10   11 1    
    14   10   19 1    
    15   11   12 1    
    16   11   20 1    
    17   13   14 2    
    18   14   15 1    
    19   15   21 ar   
    20   16   17 1    
    21   16   22 ar   
    22   21   22 ar   
    23   21   24 1    
    24   22   23 1    
@<TRIPOS>SUBSTRUCTURE
     1 CHW504      1 GROUP   
@<TRIPOS>SET

