#    Name: 5zdr_2_CHW
#    Modification time : Fri May 22 19:27:27 2020

@<TRIPOS>MOLECULE
5zdr_2_CHW
   24    24     1     0     0
SMALL
NO_CHARGES


@<TRIPOS>ATOM
      1 OAA       -62.9960   23.1360    6.3190 O.3       1 CHW504      0.0000 
      2 CAB       -62.7810   22.6380    7.5750 C.ar      1 CHW504      0.0000 
      3 CAC       -63.5030   23.1550    8.6750 C.ar      1 CHW504      0.0000 
      4 CAD       -64.5490   24.2640    8.5060 C.3       1 CHW504      0.0000 
      5 CAE       -65.5010   24.0180    7.3420 C.2       1 CHW504      0.0000 
      6 CAF       -66.7170   23.4490    7.4480 C.2       1 CHW504      0.0000 
      7 CAG       -67.5600   23.2350    6.1970 C.3       1 CHW504      0.0000 
      8 CAH       -66.9470   22.0930    5.3890 C.3       1 CHW504      0.0000 
      9 CAI       -67.8870   21.4940    4.3590 C.2       1 CHW504      0.0000 
     10 CAJ       -68.8540   20.5950    4.6480 C.2       1 CHW504      0.0000 
     11 CAK       -69.7320   20.0400    3.5660 C.3       1 CHW504      0.0000 
     12 OAL       -69.7650   20.9160    2.4350 O.3       1 CHW504      0.0000 
     13 OAM       -61.1440   21.5600    5.4770 O.2       1 CHW504      0.0000 
     14 CAN       -61.0470   21.0800    6.5790 C.2       1 CHW504      0.0000 
     15 CAO       -61.8380   21.6200    7.7200 C.ar      1 CHW504      0.0000 
     16 CAP       -63.2570   22.6410    9.9520 C.ar      1 CHW504      0.0000 
     17 OAQ       -63.9220   23.0660   11.0760 O.3       1 CHW504      0.0000 
     18 CAR       -67.2770   23.0070    8.7660 C.3       1 CHW504      0.0000 
     19 CAS       -69.1130   20.0970    6.0340 C.3       1 CHW504      0.0000 
     20 CAT       -69.1970   18.6680    3.1520 C.3       1 CHW504      0.0000 
     21 CAU       -61.5840   21.0980    9.0900 C.ar      1 CHW504      0.0000 
     22 CAV       -62.3250   21.6380   10.1130 C.ar      1 CHW504      0.0000 
     23 CLAW      -62.1040   20.9900   11.7260 Cl        1 CHW504      0.0000 
     24 CAX       -60.5950   19.9860    9.3990 C.3       1 CHW504      0.0000 
@<TRIPOS>BOND
     1    1    2 1    
     2    2    3 ar   
     3    2   15 ar   
     4    3    4 1    
     5    3   16 ar   
     6    4    5 1    
     7    5    6 2    
     8    6    7 1    
     9    6   18 1    
    10    7    8 1    
    11    8    9 1    
    12    9   10 2    
    13   10   11 1    
    14   10   19 1    
    15   11   12 1    
    16   11   20 1    
    17   13   14 2    
    18   14   15 1    
    19   15   21 ar   
    20   16   17 1    
    21   16   22 ar   
    22   21   22 ar   
    23   21   24 1    
    24   22   23 1    
@<TRIPOS>SUBSTRUCTURE
     1 CHW504      1 GROUP   
@<TRIPOS>SET

