#    Name: 5zdr_1_CHW
#    Modification time : Fri May 22 19:27:22 2020

@<TRIPOS>MOLECULE
5zdr_1_CHW
   24    24     1     0     0
SMALL
NO_CHARGES


@<TRIPOS>ATOM
      1 OAA       -49.2160   -3.9660  -22.9480 O.3       1 CHW504      0.0000 
      2 CAB       -48.0820   -3.4800  -23.5280 C.ar      1 CHW504      0.0000 
      3 CAC       -47.5420   -4.0750  -24.6560 C.ar      1 CHW504      0.0000 
      4 CAD       -48.2240   -5.2480  -25.2780 C.3       1 CHW504      0.0000 
      5 CAE       -49.4180   -4.6800  -25.9930 C.2       1 CHW504      0.0000 
      6 CAF       -50.6530   -5.0820  -25.6860 C.2       1 CHW504      0.0000 
      7 CAG       -51.8100   -4.4740  -26.4090 C.3       1 CHW504      0.0000 
      8 CAH       -52.4650   -3.4590  -25.5030 C.3       1 CHW504      0.0000 
      9 CAI       -53.4630   -2.6850  -26.3330 C.2       1 CHW504      0.0000 
     10 CAJ       -54.2920   -1.7690  -25.8030 C.2       1 CHW504      0.0000 
     11 CAK       -55.2470   -1.0530  -26.7130 C.3       1 CHW504      0.0000 
     12 OAL       -56.0230   -0.1570  -25.9100 O.3       1 CHW504      0.0000 
     13 OAM       -49.0600   -2.5250  -21.2750 O.2       1 CHW504      0.0000 
     14 CAN       -48.1260   -1.8490  -21.7190 C.2       1 CHW504      0.0000 
     15 CAO       -47.4920   -2.3800  -22.9510 C.ar      1 CHW504      0.0000 
     16 CAP       -46.4180   -3.5760  -25.2420 C.ar      1 CHW504      0.0000 
     17 OAQ       -45.9280   -4.1670  -26.3480 O.3       1 CHW504      0.0000 
     18 CAR       -50.9490   -6.1420  -24.6580 C.3       1 CHW504      0.0000 
     19 CAS       -54.2950   -1.4460  -24.3220 C.3       1 CHW504      0.0000 
     20 CAT       -54.5080   -0.2550  -27.7880 C.3       1 CHW504      0.0000 
     21 CAU       -46.2690   -1.8400  -23.5730 C.ar      1 CHW504      0.0000 
     22 CAV       -45.8080   -2.4580  -24.7130 C.ar      1 CHW504      0.0000 
     23 CLAW      -44.3490   -1.8390  -25.5260 Cl        1 CHW504      0.0000 
     24 CAX       -45.5320   -0.6500  -23.0400 C.3       1 CHW504      0.0000 
@<TRIPOS>BOND
     1    1    2 1    
     2    2    3 ar   
     3    2   15 ar   
     4    3    4 1    
     5    3   16 ar   
     6    4    5 1    
     7    5    6 2    
     8    6    7 1    
     9    6   18 1    
    10    7    8 1    
    11    8    9 1    
    12    9   10 2    
    13   10   11 1    
    14   10   19 1    
    15   11   12 1    
    16   11   20 1    
    17   13   14 2    
    18   14   15 1    
    19   15   21 ar   
    20   16   17 1    
    21   16   22 ar   
    22   21   22 ar   
    23   21   24 1    
    24   22   23 1    
@<TRIPOS>SUBSTRUCTURE
     1 CHW504      1 GROUP   
@<TRIPOS>SET

