#    Name: 5xo8_8_ZER_CAVITY_N1_6
#    Modification time : Fri May 22 19:20:57 2020

@<TRIPOS>MOLECULE
5xo8_8_ZER_CAVITY_N1_6
   74     0     5     0     0
SMALL
NO_CHARGES


@<TRIPOS>ATOM
      1 OG          4.2100  -13.7800   62.4100 O.3       1 SER1        0.0000 
      2 OG          3.2500  -12.6500   62.2400 O.3       1 SER1        0.0000 
      3 OG          7.5700  -16.6100   64.2100 O.3       1 SER1        0.0000 
      4 OG          4.6900  -13.1900   63.7000 O.3       1 SER1        0.0000 
      5 OG          3.7300  -12.0500   63.5300 O.3       1 SER1        0.0000 
      6 OG          4.6000  -15.1000   64.6200 O.3       1 SER1        0.0000 
      7 OG          2.6800  -12.8200   64.2700 O.3       1 SER1        0.0000 
      8 OG          4.1200  -13.3600   65.7300 O.3       1 SER1        0.0000 
      9 OG          3.0700  -14.1300   66.4800 O.3       1 SER1        0.0000 
     10 OG          2.6700  -10.4900   66.6800 O.3       1 SER1        0.0000 
     11 OG          2.5900  -12.4000   67.6000 O.3       1 SER1        0.0000 
     12 O           5.8300  -12.8400   59.6300 O.2       2 ALA2        0.0000 
     13 O           8.2300  -14.5200   61.2600 O.2       2 ALA2        0.0000 
     14 O           7.2700  -13.3800   61.0900 O.2       2 ALA2        0.0000 
     15 O           6.3100  -12.2400   60.9200 O.2       2 ALA2        0.0000 
     16 O           7.0900  -17.2000   62.9200 O.2       2 ALA2        0.0000 
     17 O           8.7100  -13.9200   62.5500 O.2       2 ALA2        0.0000 
     18 O           8.6200  -15.8300   63.4700 O.2       2 ALA2        0.0000 
     19 O           6.0400  -15.6400   66.0800 O.2       2 ALA2        0.0000 
     20 O           4.0300  -15.2700   66.6500 O.2       2 ALA2        0.0000 
     21 CZ          4.7800  -13.6100   60.3700 C.ar      3 PHE5        0.0000 
     22 CZ          3.8200  -12.4700   60.2000 C.ar      3 PHE5        0.0000 
     23 CZ          3.7400  -14.3800   61.1200 C.ar      3 PHE5        0.0000 
     24 CZ          2.7700  -13.2400   60.9500 C.ar      3 PHE5        0.0000 
     25 CZ          3.3400  -10.7300   61.3200 C.ar      3 PHE5        0.0000 
     26 CZ          2.2900  -11.5100   62.0700 C.ar      3 PHE5        0.0000 
     27 CZ          7.6600  -14.6900   63.3000 C.ar      3 PHE5        0.0000 
     28 CZ          6.7000  -13.5500   63.1300 C.ar      3 PHE5        0.0000 
     29 CZ          2.8600   -9.0000   62.4400 C.ar      3 PHE5        0.0000 
     30 CZ          6.6100  -15.4700   64.0400 C.ar      3 PHE5        0.0000 
     31 CZ          5.6500  -14.3300   63.8700 C.ar      3 PHE5        0.0000 
     32 CZ          2.7700  -10.9100   63.3600 C.ar      3 PHE5        0.0000 
     33 CZ          1.7200  -11.6800   64.1000 C.ar      3 PHE5        0.0000 
     34 CZ          5.1700  -12.5900   64.9900 C.ar      3 PHE5        0.0000 
     35 CZ          2.2800   -9.1700   64.4800 C.ar      3 PHE5        0.0000 
     36 CZ          5.0800  -14.5000   65.9100 C.ar      3 PHE5        0.0000 
     37 CZ          3.1600  -12.2200   65.5600 C.ar      3 PHE5        0.0000 
     38 CZ          2.2000  -11.0800   65.3900 C.ar      3 PHE5        0.0000 
     39 CZ          1.2400   -9.9500   65.2200 C.ar      3 PHE5        0.0000 
     40 CZ          2.1100  -13.0000   66.3100 C.ar      3 PHE5        0.0000 
     41 CZ          1.1500  -11.8600   66.1400 C.ar      3 PHE5        0.0000 
     42 CZ          5.6400  -11.9900   66.2800 C.ar      3 PHE5        0.0000 
     43 CZ          5.5600  -13.9100   67.2000 C.ar      3 PHE5        0.0000 
     44 CA          4.8700  -11.7000   59.4600 C.3       4 GLY6        0.0000 
     45 CA          5.3500  -11.1000   60.7500 C.3       4 GLY6        0.0000 
     46 CA          8.1400  -16.4300   62.1800 C.3       4 GLY6        0.0000 
     47 CA          7.1800  -15.2900   62.0100 C.3       4 GLY6        0.0000 
     48 CA          6.2200  -14.1500   61.8300 C.3       4 GLY6        0.0000 
     49 CA          5.2600  -13.0100   61.6600 C.3       4 GLY6        0.0000 
     50 CA          4.3000  -11.8700   61.4900 C.3       4 GLY6        0.0000 
     51 CA          6.1300  -16.0600   62.7500 C.3       4 GLY6        0.0000 
     52 CA          5.1700  -14.9200   62.5800 C.3       4 GLY6        0.0000 
     53 CA          7.7500  -12.7800   62.3800 C.3       4 GLY6        0.0000 
     54 CA          4.8700   -9.3700   61.8700 C.3       4 GLY6        0.0000 
     55 CA          5.7400  -12.4200   62.9500 C.3       4 GLY6        0.0000 
     56 CA          4.7800  -11.2800   62.7800 C.3       4 GLY6        0.0000 
     57 CA          3.8200  -10.1400   62.6100 C.3       4 GLY6        0.0000 
     58 CA          5.5600  -16.2400   64.7900 C.3       4 GLY6        0.0000 
     59 CA          6.2200  -11.8200   64.2400 C.3       4 GLY6        0.0000 
     60 CA          5.2500  -10.6800   64.0700 C.3       4 GLY6        0.0000 
     61 CA          4.2900   -9.5400   63.9000 C.3       4 GLY6        0.0000 
     62 CA          3.3300   -8.4000   63.7300 C.3       4 GLY6        0.0000 
     63 CA          5.7300  -10.0800   65.3600 C.3       4 GLY6        0.0000 
     64 CA          4.7700   -8.9400   65.1900 C.3       4 GLY6        0.0000 
     65 CA          4.6800  -10.8500   66.1100 C.3       4 GLY6        0.0000 
     66 CA          3.7200   -9.7200   65.9400 C.3       4 GLY6        0.0000 
     67 CA          2.7600   -8.5800   65.7700 C.3       4 GLY6        0.0000 
     68 CA          4.6000  -12.7700   67.0300 C.3       4 GLY6        0.0000 
     69 CA          3.6400  -11.6300   66.8500 C.3       4 GLY6        0.0000 
     70 CA          4.5100  -14.6800   67.9400 C.3       4 GLY6        0.0000 
     71 CA          3.5500  -13.5400   67.7700 C.3       4 GLY6        0.0000 
     72 CA          5.0700  -12.1700   68.3200 C.3       4 GLY6        0.0000 
     73 DU          4.2100  -11.4500   64.8200 H         5 CUB7        0.0000 
     74 DU          3.2500  -10.3100   64.6500 H         5 CUB7        0.0000 
@<TRIPOS>BOND
@<TRIPOS>SUBSTRUCTURE
     1 SER1        1 GROUP   
     2 ALA2       12 GROUP   
     3 PHE5       21 GROUP   
     4 GLY6       44 GROUP   
     5 CUB7       73 GROUP   
@<TRIPOS>SET

