#    Name: 5xo8_1_ZER
#    Modification time : Fri May 22 19:20:41 2020

@<TRIPOS>MOLECULE
5xo8_1_ZER
   23    24     1     0     0
SMALL
NO_CHARGES


@<TRIPOS>ATOM
      1 O12        -9.6120    2.5490   -5.4810           1 ZER301      0.0000 
      2 C12        -9.5350    1.5020   -4.8260           1 ZER301      0.0000 
      3 O10        -9.6790    0.2970   -5.3910           1 ZER301      0.0000 
      4 C10        -8.7000    0.1900   -6.9350           1 ZER301      0.0000 
      5 C11        -7.1640    0.7500   -6.7540           1 ZER301      0.0000 
      6 C9P        -8.5180   -0.9670   -7.6250           1 ZER301      0.0000 
      7 C1         -9.3100    1.5180   -3.3670           1 ZER301      0.0000 
      8 C2         -8.9380    2.7640   -2.8260           1 ZER301      0.0000 
      9 O2         -8.7610    3.7580   -3.6780           1 ZER301      0.0000 
     10 C3         -8.6680    2.9910   -1.4800           1 ZER301      0.0000 
     11 C4         -8.8540    1.9090   -0.6340           1 ZER301      0.0000 
     12 O4         -8.6030    2.0800    0.7000           1 ZER301      0.0000 
     13 C5         -9.2770    0.6590   -1.1280           1 ZER301      0.0000 
     14 C6         -9.5650    0.4280   -2.4720           1 ZER301      0.0000 
     15 C1P       -10.0210   -0.9010   -2.8860           1 ZER301      0.0000 
     16 C2P       -10.1190   -2.0980   -2.1820           1 ZER301      0.0000 
     17 C3P       -10.5310   -3.4140   -2.6160           1 ZER301      0.0000 
     18 C4P        -9.1910   -4.2060   -2.8930           1 ZER301      0.0000 
     19 C5P        -9.0260   -4.1600   -4.4860           1 ZER301      0.0000 
     20 C6P        -7.6890   -4.1000   -4.9760           1 ZER301      0.0000 
     21 O6P        -6.7610   -4.4700   -4.1850           1 ZER301      0.0000 
     22 C7P        -7.4810   -3.7110   -6.4100           1 ZER301      0.0000 
     23 C8P        -7.2930   -2.0470   -6.7170           1 ZER301      0.0000 
@<TRIPOS>BOND
     1    1    2 du   
     2    2    3 du   
     3    2    7 du   
     4    3    4 du   
     5    4    5 du   
     6    4    6 du   
     7    6   23 du   
     8    7    8 du   
     9    7   14 du   
    10    8    9 du   
    11    8   10 du   
    12   10   11 du   
    13   11   12 du   
    14   11   13 du   
    15   13   14 du   
    16   14   15 du   
    17   15   16 du   
    18   16   17 du   
    19   17   18 du   
    20   18   19 du   
    21   19   20 du   
    22   20   21 du   
    23   20   22 du   
    24   22   23 du   
@<TRIPOS>SUBSTRUCTURE
     1 ZER301      1 GROUP   
@<TRIPOS>SET

