#    Name: 5xo8_3_ZER
#    Modification time : Fri May 22 19:20:47 2020

@<TRIPOS>MOLECULE
5xo8_3_ZER
   23    24     1     0     0
SMALL
NO_CHARGES


@<TRIPOS>ATOM
      1 O12       -29.0800  -26.9270    2.0630           1 ZER301      0.0000 
      2 C12       -28.6530  -26.2120    1.1380           1 ZER301      0.0000 
      3 O10       -27.3100  -26.0300    0.9420           1 ZER301      0.0000 
      4 C10       -26.1370  -27.4320    0.9150           1 ZER301      0.0000 
      5 C11       -26.8450  -28.6950    0.2810           1 ZER301      0.0000 
      6 C9P       -24.7670  -27.2900    0.1530           1 ZER301      0.0000 
      7 C1        -29.5940  -25.6490    0.2220           1 ZER301      0.0000 
      8 C2        -30.9350  -26.0740    0.3360           1 ZER301      0.0000 
      9 O2        -31.2070  -27.0300    1.3190           1 ZER301      0.0000 
     10 C3        -31.9460  -25.6500   -0.4860           1 ZER301      0.0000 
     11 C4        -31.6630  -24.7240   -1.4700           1 ZER301      0.0000 
     12 O4        -32.6260  -24.2330   -2.2480           1 ZER301      0.0000 
     13 C5        -30.3620  -24.2930   -1.5950           1 ZER301      0.0000 
     14 C6        -29.2950  -24.6800   -0.7720           1 ZER301      0.0000 
     15 C1P       -27.9640  -24.1410   -1.0070           1 ZER301      0.0000 
     16 C2P       -27.5200  -23.0710   -1.7850           1 ZER301      0.0000 
     17 C3P       -26.1210  -22.6630   -2.0030           1 ZER301      0.0000 
     18 C4P       -25.6170  -23.6380   -3.0750           1 ZER301      0.0000 
     19 C5P       -24.5500  -24.5400   -2.3620           1 ZER301      0.0000 
     20 C6P       -24.3020  -25.7870   -3.0210           1 ZER301      0.0000 
     21 O6P       -24.7020  -25.9810   -4.1950           1 ZER301      0.0000 
     22 C7P       -23.6150  -26.8140   -2.2460           1 ZER301      0.0000 
     23 C8P       -24.7640  -27.6170   -1.3650           1 ZER301      0.0000 
@<TRIPOS>BOND
     1    1    2 du   
     2    2    3 du   
     3    2    7 du   
     4    3    4 du   
     5    4    5 du   
     6    4    6 du   
     7    6   23 du   
     8    7    8 du   
     9    7   14 du   
    10    8    9 du   
    11    8   10 du   
    12   10   11 du   
    13   11   12 du   
    14   11   13 du   
    15   13   14 du   
    16   14   15 du   
    17   15   16 du   
    18   16   17 du   
    19   17   18 du   
    20   18   19 du   
    21   19   20 du   
    22   20   21 du   
    23   20   22 du   
    24   22   23 du   
@<TRIPOS>SUBSTRUCTURE
     1 ZER301      1 GROUP   
@<TRIPOS>SET

