#    Name: 5xo8_7_ZER
#    Modification time : Fri May 22 19:20:53 2020

@<TRIPOS>MOLECULE
5xo8_7_ZER
   23    24     1     0     0
SMALL
NO_CHARGES


@<TRIPOS>ATOM
      1 O12       -26.0020   36.0070  -60.1050           1 ZER301      0.0000 
      2 C12       -26.3370   34.9860  -59.5160           1 ZER301      0.0000 
      3 O10       -27.4220   34.2630  -59.8200           1 ZER301      0.0000 
      4 C10       -28.1100   33.2980  -61.2310           1 ZER301      0.0000 
      5 C11       -28.5340   34.2420  -62.2670           1 ZER301      0.0000 
      6 C9P       -27.7260   31.6420  -62.0790           1 ZER301      0.0000 
      7 C1        -25.5260   34.5240  -58.4170           1 ZER301      0.0000 
      8 C2        -24.2640   35.1550  -58.2550           1 ZER301      0.0000 
      9 O2        -23.8640   36.1160  -59.1230           1 ZER301      0.0000 
     10 C3        -23.3590   34.7810  -57.2560           1 ZER301      0.0000 
     11 C4        -23.6870   33.7630  -56.3680           1 ZER301      0.0000 
     12 O4        -22.8030   33.3940  -55.3840           1 ZER301      0.0000 
     13 C5        -24.9420   33.1370  -56.4940           1 ZER301      0.0000 
     14 C6        -25.8710   33.4880  -57.5140           1 ZER301      0.0000 
     15 C1P       -27.1020   32.7680  -57.5320           1 ZER301      0.0000 
     16 C2P       -27.8030   32.0160  -56.5640           1 ZER301      0.0000 
     17 C3P       -29.0790   31.3580  -56.8740           1 ZER301      0.0000 
     18 C4P       -29.0500   29.8220  -56.9180           1 ZER301      0.0000 
     19 C5P       -29.9750   29.3260  -58.2130           1 ZER301      0.0000 
     20 C6P       -29.1810   29.1010  -59.4240           1 ZER301      0.0000 
     21 O6P       -28.2090   28.3160  -59.2620           1 ZER301      0.0000 
     22 C7P       -29.3900   29.7030  -60.8000           1 ZER301      0.0000 
     23 C8P       -27.9870   30.5890  -60.9980           1 ZER301      0.0000 
@<TRIPOS>BOND
     1    1    2 du   
     2    2    3 du   
     3    2    7 du   
     4    3    4 du   
     5    4    5 du   
     6    4    6 du   
     7    6   23 du   
     8    7    8 du   
     9    7   14 du   
    10    8    9 du   
    11    8   10 du   
    12   10   11 du   
    13   11   12 du   
    14   11   13 du   
    15   13   14 du   
    16   14   15 du   
    17   15   16 du   
    18   16   17 du   
    19   17   18 du   
    20   18   19 du   
    21   19   20 du   
    22   20   21 du   
    23   20   22 du   
    24   22   23 du   
@<TRIPOS>SUBSTRUCTURE
     1 ZER301      1 GROUP   
@<TRIPOS>SET

