#    Name: 5xo8_5_ZER
#    Modification time : Fri May 22 19:20:50 2020

@<TRIPOS>MOLECULE
5xo8_5_ZER
   23    24     1     0     0
SMALL
NO_CHARGES


@<TRIPOS>ATOM
      1 O12       -18.2110   -2.2620   42.3210           1 ZER301      0.0000 
      2 C12       -18.2330   -2.9050   43.3720           1 ZER301      0.0000 
      3 O10       -17.4390   -2.4380   44.3660           1 ZER301      0.0000 
      4 C10       -17.7200   -1.2490   45.4740           1 ZER301      0.0000 
      5 C11       -17.3240    0.1360   44.9830           1 ZER301      0.0000 
      6 C9P       -19.1560   -1.1850   46.3070           1 ZER301      0.0000 
      7 C1        -18.8510   -4.1970   43.4620           1 ZER301      0.0000 
      8 C2        -19.7650   -4.5380   42.4320           1 ZER301      0.0000 
      9 O2        -19.9880   -3.6220   41.3940           1 ZER301      0.0000 
     10 C3        -20.4290   -5.7370   42.3860           1 ZER301      0.0000 
     11 C4        -20.2280   -6.6550   43.4100           1 ZER301      0.0000 
     12 O4        -20.8600   -7.8330   43.3850           1 ZER301      0.0000 
     13 C5        -19.3800   -6.3330   44.4730           1 ZER301      0.0000 
     14 C6        -18.7090   -5.1330   44.5550           1 ZER301      0.0000 
     15 C1P       -17.8180   -4.9140   45.6290           1 ZER301      0.0000 
     16 C2P       -17.0410   -5.3700   46.7280           1 ZER301      0.0000 
     17 C3P       -16.9640   -5.7250   48.1210           1 ZER301      0.0000 
     18 C4P       -17.5660   -4.7840   49.0940           1 ZER301      0.0000 
     19 C5P       -17.0090   -3.3280   49.0450           1 ZER301      0.0000 
     20 C6P       -18.1020   -2.4050   49.1530           1 ZER301      0.0000 
     21 O6P       -19.1480   -2.7960   49.7080           1 ZER301      0.0000 
     22 C7P       -17.9230   -1.0240   48.7140           1 ZER301      0.0000 
     23 C8P       -18.8580   -0.4130   47.6240           1 ZER301      0.0000 
@<TRIPOS>BOND
     1    1    2 du   
     2    2    3 du   
     3    2    7 du   
     4    3    4 du   
     5    4    5 du   
     6    4    6 du   
     7    6   23 du   
     8    7    8 du   
     9    7   14 du   
    10    8    9 du   
    11    8   10 du   
    12   10   11 du   
    13   11   12 du   
    14   11   13 du   
    15   13   14 du   
    16   14   15 du   
    17   15   16 du   
    18   16   17 du   
    19   17   18 du   
    20   18   19 du   
    21   19   20 du   
    22   20   21 du   
    23   20   22 du   
    24   22   23 du   
@<TRIPOS>SUBSTRUCTURE
     1 ZER301      1 GROUP   
@<TRIPOS>SET

