#    Name: 5xo8_2_ZER
#    Modification time : Fri May 22 19:20:44 2020

@<TRIPOS>MOLECULE
5xo8_2_ZER
   23    24     1     0     0
SMALL
NO_CHARGES


@<TRIPOS>ATOM
      1 O12       -47.1180   15.1580    9.2710           1 ZER301      0.0000 
      2 C12       -46.9980   16.1970    8.6110           1 ZER301      0.0000 
      3 O10       -47.2630   17.3800    9.1880           1 ZER301      0.0000 
      4 C10       -46.3590   18.4620   10.4540           1 ZER301      0.0000 
      5 C11       -46.5700   17.9300   11.7740           1 ZER301      0.0000 
      6 C9P       -44.7640   19.3780   10.5200           1 ZER301      0.0000 
      7 C1        -46.8800   16.1470    7.1680           1 ZER301      0.0000 
      8 C2        -46.4990   14.8870    6.5930           1 ZER301      0.0000 
      9 O2        -46.3770   13.8510    7.4120           1 ZER301      0.0000 
     10 C3        -46.3630   14.7120    5.2560           1 ZER301      0.0000 
     11 C4        -46.5250   15.7760    4.4060           1 ZER301      0.0000 
     12 O4        -46.4170   15.5490    3.1160           1 ZER301      0.0000 
     13 C5        -46.8370   17.0120    4.9150           1 ZER301      0.0000 
     14 C6        -47.0100   17.2500    6.2650           1 ZER301      0.0000 
     15 C1P       -47.3630   18.6170    6.7120           1 ZER301      0.0000 
     16 C2P       -47.8900   19.7030    6.0390           1 ZER301      0.0000 
     17 C3P       -48.3030   20.9350    6.6910           1 ZER301      0.0000 
     18 C4P       -47.4480   22.2310    6.7720           1 ZER301      0.0000 
     19 C5P       -47.1350   22.7300    8.2740           1 ZER301      0.0000 
     20 C6P       -45.7640   22.5480    8.6570           1 ZER301      0.0000 
     21 O6P       -44.8600   22.7860    7.8080           1 ZER301      0.0000 
     22 C7P       -45.3920   21.9580    9.9570           1 ZER301      0.0000 
     23 C8P       -44.9070   20.5020    9.5620           1 ZER301      0.0000 
@<TRIPOS>BOND
     1    1    2 du   
     2    2    3 du   
     3    2    7 du   
     4    3    4 du   
     5    4    5 du   
     6    4    6 du   
     7    6   23 du   
     8    7    8 du   
     9    7   14 du   
    10    8    9 du   
    11    8   10 du   
    12   10   11 du   
    13   11   12 du   
    14   11   13 du   
    15   13   14 du   
    16   14   15 du   
    17   15   16 du   
    18   16   17 du   
    19   17   18 du   
    20   18   19 du   
    21   19   20 du   
    22   20   21 du   
    23   20   22 du   
    24   22   23 du   
@<TRIPOS>SUBSTRUCTURE
     1 ZER301      1 GROUP   
@<TRIPOS>SET

