#    Name: 5xo8_8_ZER
#    Modification time : Fri May 22 19:20:56 2020

@<TRIPOS>MOLECULE
5xo8_8_ZER
   23    24     1     0     0
SMALL
NO_CHARGES


@<TRIPOS>ATOM
      1 O12         5.5170  -16.7810   65.1770           1 ZER301      0.0000 
      2 C12         5.3260  -15.7670   64.5270           1 ZER301      0.0000 
      3 O10         4.1940  -15.1240   64.5830           1 ZER301      0.0000 
      4 C10         3.5640  -14.0630   65.8940           1 ZER301      0.0000 
      5 C11         2.8650  -14.8870   66.9510           1 ZER301      0.0000 
      6 C9P         4.0860  -12.6190   66.7440           1 ZER301      0.0000 
      7 C1          6.3540  -15.2220   63.6450           1 ZER301      0.0000 
      8 C2          7.6100  -15.7610   63.7290           1 ZER301      0.0000 
      9 O2          7.8430  -16.7770   64.6070           1 ZER301      0.0000 
     10 C3          8.6840  -15.3400   62.9430           1 ZER301      0.0000 
     11 C4          8.4920  -14.3820   62.0330           1 ZER301      0.0000 
     12 O4          9.4980  -13.9650   61.2840           1 ZER301      0.0000 
     13 C5          7.2370  -13.8290   61.8830           1 ZER301      0.0000 
     14 C6          6.1450  -14.2000   62.6940           1 ZER301      0.0000 
     15 C1P         4.8720  -13.5340   62.4600           1 ZER301      0.0000 
     16 C2P         4.6090  -12.4870   61.6030           1 ZER301      0.0000 
     17 C3P         3.3870  -11.8170   61.5010           1 ZER301      0.0000 
     18 C4P         3.3190  -10.4610   62.3390           1 ZER301      0.0000 
     19 C5P         2.7210  -10.9530   63.7170           1 ZER301      0.0000 
     20 C6P         2.8380  -10.1250   64.8190           1 ZER301      0.0000 
     21 O6P         3.7490   -9.2750   64.7950           1 ZER301      0.0000 
     22 C7P         2.1990  -10.4730   66.0680           1 ZER301      0.0000 
     23 C8P         2.7030  -11.8220   66.8370           1 ZER301      0.0000 
@<TRIPOS>BOND
     1    1    2 du   
     2    2    3 du   
     3    2    7 du   
     4    3    4 du   
     5    4    5 du   
     6    4    6 du   
     7    6   23 du   
     8    7    8 du   
     9    7   14 du   
    10    8    9 du   
    11    8   10 du   
    12   10   11 du   
    13   11   12 du   
    14   11   13 du   
    15   13   14 du   
    16   14   15 du   
    17   15   16 du   
    18   16   17 du   
    19   17   18 du   
    20   18   19 du   
    21   19   20 du   
    22   20   21 du   
    23   20   22 du   
    24   22   23 du   
@<TRIPOS>SUBSTRUCTURE
     1 ZER301      1 GROUP   
@<TRIPOS>SET

