#    Name: 6dca_4_THR_SER_PRO_ARG_HIS_LEU_NH2
#    Modification time : Fri May 22 19:23:53 2020

@<TRIPOS>MOLECULE
6dca_4_THR_SER_PRO_ARG_HIS_LEU_NH2
   50    51     7     0     0
SMALL
NO_CHARGES


@<TRIPOS>ATOM
      1 N         -57.1010  -40.1760   18.6920 N.4       1 THR403      0.0000 
      2 CA        -58.1470  -41.1500   18.3430 C.3       1 THR403      0.0000 
      3 C         -58.3850  -42.1280   19.4840 C.2       1 THR403      0.0000 
      4 O         -58.4650  -43.3380   19.2330 O.2       1 THR403      0.0000 
      5 CB        -57.7870  -41.9830   17.0680 C.3       1 THR403      0.0000 
      6 OG1       -57.1050  -41.1530   16.1200 O.3       1 THR403      0.0000 
      7 CG2       -59.0520  -42.5830   16.4060 C.3       1 THR403      0.0000 
      8 N         -58.4940  -41.5970   20.7320 N.am      2 SER404      0.0000 
      9 CA        -58.5640  -42.3610   21.9860 C.3       2 SER404      0.0000 
     10 C         -59.4240  -43.6170   21.8840 C.2       2 SER404      0.0000 
     11 O         -60.4190  -43.6430   21.1390 O.2       2 SER404      0.0000 
     12 CB        -59.1100  -41.4930   23.1290 C.3       2 SER404      0.0000 
     13 OG        -58.0750  -40.8160   23.8330 O.3       2 SER404      0.0000 
     14 N         -59.0750  -44.6780   22.6070 N.am      3 PRO405      0.0000 
     15 CA        -60.0240  -45.7850   22.7800 C.3       3 PRO405      0.0000 
     16 C         -61.3300  -45.2810   23.3790 C.2       3 PRO405      0.0000 
     17 O         -61.3490  -44.3760   24.2160 O.2       3 PRO405      0.0000 
     18 CB        -59.2910  -46.7360   23.7290 C.3       3 PRO405      0.0000 
     19 CG        -57.8530  -46.4410   23.5150 C.3       3 PRO405      0.0000 
     20 CD        -57.7560  -44.9780   23.1840 C.3       3 PRO405      0.0000 
     21 N         -62.4330  -45.8740   22.9320 N.am      4 ARG406      0.0000 
     22 CA        -63.7510  -45.3710   23.3060 C.3       4 ARG406      0.0000 
     23 C         -63.9750  -45.4470   24.8220 C.2       4 ARG406      0.0000 
     24 O         -64.5290  -44.5230   25.4270 O.2       4 ARG406      0.0000 
     25 CB        -64.8250  -46.1540   22.5500 C.3       4 ARG406      0.0000 
     26 CG        -64.8490  -47.6910   22.8190 C.3       4 ARG406      0.0000 
     27 CD        -63.6920  -48.4880   22.1780 C.3       4 ARG406      0.0000 
     28 NE        -63.5220  -48.1450   20.7670 N.pl3     4 ARG406      0.0000 
     29 CZ        -62.4810  -48.5010   20.0310 C.cat     4 ARG406      0.0000 
     30 NH1       -61.5020  -49.2240   20.5640 N.pl3     4 ARG406      0.0000 
     31 NH2       -62.4260  -48.1320   18.7590 N.pl3     4 ARG406      0.0000 
     32 N         -63.5260  -46.5250   25.4630 N.am      5 HIS407      0.0000 
     33 CA        -63.7100  -46.6510   26.9070 C.3       5 HIS407      0.0000 
     34 C         -62.8690  -45.6470   27.6820 C.2       5 HIS407      0.0000 
     35 O         -63.2420  -45.2740   28.8240 O.2       5 HIS407      0.0000 
     36 CB        -63.3500  -48.0620   27.3400 C.3       5 HIS407      0.0000 
     37 CG        -61.9650  -48.4570   26.9380 C.2       5 HIS407      0.0000 
     38 ND1       -61.6500  -48.9300   25.6810 N.pl3     5 HIS407      0.0000 
     39 CD2       -60.7990  -48.4080   27.6220 C.2       5 HIS407      0.0000 
     40 CE1       -60.3540  -49.1840   25.6230 C.2       5 HIS407      0.0000 
     41 NE2       -59.8130  -48.8650   26.7840 N.2       5 HIS407      0.0000 
     42 N         -61.7380  -45.2120   27.0960 N.am      6 LEU408      0.0000 
     43 CA        -60.7730  -44.3630   27.8330 C.3       6 LEU408      0.0000 
     44 C         -61.3470  -42.9050   28.0350 C.2       6 LEU408      0.0000 
     45 O         -62.4270  -42.5770   27.4820 O.2       6 LEU408      0.0000 
     46 CB        -59.5050  -44.2830   26.9980 C.3       6 LEU408      0.0000 
     47 CG        -58.2570  -44.8570   27.6020 C.3       6 LEU408      0.0000 
     48 CD1       -56.9850  -44.0720   27.3310 C.3       6 LEU408      0.0000 
     49 CD2       -58.4240  -45.0660   29.1270 C.3       6 LEU408      0.0000 
     50 N         -60.7090  -42.0830   28.8890           7 NH2409      0.0000 
@<TRIPOS>BOND
     1    1    2 1    
     2    2    3 1    
     3    2    5 1    
     4    3    4 2    
     5    3    8 am   
     6    5    6 1    
     7    5    7 1    
     8    8    9 1    
     9    9   10 1    
    10    9   12 1    
    11   10   11 2    
    12   10   14 am   
    13   12   13 1    
    14   14   15 1    
    15   14   20 1    
    16   15   16 1    
    17   15   18 1    
    18   16   17 2    
    19   16   21 am   
    20   18   19 1    
    21   19   20 1    
    22   21   22 1    
    23   22   23 1    
    24   22   25 1    
    25   23   24 2    
    26   23   32 am   
    27   25   26 1    
    28   26   27 1    
    29   27   28 1    
    30   28   29 ar   
    31   29   30 ar   
    32   29   31 ar   
    33   32   33 1    
    34   33   34 1    
    35   33   36 1    
    36   34   35 2    
    37   34   42 am   
    38   36   37 1    
    39   37   38 1    
    40   37   39 2    
    41   38   40 1    
    42   39   41 1    
    43   40   41 2    
    44   42   43 1    
    45   43   44 1    
    46   43   46 1    
    47   44   45 2    
    48   44   50 du   
    49   46   47 1    
    50   47   48 1    
    51   47   49 1    
@<TRIPOS>SUBSTRUCTURE
     1 THR403      1 RESIDUE 
     2 SER404      8 RESIDUE 
     3 PRO405     14 RESIDUE 
     4 ARG406     21 RESIDUE 
     5 HIS407     32 RESIDUE 
     6 LEU408     42 RESIDUE 
     7 NH2409     50 GROUP   
@<TRIPOS>SET

