#    Name: 6dca_1_THR_SER_PRO_ARG_HIS_LEU_NH2_CAVITY_N1_4
#    Modification time : Fri May 22 19:23:43 2020

@<TRIPOS>MOLECULE
6dca_1_THR_SER_PRO_ARG_HIS_LEU_NH2_CAVITY_N1_4
   79     0     6     0     0
SMALL
NO_CHARGES


@<TRIPOS>ATOM
      1 OG        -60.6800  -69.6300  -46.9300 O.3       1 SER1        0.0000 
      2 OG        -55.3900  -69.5200  -43.0800 O.3       1 SER1        0.0000 
      3 OG        -55.3900  -62.6500  -42.7000 O.3       1 SER1        0.0000 
      4 OG        -56.0100  -63.9800  -42.3900 O.3       1 SER1        0.0000 
      5 OG        -57.3600  -63.3300  -42.3100 O.3       1 SER1        0.0000 
      6 OG        -55.9100  -67.2900  -41.8500 O.3       1 SER1        0.0000 
      7 OG        -57.1600  -69.9500  -41.2300 O.3       1 SER1        0.0000 
      8 OG        -58.5000  -69.3000  -41.1500 O.3       1 SER1        0.0000 
      9 OG        -59.8500  -68.6400  -41.0700 O.3       1 SER1        0.0000 
     10 OG        -55.0800  -65.7200  -40.6900 O.3       1 SER1        0.0000 
     11 N         -59.9500  -64.7400  -46.3100 N.am      2 ALA2        0.0000 
     12 N         -60.5700  -66.0700  -46.0000 N.am      2 ALA2        0.0000 
     13 N         -59.1200  -63.1700  -45.1600 N.am      2 ALA2        0.0000 
     14 N         -59.7400  -64.5000  -44.8500 N.am      2 ALA2        0.0000 
     15 N         -59.0200  -66.4800  -44.6200 N.am      2 ALA2        0.0000 
     16 N         -60.3700  -65.8300  -44.5400 N.am      2 ALA2        0.0000 
     17 N         -60.9900  -67.1500  -44.2300 N.am      2 ALA2        0.0000 
     18 N         -60.8900  -70.4600  -43.6900 N.am      2 ALA2        0.0000 
     19 N         -58.9100  -62.9200  -43.6900 N.am      2 ALA2        0.0000 
     20 N         -58.1900  -64.9000  -43.4600 N.am      2 ALA2        0.0000 
     21 N         -59.5400  -64.2500  -43.3800 N.am      2 ALA2        0.0000 
     22 N         -58.8100  -66.2300  -43.1500 N.am      2 ALA2        0.0000 
     23 N         -59.4300  -67.5600  -42.8400 N.am      2 ALA2        0.0000 
     24 N         -60.7800  -66.9100  -42.7600 N.am      2 ALA2        0.0000 
     25 N         -61.4100  -68.2400  -42.4500 N.am      2 ALA2        0.0000 
     26 N         -62.7600  -67.5900  -42.3700 N.am      2 ALA2        0.0000 
     27 O         -59.3300  -70.8700  -42.3000 O.2       2 ALA2        0.0000 
     28 N         -60.6800  -70.2200  -42.2200 N.am      2 ALA2        0.0000 
     29 N         -59.3300  -64.0100  -41.9200 N.am      2 ALA2        0.0000 
     30 N         -59.9500  -65.3400  -41.6100 N.am      2 ALA2        0.0000 
     31 N         -60.5800  -66.6600  -41.3000 N.am      2 ALA2        0.0000 
     32 NZ        -58.1900  -71.7700  -43.8500 N.4       3 LYS4        0.0000 
     33 NZ        -56.0100  -70.8500  -42.7700 N.4       3 LYS4        0.0000 
     34 NZ        -57.3600  -70.1900  -42.6900 N.4       3 LYS4        0.0000 
     35 CZ        -60.0500  -68.3000  -47.2400 C.ar      4 PHE5        0.0000 
     36 CZ        -61.1900  -67.4000  -45.6900 C.ar      4 PHE5        0.0000 
     37 CZ        -60.4700  -69.3800  -45.4600 C.ar      4 PHE5        0.0000 
     38 CZ        -61.8200  -68.7300  -45.3800 C.ar      4 PHE5        0.0000 
     39 CZ        -61.0900  -70.7100  -45.1500 C.ar      4 PHE5        0.0000 
     40 CZ        -61.6100  -68.4800  -43.9200 C.ar      4 PHE5        0.0000 
     41 CZ        -62.2400  -69.8100  -43.6100 C.ar      4 PHE5        0.0000 
     42 CZ        -54.1400  -66.8600  -43.7000 C.ar      4 PHE5        0.0000 
     43 CZ        -54.7700  -68.1900  -43.3900 C.ar      4 PHE5        0.0000 
     44 CZ        -62.0300  -69.5700  -42.1400 C.ar      4 PHE5        0.0000 
     45 CZ        -54.6600  -64.6300  -42.4700 C.ar      4 PHE5        0.0000 
     46 CZ        -55.2800  -65.9600  -42.1600 C.ar      4 PHE5        0.0000 
     47 CZ        -54.5600  -67.9400  -41.9300 C.ar      4 PHE5        0.0000 
     48 CZ        -57.8800  -67.9700  -41.4600 C.ar      4 PHE5        0.0000 
     49 CZ        -59.2300  -67.3200  -41.3800 C.ar      4 PHE5        0.0000 
     50 CZ        -61.2000  -67.9900  -40.9900 C.ar      4 PHE5        0.0000 
     51 CZ        -60.4800  -69.9700  -40.7600 C.ar      4 PHE5        0.0000 
     52 CZ        -55.8000  -63.7400  -40.9200 C.ar      4 PHE5        0.0000 
     53 CZ        -56.4300  -65.0700  -40.6100 C.ar      4 PHE5        0.0000 
     54 CZ        -57.0500  -66.3900  -40.3000 C.ar      4 PHE5        0.0000 
     55 CZ        -59.0200  -67.0700  -39.9100 C.ar      4 PHE5        0.0000 
     56 CA        -59.5400  -71.1200  -43.7700 C.3       5 GLY6        0.0000 
     57 CA        -58.2900  -61.6000  -44.0000 C.3       5 GLY6        0.0000 
     58 CA        -57.5600  -63.5800  -43.7700 C.3       5 GLY6        0.0000 
     59 CA        -58.7100  -62.6800  -42.2300 C.3       5 GLY6        0.0000 
     60 CA        -57.9800  -64.6600  -42.0000 C.3       5 GLY6        0.0000 
     61 CA        -58.6100  -65.9900  -41.6900 C.3       5 GLY6        0.0000 
     62 CA        -55.1800  -69.2700  -41.6200 C.3       5 GLY6        0.0000 
     63 CA        -56.5300  -68.6200  -41.5400 C.3       5 GLY6        0.0000 
     64 CA        -57.7800  -64.4100  -40.5300 C.3       5 GLY6        0.0000 
     65 CA        -58.4000  -65.7400  -40.2200 C.3       5 GLY6        0.0000 
     66 CA        -60.3700  -66.4200  -39.8300 C.3       5 GLY6        0.0000 
     67 DU        -59.2200  -66.7200  -46.0800 H         6 CUB7        0.0000 
     68 DU        -59.8500  -68.0500  -45.7700 H         6 CUB7        0.0000 
     69 DU        -58.3900  -65.1500  -44.9300 H         6 CUB7        0.0000 
     70 DU        -59.6400  -67.8100  -44.3100 H         6 CUB7        0.0000 
     71 DU        -58.9200  -69.7900  -44.0800 H         6 CUB7        0.0000 
     72 DU        -60.2600  -69.1300  -44.0000 H         6 CUB7        0.0000 
     73 DU        -56.2200  -64.2300  -43.8500 H         6 CUB7        0.0000 
     74 DU        -55.4900  -66.2100  -43.6200 H         6 CUB7        0.0000 
     75 DU        -56.7400  -68.8700  -43.0000 H         6 CUB7        0.0000 
     76 DU        -58.7100  -69.5400  -42.6100 H         6 CUB7        0.0000 
     77 DU        -60.0600  -68.8900  -42.5300 H         6 CUB7        0.0000 
     78 DU        -56.6300  -65.3100  -42.0800 H         6 CUB7        0.0000 
     79 DU        -57.2600  -66.6400  -41.7700 H         6 CUB7        0.0000 
@<TRIPOS>BOND
@<TRIPOS>SUBSTRUCTURE
     1 SER1        1 GROUP   
     2 ALA2       11 GROUP   
     3 LYS4       32 GROUP   
     4 PHE5       35 GROUP   
     5 GLY6       56 GROUP   
     6 CUB7       67 GROUP   
@<TRIPOS>SET

