#    Name: 6dca_2_THR_SER_PRO_ARG_HIS_LEU_NH2_CAVITY_N1_6
#    Modification time : Fri May 22 19:23:47 2020

@<TRIPOS>MOLECULE
6dca_2_THR_SER_PRO_ARG_HIS_LEU_NH2_CAVITY_N1_6
  102     0     7     0     0
SMALL
NO_CHARGES


@<TRIPOS>ATOM
      1 OG        -58.4400  -75.2300   64.2400 O.3       1 SER1        0.0000 
      2 OG        -59.0600  -76.5600   64.5500 O.3       1 SER1        0.0000 
      3 OG        -62.2800  -73.0300   65.9500 O.3       1 SER1        0.0000 
      4 OG        -62.1800  -76.3400   66.4900 O.3       1 SER1        0.0000 
      5 OG        -56.2700  -74.9100   70.0200 O.3       1 SER1        0.0000 
      6 OG        -54.1900  -77.5400   70.1700 O.3       1 SER1        0.0000 
      7 OG        -55.5400  -76.8900   70.2500 O.3       1 SER1        0.0000 
      8 N         -50.2400  -75.5900   64.6900 N.am      2 ALA2        0.0000 
      9 O         -56.8900  -75.6400   65.6300 O.2       2 ALA2        0.0000 
     10 O         -57.5100  -76.9700   65.9400 O.2       2 ALA2        0.0000 
     11 O         -60.2000  -68.8000   66.4800 O.2       2 ALA2        0.0000 
     12 N         -50.0400  -75.3500   66.1500 N.am      2 ALA2        0.0000 
     13 N         -59.4800  -70.7800   66.7100 N.am      2 ALA2        0.0000 
     14 N         -57.4000  -73.4200   66.8600 N.am      2 ALA2        0.0000 
     15 N         -58.7500  -72.7600   66.9400 N.am      2 ALA2        0.0000 
     16 N         -52.6300  -77.3500   66.8500 N.am      2 ALA2        0.0000 
     17 N         -53.9800  -76.7000   66.9300 N.am      2 ALA2        0.0000 
     18 N         -55.3300  -76.0500   67.0100 N.am      2 ALA2        0.0000 
     19 O         -60.0000  -68.5600   67.9500 O.2       2 ALA2        0.0000 
     20 N         -59.2700  -70.5400   68.1800 N.am      2 ALA2        0.0000 
     21 N         -60.6200  -69.8900   68.2600 N.am      2 ALA2        0.0000 
     22 N         -57.2000  -73.1700   68.3300 N.am      2 ALA2        0.0000 
     23 N         -58.5500  -72.5200   68.4100 N.am      2 ALA2        0.0000 
     24 N         -54.4000  -77.7800   68.7100 N.am      2 ALA2        0.0000 
     25 N         -55.7500  -77.1300   68.7900 N.am      2 ALA2        0.0000 
     26 N         -56.3700  -71.6000   69.4800 N.am      2 ALA2        0.0000 
     27 N         -59.0700  -70.2900   69.6400 N.am      2 ALA2        0.0000 
     28 N         -60.4100  -69.6400   69.7300 N.am      2 ALA2        0.0000 
     29 OD1       -50.8700  -76.9200   65.0000 O.co2     3 ASP3        0.0000 
     30 OD1       -51.5000  -78.8400   70.0100 O.co2     3 ASP3        0.0000 
     31 OD1       -52.6400  -77.9500   71.5600 O.co2     3 ASP3        0.0000 
     32 NZ        -58.8600  -76.3200   66.0200 N.4       4 LYS4        0.0000 
     33 NZ        -60.8300  -76.9900   66.4100 N.4       4 LYS4        0.0000 
     34 NZ        -59.2800  -77.4000   67.7900 N.4       4 LYS4        0.0000 
     35 CZ        -61.2400  -70.6200   63.8600 C.ar      5 PHE5        0.0000 
     36 CZ        -57.8200  -73.9100   63.9300 C.ar      5 PHE5        0.0000 
     37 CZ        -59.1600  -73.2500   64.0100 C.ar      5 PHE5        0.0000 
     38 CZ        -60.5100  -72.6000   64.0900 C.ar      5 PHE5        0.0000 
     39 CZ        -61.8600  -71.9500   64.1700 C.ar      5 PHE5        0.0000 
     40 CZ        -57.0900  -75.8900   64.1600 C.ar      5 PHE5        0.0000 
     41 CZ        -59.7900  -74.5800   64.3200 C.ar      5 PHE5        0.0000 
     42 CZ        -61.1400  -73.9300   64.4000 C.ar      5 PHE5        0.0000 
     43 CZ        -55.6400  -72.9800   65.0100 C.ar      5 PHE5        0.0000 
     44 CZ        -52.2200  -76.2700   65.0800 C.ar      5 PHE5        0.0000 
     45 CZ        -54.9100  -74.9600   65.2400 C.ar      5 PHE5        0.0000 
     46 CZ        -56.2600  -74.3100   65.3200 C.ar      5 PHE5        0.0000 
     47 CZ        -62.9000  -74.3600   66.2600 C.ar      5 PHE5        0.0000 
     48 CZ        -54.0800  -73.3900   66.3900 C.ar      5 PHE5        0.0000 
     49 CZ        -52.0100  -76.0200   66.5400 C.ar      5 PHE5        0.0000 
     50 CZ        -53.3600  -75.3700   66.6200 C.ar      5 PHE5        0.0000 
     51 CZ        -54.7100  -74.7200   66.7000 C.ar      5 PHE5        0.0000 
     52 CZ        -63.4200  -72.1400   67.4900 C.ar      5 PHE5        0.0000 
     53 CZ        -55.2300  -72.4900   67.9400 C.ar      5 PHE5        0.0000 
     54 CZ        -55.8500  -73.8200   68.2500 C.ar      5 PHE5        0.0000 
     55 CZ        -52.4300  -77.1100   68.3200 C.ar      5 PHE5        0.0000 
     56 CZ        -53.7800  -76.4600   68.4000 C.ar      5 PHE5        0.0000 
     57 CZ        -55.1300  -75.8000   68.4800 C.ar      5 PHE5        0.0000 
     58 CZ        -56.4700  -75.1500   68.5600 C.ar      5 PHE5        0.0000 
     59 CZ        -55.6400  -73.5800   69.7100 C.ar      5 PHE5        0.0000 
     60 CZ        -56.9900  -72.9300   69.7900 C.ar      5 PHE5        0.0000 
     61 CZ        -52.8500  -78.1900   70.0900 C.ar      5 PHE5        0.0000 
     62 CA        -59.8900  -71.2700   63.7800 C.3       6 GLY6        0.0000 
     63 CA        -60.4100  -75.9100   64.6300 C.3       6 GLY6        0.0000 
     64 CA        -61.7600  -75.2600   64.7100 C.3       6 GLY6        0.0000 
     65 CA        -60.4100  -69.0500   65.0200 C.3       6 GLY6        0.0000 
     66 CA        -58.3300  -71.6800   65.1700 C.3       6 GLY6        0.0000 
     67 CA        -59.6800  -71.0300   65.2500 C.3       6 GLY6        0.0000 
     68 CA        -61.0300  -70.3800   65.3300 C.3       6 GLY6        0.0000 
     69 CA        -62.3800  -69.7200   65.4100 C.3       6 GLY6        0.0000 
     70 CA        -63.0000  -71.0500   65.7200 C.3       6 GLY6        0.0000 
     71 CA        -55.5400  -76.2900   65.5500 C.3       6 GLY6        0.0000 
     72 CA        -60.8300  -70.1300   66.7900 C.3       6 GLY6        0.0000 
     73 CA        -62.1700  -69.4800   66.8700 C.3       6 GLY6        0.0000 
     74 CA        -50.6600  -76.6800   66.4600 C.3       6 GLY6        0.0000 
     75 CA        -57.3000  -76.7200   67.4000 C.3       6 GLY6        0.0000 
     76 CA        -57.9300  -78.0500   67.7100 C.3       6 GLY6        0.0000 
     77 CA        -61.3500  -67.9100   68.0300 C.3       6 GLY6        0.0000 
     78 CA        -50.4600  -76.4300   67.9300 C.3       6 GLY6        0.0000 
     79 CA        -51.7000  -79.0900   68.5500 C.3       6 GLY6        0.0000 
     80 CA        -53.0500  -78.4400   68.6300 C.3       6 GLY6        0.0000 
     81 CA        -50.8700  -77.5100   69.7000 C.3       6 GLY6        0.0000 
     82 CA        -52.1200  -80.1700   70.3200 C.3       6 GLY6        0.0000 
     83 DU        -57.6100  -73.6600   65.4000 H         7 CUB7        0.0000 
     84 DU        -58.9600  -73.0100   65.4800 H         7 CUB7        0.0000 
     85 DU        -60.3100  -72.3600   65.5600 H         7 CUB7        0.0000 
     86 DU        -61.6600  -71.7100   65.6400 H         7 CUB7        0.0000 
     87 DU        -58.2300  -74.9900   65.7100 H         7 CUB7        0.0000 
     88 DU        -59.5800  -74.3400   65.7900 H         7 CUB7        0.0000 
     89 DU        -60.9300  -73.6900   65.8700 H         7 CUB7        0.0000 
     90 DU        -60.2100  -75.6700   66.1000 H         7 CUB7        0.0000 
     91 DU        -61.5500  -75.0100   66.1800 H         7 CUB7        0.0000 
     92 DU        -56.0600  -74.0700   66.7800 H         7 CUB7        0.0000 
     93 DU        -60.1000  -72.1100   67.0200 H         7 CUB7        0.0000 
     94 DU        -61.4500  -71.4600   67.1000 H         7 CUB7        0.0000 
     95 DU        -62.8000  -70.8100   67.1800 H         7 CUB7        0.0000 
     96 DU        -56.6800  -75.4000   67.0900 H         7 CUB7        0.0000 
     97 DU        -62.0700  -72.7900   67.4100 H         7 CUB7        0.0000 
     98 DU        -58.6500  -76.0700   67.4800 H         7 CUB7        0.0000 
     99 DU        -60.0000  -75.4200   67.5600 H         7 CUB7        0.0000 
    100 DU        -59.9000  -71.8700   68.4900 H         7 CUB7        0.0000 
    101 DU        -57.1000  -76.4800   68.8700 H         7 CUB7        0.0000 
    102 DU        -58.3400  -72.2700   69.8700 H         7 CUB7        0.0000 
@<TRIPOS>BOND
@<TRIPOS>SUBSTRUCTURE
     1 SER1        1 GROUP   
     2 ALA2        8 GROUP   
     3 ASP3       29 GROUP   
     4 LYS4       32 GROUP   
     5 PHE5       35 GROUP   
     6 GLY6       62 GROUP   
     7 CUB7       83 GROUP   
@<TRIPOS>SET

