#    Name: 6dca_2_THR_SER_PRO_ARG_HIS_LEU_NH2
#    Modification time : Fri May 22 19:23:45 2020

@<TRIPOS>MOLECULE
6dca_2_THR_SER_PRO_ARG_HIS_LEU_NH2
   50    51     7     0     0
SMALL
NO_CHARGES


@<TRIPOS>ATOM
      1 N         -55.5310  -77.3580   75.5240 N.4       1 THR403      0.0000 
      2 CA        -56.9090  -77.0090   75.1780 C.3       1 THR403      0.0000 
      3 C         -56.9330  -75.9460   74.0660 C.2       1 THR403      0.0000 
      4 O         -57.0790  -74.7520   74.3430 O.2       1 THR403      0.0000 
      5 CB        -57.7220  -76.5210   76.4470 C.3       1 THR403      0.0000 
      6 OG1       -58.9560  -75.9120   76.0490 O.3       1 THR403      0.0000 
      7 CG2       -56.9220  -75.5490   77.3320 C.3       1 THR403      0.0000 
      8 N         -56.7850  -76.3870   72.8050 N.am      2 SER404      0.0000 
      9 CA        -56.7830  -75.4560   71.6870 C.3       2 SER404      0.0000 
     10 C         -58.1180  -74.7020   71.6180 C.2       2 SER404      0.0000 
     11 O         -59.1300  -75.1550   72.1680 O.2       2 SER404      0.0000 
     12 CB        -56.4970  -76.1980   70.3730 C.3       2 SER404      0.0000 
     13 OG        -57.5510  -77.0730   70.0000 O.3       2 SER404      0.0000 
     14 N         -58.1270  -73.5210   70.9940 N.am      3 PRO405      0.0000 
     15 CA        -59.3940  -72.8140   70.7530 C.3       3 PRO405      0.0000 
     16 C         -60.3870  -73.7110   70.0310 C.2       3 PRO405      0.0000 
     17 O         -60.0170  -74.4710   69.1380 O.2       3 PRO405      0.0000 
     18 CB        -58.9750  -71.6310   69.8770 C.3       3 PRO405      0.0000 
     19 CG        -57.5520  -71.3910   70.2110 C.3       3 PRO405      0.0000 
     20 CD        -56.9600  -72.7390   70.5450 C.3       3 PRO405      0.0000 
     21 N         -61.6600  -73.6250   70.4250 N.am      4 ARG406      0.0000 
     22 CA        -62.6450  -74.5570   69.8840 C.3       4 ARG406      0.0000 
     23 C         -62.7190  -74.4680   68.3670 C.2       4 ARG406      0.0000 
     24 O         -63.0420  -75.4570   67.7010 O.2       4 ARG406      0.0000 
     25 CB        -64.0230  -74.3020   70.5010 C.3       4 ARG406      0.0000 
     26 CG        -64.0310  -74.2120   72.0410 C.3       4 ARG406      0.0000 
     27 CD        -64.5690  -72.8620   72.5980 C.3       4 ARG406      0.0000 
     28 NE        -63.8200  -71.6760   72.1530 N.pl3     4 ARG406      0.0000 
     29 CZ        -62.6220  -71.3020   72.6100 C.cat     4 ARG406      0.0000 
     30 NH1       -61.9920  -72.0190   73.5350 N.pl3     4 ARG406      0.0000 
     31 NH2       -62.0410  -70.2070   72.1260 N.pl3     4 ARG406      0.0000 
     32 N         -62.3810  -73.3140   67.7990 N.am      5 HIS407      0.0000 
     33 CA        -62.4920  -73.1750   66.3580 C.3       5 HIS407      0.0000 
     34 C         -61.2970  -73.7540   65.6220 C.2       5 HIS407      0.0000 
     35 O         -61.4380  -74.1560   64.4650 O.2       5 HIS407      0.0000 
     36 CB        -62.6720  -71.7110   65.9850 C.3       5 HIS407      0.0000 
     37 CG        -61.5780  -70.8170   66.4750 C.2       5 HIS407      0.0000 
     38 ND1       -60.3610  -70.7180   65.8370 N.pl3     5 HIS407      0.0000 
     39 CD2       -61.5230  -69.9670   67.5290 C.2       5 HIS407      0.0000 
     40 CE1       -59.6020  -69.8460   66.4770 C.2       5 HIS407      0.0000 
     41 NE2       -60.2850  -69.3710   67.5040 N.2       5 HIS407      0.0000 
     42 N         -60.1200  -73.7820   66.2400 N.am      6 LEU408      0.0000 
     43 CA        -58.9670  -74.4540   65.6330 C.3       6 LEU408      0.0000 
     44 C         -59.2360  -75.9400   65.5910 C.2       6 LEU408      0.0000 
     45 O         -58.9950  -76.6000   64.5800 O.2       6 LEU408      0.0000 
     46 CB        -57.6740  -74.2000   66.4020 C.3       6 LEU408      0.0000 
     47 CG        -56.7400  -73.0640   65.9930 C.3       6 LEU408      0.0000 
     48 CD1       -55.3120  -73.3820   66.3940 C.3       6 LEU408      0.0000 
     49 CD2       -56.8350  -72.7640   64.5080 C.3       6 LEU408      0.0000 
     50 N         -59.7490  -76.4650   66.6990           7 NH2409      0.0000 
@<TRIPOS>BOND
     1    1    2 1    
     2    2    3 1    
     3    2    5 1    
     4    3    4 2    
     5    3    8 am   
     6    5    6 1    
     7    5    7 1    
     8    8    9 1    
     9    9   10 1    
    10    9   12 1    
    11   10   11 2    
    12   10   14 am   
    13   12   13 1    
    14   14   15 1    
    15   14   20 1    
    16   15   16 1    
    17   15   18 1    
    18   16   17 2    
    19   16   21 am   
    20   18   19 1    
    21   19   20 1    
    22   21   22 1    
    23   22   23 1    
    24   22   25 1    
    25   23   24 2    
    26   23   32 am   
    27   25   26 1    
    28   26   27 1    
    29   27   28 1    
    30   28   29 ar   
    31   29   30 ar   
    32   29   31 ar   
    33   32   33 1    
    34   33   34 1    
    35   33   36 1    
    36   34   35 2    
    37   34   42 am   
    38   36   37 1    
    39   37   38 1    
    40   37   39 2    
    41   38   40 1    
    42   39   41 1    
    43   40   41 2    
    44   42   43 1    
    45   43   44 1    
    46   43   46 1    
    47   44   45 2    
    48   44   50 du   
    49   46   47 1    
    50   47   48 1    
    51   47   49 1    
@<TRIPOS>SUBSTRUCTURE
     1 THR403      1 RESIDUE 
     2 SER404      8 RESIDUE 
     3 PRO405     14 RESIDUE 
     4 ARG406     21 RESIDUE 
     5 HIS407     32 RESIDUE 
     6 LEU408     42 RESIDUE 
     7 NH2409     50 GROUP   
@<TRIPOS>SET

