#    Name: 6dca_3_THR_SER_PRO_ARG_HIS_LEU_NH2
#    Modification time : Fri May 22 19:23:49 2020

@<TRIPOS>MOLECULE
6dca_3_THR_SER_PRO_ARG_HIS_LEU_NH2
   50    51     7     0     0
SMALL
NO_CHARGES


@<TRIPOS>ATOM
      1 N         -68.9770  -34.7520    4.7070 N.4       1 THR403      0.0000 
      2 CA        -67.6280  -34.5620    4.1570 C.3       1 THR403      0.0000 
      3 C         -66.9930  -35.8590    3.5770 C.2       1 THR403      0.0000 
      4 O         -66.8860  -36.9060    4.2370 O.2       1 THR403      0.0000 
      5 CB        -66.6750  -33.9460    5.2180 C.3       1 THR403      0.0000 
      6 OG1       -65.3320  -33.9310    4.7070 O.3       1 THR403      0.0000 
      7 CG2       -66.7320  -34.7180    6.5520 C.3       1 THR403      0.0000 
      8 N         -66.5190  -35.7340    2.3420 N.am      2 SER404      0.0000 
      9 CA        -66.3800  -36.8680    1.4440 C.3       2 SER404      0.0000 
     10 C         -65.2570  -37.8090    1.8590 C.2       2 SER404      0.0000 
     11 O         -64.3090  -37.4140    2.5390 O.2       2 SER404      0.0000 
     12 CB        -66.1200  -36.3780    0.0160 C.3       2 SER404      0.0000 
     13 OG        -67.2770  -35.7710   -0.5380 O.3       2 SER404      0.0000 
     14 N         -65.3460  -39.0680    1.4490 N.am      3 PRO405      0.0000 
     15 CA        -64.1510  -39.9150    1.4230 C.3       3 PRO405      0.0000 
     16 C         -63.0790  -39.3040    0.5310 C.2       3 PRO405      0.0000 
     17 O         -63.3420  -38.9560   -0.6200 O.2       3 PRO405      0.0000 
     18 CB        -64.6720  -41.2400    0.8570 C.3       3 PRO405      0.0000 
     19 CG        -65.9790  -40.9090    0.2190 C.3       3 PRO405      0.0000 
     20 CD        -66.5490  -39.7830    1.0010 C.3       3 PRO405      0.0000 
     21 N         -61.8660  -39.1740    1.0880 N.am      4 ARG406      0.0000 
     22 CA        -60.6550  -38.6450    0.4550 C.3       4 ARG406      0.0000 
     23 C         -60.6070  -38.7560   -1.0770 C.2       4 ARG406      0.0000 
     24 O         -60.3290  -37.7640   -1.7680 O.2       4 ARG406      0.0000 
     25 CB        -59.4230  -39.3450    1.0650 C.3       4 ARG406      0.0000 
     26 CG        -59.1430  -40.8680    0.6500 C.3       4 ARG406      0.0000 
     27 CD        -60.1800  -41.8850    1.1820 C.3       4 ARG406      0.0000 
     28 NE        -60.4710  -41.6140    2.5910 N.pl3     4 ARG406      0.0000 
     29 CZ        -61.4450  -42.1790    3.2890 C.cat     4 ARG406      0.0000 
     30 NH1       -62.2520  -43.0770    2.7210 N.pl3     4 ARG406      0.0000 
     31 NH2       -61.6070  -41.8330    4.5590 N.pl3     4 ARG406      0.0000 
     32 N         -60.8940  -39.9500   -1.6140 N.am      5 HIS407      0.0000 
     33 CA        -60.7730  -40.2230   -3.0400 C.3       5 HIS407      0.0000 
     34 C         -61.8640  -39.5460   -3.8730 C.2       5 HIS407      0.0000 
     35 O         -61.6570  -39.3040   -5.0680 O.2       5 HIS407      0.0000 
     36 CB        -60.7810  -41.7450   -3.2610 C.3       5 HIS407      0.0000 
     37 CG        -62.0740  -42.4140   -2.8900 C.2       5 HIS407      0.0000 
     38 ND1       -62.3380  -42.8860   -1.6210 N.pl3     5 HIS407      0.0000 
     39 CD2       -63.1690  -42.7100   -3.6300 C.2       5 HIS407      0.0000 
     40 CE1       -63.5380  -43.4400   -1.5970 C.2       5 HIS407      0.0000 
     41 NE2       -64.0660  -43.3440   -2.8030 N.2       5 HIS407      0.0000 
     42 N         -63.0140  -39.2480   -3.2790 N.am      6 LEU408      0.0000 
     43 CA        -64.0570  -38.4870   -3.9520 C.3       6 LEU408      0.0000 
     44 C         -63.6330  -37.0390   -4.1180 C.2       6 LEU408      0.0000 
     45 O         -63.7550  -36.4640   -5.1910 O.2       6 LEU408      0.0000 
     46 CB        -65.3550  -38.5570   -3.1620 C.3       6 LEU408      0.0000 
     47 CG        -66.5660  -39.1240   -3.8810 C.3       6 LEU408      0.0000 
     48 CD1       -66.1450  -39.9670   -5.0940 C.3       6 LEU408      0.0000 
     49 CD2       -67.3710  -39.9460   -2.8950 C.3       6 LEU408      0.0000 
     50 N         -63.1350  -36.4500   -3.0420           7 NH2409      0.0000 
@<TRIPOS>BOND
     1    1    2 1    
     2    2    3 1    
     3    2    5 1    
     4    3    4 2    
     5    3    8 am   
     6    5    6 1    
     7    5    7 1    
     8    8    9 1    
     9    9   10 1    
    10    9   12 1    
    11   10   11 2    
    12   10   14 am   
    13   12   13 1    
    14   14   15 1    
    15   14   20 1    
    16   15   16 1    
    17   15   18 1    
    18   16   17 2    
    19   16   21 am   
    20   18   19 1    
    21   19   20 1    
    22   21   22 1    
    23   22   23 1    
    24   22   25 1    
    25   23   24 2    
    26   23   32 am   
    27   25   26 1    
    28   26   27 1    
    29   27   28 1    
    30   28   29 ar   
    31   29   30 ar   
    32   29   31 ar   
    33   32   33 1    
    34   33   34 1    
    35   33   36 1    
    36   34   35 2    
    37   34   42 am   
    38   36   37 1    
    39   37   38 1    
    40   37   39 2    
    41   38   40 1    
    42   39   41 1    
    43   40   41 2    
    44   42   43 1    
    45   43   44 1    
    46   43   46 1    
    47   44   45 2    
    48   44   50 du   
    49   46   47 1    
    50   47   48 1    
    51   47   49 1    
@<TRIPOS>SUBSTRUCTURE
     1 THR403      1 RESIDUE 
     2 SER404      8 RESIDUE 
     3 PRO405     14 RESIDUE 
     4 ARG406     21 RESIDUE 
     5 HIS407     32 RESIDUE 
     6 LEU408     42 RESIDUE 
     7 NH2409     50 GROUP   
@<TRIPOS>SET

