#    Name: 6dca_1_THR_SER_PRO_ARG_HIS_LEU_NH2
#    Modification time : Fri May 22 19:23:41 2020

@<TRIPOS>MOLECULE
6dca_1_THR_SER_PRO_ARG_HIS_LEU_NH2
   50    51     7     0     0
SMALL
NO_CHARGES


@<TRIPOS>ATOM
      1 N         -61.7180  -72.8250  -51.8230 N.4       1 THR403      0.0000 
      2 CA        -60.5870  -71.9890  -51.4090 C.3       1 THR403      0.0000 
      3 C         -60.7470  -71.6170  -49.9220 C.2       1 THR403      0.0000 
      4 O         -61.6380  -72.1410  -49.2340 O.2       1 THR403      0.0000 
      5 CB        -60.4670  -70.6980  -52.2940 C.3       1 THR403      0.0000 
      6 OG1       -60.8040  -71.0120  -53.6530 O.3       1 THR403      0.0000 
      7 CG2       -59.0460  -70.1190  -52.2660 C.3       1 THR403      0.0000 
      8 N         -59.8640  -70.7320  -49.4310 N.am      2 SER404      0.0000 
      9 CA        -59.8850  -70.2070  -48.0720 C.3       2 SER404      0.0000 
     10 C         -59.0620  -68.9320  -48.0520 C.2       2 SER404      0.0000 
     11 O         -58.0490  -68.8560  -48.7700 O.2       2 SER404      0.0000 
     12 CB        -59.3050  -71.2050  -47.0630 C.3       2 SER404      0.0000 
     13 OG        -59.8120  -72.5140  -47.2550 O.3       2 SER404      0.0000 
     14 N         -59.4640  -67.9110  -47.2890 N.am      3 PRO405      0.0000 
     15 CA        -58.4970  -66.8780  -46.8850 C.3       3 PRO405      0.0000 
     16 C         -57.3240  -67.5330  -46.1640 C.2       3 PRO405      0.0000 
     17 O         -57.4960  -68.5100  -45.4340 O.2       3 PRO405      0.0000 
     18 CB        -59.3050  -65.9760  -45.9470 C.3       3 PRO405      0.0000 
     19 CG        -60.7540  -66.2290  -46.3090 C.3       3 PRO405      0.0000 
     20 CD        -60.8360  -67.6360  -46.8210 C.3       3 PRO405      0.0000 
     21 N         -56.1150  -67.0100  -46.3830 N.am      4 ARG406      0.0000 
     22 CA        -54.9590  -67.6050  -45.7170 C.3       4 ARG406      0.0000 
     23 C         -54.9460  -67.3110  -44.2190 C.2       4 ARG406      0.0000 
     24 O         -54.4220  -68.1180  -43.4410 O.2       4 ARG406      0.0000 
     25 CB        -53.6650  -67.1150  -46.3520 C.3       4 ARG406      0.0000 
     26 CG        -53.5770  -67.3780  -47.8360 C.3       4 ARG406      0.0000 
     27 CD        -53.4610  -66.0780  -48.6050 C.3       4 ARG406      0.0000 
     28 NE        -54.6010  -65.1690  -48.4030 N.pl3     4 ARG406      0.0000 
     29 CZ        -55.6810  -65.1250  -49.1880 C.cat     4 ARG406      0.0000 
     30 NH1       -55.8000  -65.9530  -50.2230 N.pl3     4 ARG406      0.0000 
     31 NH2       -56.6510  -64.2520  -48.9400 N.pl3     4 ARG406      0.0000 
     32 N         -55.5040  -66.1670  -43.7910 N.am      5 HIS407      0.0000 
     33 CA        -55.5610  -65.8650  -42.3640 C.3       5 HIS407      0.0000 
     34 C         -56.5050  -66.7930  -41.6200 C.2       5 HIS407      0.0000 
     35 O         -56.3950  -66.9250  -40.3980 O.2       5 HIS407      0.0000 
     36 CB        -56.0030  -64.4270  -42.1350 C.3       5 HIS407      0.0000 
     37 CG        -57.4260  -64.1670  -42.5180 C.2       5 HIS407      0.0000 
     38 ND1       -57.7760  -63.5580  -43.7050 N.pl3     5 HIS407      0.0000 
     39 CD2       -58.5900  -64.4220  -41.8690 C.2       5 HIS407      0.0000 
     40 CE1       -59.0920  -63.4510  -43.7720 C.2       5 HIS407      0.0000 
     41 NE2       -59.6090  -63.9660  -42.6700 N.2       5 HIS407      0.0000 
     42 N         -57.4340  -67.4130  -42.3300 N.am      6 LEU408      0.0000 
     43 CA        -58.4000  -68.3220  -41.7430 C.3       6 LEU408      0.0000 
     44 C         -57.7630  -69.7040  -41.6170 C.2       6 LEU408      0.0000 
     45 O         -57.6640  -70.2610  -40.5250 O.2       6 LEU408      0.0000 
     46 CB        -59.6650  -68.3680  -42.6060 C.3       6 LEU408      0.0000 
     47 CG        -61.0270  -68.4120  -41.9210 C.3       6 LEU408      0.0000 
     48 CD1       -61.0270  -67.6090  -40.6190 C.3       6 LEU408      0.0000 
     49 CD2       -62.0780  -67.8900  -42.8770 C.3       6 LEU408      0.0000 
     50 N         -57.3100  -70.2400  -42.7420           7 NH2409      0.0000 
@<TRIPOS>BOND
     1    1    2 1    
     2    2    3 1    
     3    2    5 1    
     4    3    4 2    
     5    3    8 am   
     6    5    6 1    
     7    5    7 1    
     8    8    9 1    
     9    9   10 1    
    10    9   12 1    
    11   10   11 2    
    12   10   14 am   
    13   12   13 1    
    14   14   15 1    
    15   14   20 1    
    16   15   16 1    
    17   15   18 1    
    18   16   17 2    
    19   16   21 am   
    20   18   19 1    
    21   19   20 1    
    22   21   22 1    
    23   22   23 1    
    24   22   25 1    
    25   23   24 2    
    26   23   32 am   
    27   25   26 1    
    28   26   27 1    
    29   27   28 1    
    30   28   29 ar   
    31   29   30 ar   
    32   29   31 ar   
    33   32   33 1    
    34   33   34 1    
    35   33   36 1    
    36   34   35 2    
    37   34   42 am   
    38   36   37 1    
    39   37   38 1    
    40   37   39 2    
    41   38   40 1    
    42   39   41 1    
    43   40   41 2    
    44   42   43 1    
    45   43   44 1    
    46   43   46 1    
    47   44   45 2    
    48   44   50 du   
    49   46   47 1    
    50   47   48 1    
    51   47   49 1    
@<TRIPOS>SUBSTRUCTURE
     1 THR403      1 RESIDUE 
     2 SER404      8 RESIDUE 
     3 PRO405     14 RESIDUE 
     4 ARG406     21 RESIDUE 
     5 HIS407     32 RESIDUE 
     6 LEU408     42 RESIDUE 
     7 NH2409     50 GROUP   
@<TRIPOS>SET

