#    Name: 6h1v_1_DTP
#    Modification time : Fri May 22 19:25:48 2020

@<TRIPOS>MOLECULE
6h1v_1_DTP
   30    32     1     0     0
SMALL
NO_CHARGES


@<TRIPOS>ATOM
      1 PG        146.7540   50.7170   32.2660 P.3       1 DTP1202     0.0000 
      2 O1G       146.1340   49.9550   31.1220 O.co2     1 DTP1202     0.0000 
      3 O2G       147.9470   49.9470   32.7850 O.co2     1 DTP1202     0.0000 
      4 O3G       145.7390   50.9160   33.3710 O.co2     1 DTP1202     0.0000 
      5 PB        147.1320   53.5250   32.6490 P.3       1 DTP1202     0.0000 
      6 O1B       147.6690   54.7320   31.9220 O.co2     1 DTP1202     0.0000 
      7 O2B       145.6900   53.7380   33.0440 O.co2     1 DTP1202     0.0000 
      8 O3B       147.2510   52.1830   31.7120 O.3       1 DTP1202     0.0000 
      9 PA        147.5780   53.7420   35.4990 P.3       1 DTP1202     0.0000 
     10 O1A       146.1660   53.2870   35.7760 O.co2     1 DTP1202     0.0000 
     11 O2A       148.5140   53.1070   36.4990 O.co2     1 DTP1202     0.0000 
     12 O3A       148.0220   53.2440   34.0000 O.3       1 DTP1202     0.0000 
     13 O5'       147.6610   55.3850   35.5990 O.3       1 DTP1202     0.0000 
     14 C5'       146.4940   56.1090   35.3320 C.3       1 DTP1202     0.0000 
     15 C4'       146.8430   57.4490   34.7210 C.3       1 DTP1202     0.0000 
     16 O4'       147.7910   58.3010   35.7350 O.3       1 DTP1202     0.0000 
     17 C3'       147.5680   57.3100   33.6470 C.3       1 DTP1202     0.0000 
     18 O3'       146.7560   57.0190   32.4310 O.3       1 DTP1202     0.0000 
     19 C2'       148.2410   58.6990   33.5620 C.3       1 DTP1202     0.0000 
     20 C1'       148.7480   58.8350   35.0100 C.3       1 DTP1202     0.0000 
     21 N9        149.9620   58.0160   35.1570 N.pl3     1 DTP1202     0.0000 
     22 C8        150.4220   56.8290   35.5550 C.2       1 DTP1202     0.0000 
     23 N7        151.7420   56.8060   35.3510 N.2       1 DTP1202     0.0000 
     24 C5        152.0940   57.9830   34.8210 C.ar      1 DTP1202     0.0000 
     25 C6        153.3120   58.4850   34.4220 C.ar      1 DTP1202     0.0000 
     26 N6        154.6800   58.0030   34.3950 N.pl3     1 DTP1202     0.0000 
     27 N1        153.4040   59.7050   33.9150 N.ar      1 DTP1202     0.0000 
     28 C2        152.2930   60.4690   33.7830 C.ar      1 DTP1202     0.0000 
     29 N3        151.0930   59.9790   34.1750 N.ar      1 DTP1202     0.0000 
     30 C4        150.9970   58.7360   34.6940 C.ar      1 DTP1202     0.0000 
@<TRIPOS>BOND
     1    1    2 ar   
     2    1    3 ar   
     3    1    4 ar   
     4    1    8 1    
     5    5    6 ar   
     6    5    7 ar   
     7    5    8 1    
     8    5   12 1    
     9    9   10 ar   
    10    9   11 ar   
    11    9   12 1    
    12    9   13 1    
    13   13   14 1    
    14   14   15 1    
    15   15   16 1    
    16   15   17 1    
    17   16   20 1    
    18   17   18 1    
    19   17   19 1    
    20   19   20 1    
    21   20   21 1    
    22   21   22 1    
    23   21   30 1    
    24   22   23 2    
    25   23   24 1    
    26   24   25 ar   
    27   24   30 ar   
    28   25   26 1    
    29   25   27 ar   
    30   27   28 ar   
    31   28   29 ar   
    32   29   30 ar   
@<TRIPOS>SUBSTRUCTURE
     1 DTP1202     1 GROUP   
@<TRIPOS>SET

