#    Name: 6h1v_1_DTP_CAVITY_N1_4
#    Modification time : Fri May 22 19:25:50 2020

@<TRIPOS>MOLECULE
6h1v_1_DTP_CAVITY_N1_4
   36     0     5     0     0
SMALL
NO_CHARGES


@<TRIPOS>ATOM
      1 O         148.2400   46.1700   32.8200 O.2       1 ALA2        0.0000 
      2 O         150.1300   47.1300   32.7500 O.2       1 ALA2        0.0000 
      3 O         149.1000   46.8900   33.8200 O.2       1 ALA2        0.0000 
      4 OD1       145.6700   46.5000   32.5300 O.co2     2 ASP3        0.0000 
      5 OD1       148.6000   47.6900   31.4000 O.co2     2 ASP3        0.0000 
      6 OD1       147.5700   47.4600   32.4600 O.co2     2 ASP3        0.0000 
      7 OD1       146.9000   48.7500   32.1000 O.co2     2 ASP3        0.0000 
      8 OD1       146.5400   47.2300   33.5300 O.co2     2 ASP3        0.0000 
      9 OD1       145.8700   48.5200   33.1600 O.co2     2 ASP3        0.0000 
     10 OD1       149.4600   48.4200   32.3900 O.co2     2 ASP3        0.0000 
     11 OD1       148.4300   48.1800   33.4500 O.co2     2 ASP3        0.0000 
     12 OD1       147.7600   49.4800   33.0900 O.co2     2 ASP3        0.0000 
     13 OD1       147.0900   50.7700   32.7300 O.co2     2 ASP3        0.0000 
     14 OD1       146.7300   49.2400   34.1500 O.co2     2 ASP3        0.0000 
     15 OD1       149.9600   47.6200   34.8100 O.co2     2 ASP3        0.0000 
     16 OD1       149.2900   48.9100   34.4400 O.co2     2 ASP3        0.0000 
     17 OD1       148.2600   48.6800   35.5100 O.co2     2 ASP3        0.0000 
     18 OD1       147.5900   49.9700   35.1500 O.co2     2 ASP3        0.0000 
     19 OD1       149.1200   49.4000   36.5000 O.co2     2 ASP3        0.0000 
     20 OD1       149.9800   50.1200   37.4900 O.co2     2 ASP3        0.0000 
     21 OD1       149.3100   51.4200   37.1300 O.co2     2 ASP3        0.0000 
     22 NZ        143.9800   47.5600   33.2400 N.4       3 LYS4        0.0000 
     23 NZ        145.2000   49.8100   32.8000 N.4       3 LYS4        0.0000 
     24 NZ        144.8400   48.2800   34.2300 N.4       3 LYS4        0.0000 
     25 NZ        145.7000   49.0100   35.2200 N.4       3 LYS4        0.0000 
     26 NZ        146.5600   49.7300   36.2100 N.4       3 LYS4        0.0000 
     27 NZ        147.4200   50.4600   37.2000 N.4       3 LYS4        0.0000 
     28 NZ        146.3900   50.2200   38.2700 N.4       3 LYS4        0.0000 
     29 NZ        148.9500   49.8900   38.5600 N.4       3 LYS4        0.0000 
     30 CA        143.8100   48.0500   35.2900 C.3       4 GLY6        0.0000 
     31 CA        148.2800   51.1800   38.1900 C.3       4 GLY6        0.0000 
     32 CA        147.6100   52.4800   37.8300 C.3       4 GLY6        0.0000 
     33 CA        147.2500   50.9500   39.2600 C.3       4 GLY6        0.0000 
     34 CA        146.5800   52.2400   38.9000 C.3       4 GLY6        0.0000 
     35 DU        147.4000   47.9500   34.5200 H         5 CUB7        0.0000 
     36 DU        146.3700   47.7200   35.5800 H         5 CUB7        0.0000 
@<TRIPOS>BOND
@<TRIPOS>SUBSTRUCTURE
     1 ALA2        1 GROUP   
     2 ASP3        4 GROUP   
     3 LYS4       22 GROUP   
     4 GLY6       30 GROUP   
     5 CUB7       35 GROUP   
@<TRIPOS>SET

