#    Name: 6h1v_1_DTP_CAVITY_N1_6
#    Modification time : Fri May 22 19:25:50 2020

@<TRIPOS>MOLECULE
6h1v_1_DTP_CAVITY_N1_6
   75     0     7     0     0
SMALL
NO_CHARGES


@<TRIPOS>ATOM
      1 OG        146.2000   48.2100   37.6400 O.3       1 SER1        0.0000 
      2 OG        147.0600   48.9300   38.6300 O.3       1 SER1        0.0000 
      3 OG        146.0300   48.7000   39.7000 O.3       1 SER1        0.0000 
      4 OG        145.3600   49.9900   39.3300 O.3       1 SER1        0.0000 
      5 O         148.0400   44.1500   32.2000 O.2       2 ALA2        0.0000 
      6 N         142.9500   47.3200   34.3000 N.am      2 ALA2        0.0000 
      7 O         148.9000   44.8800   33.1900 O.2       2 ALA2        0.0000 
      8 O         148.2400   46.1700   32.8200 O.2       2 ALA2        0.0000 
      9 O         150.1300   47.1300   32.7500 O.2       2 ALA2        0.0000 
     10 O         149.7700   45.6000   34.1800 O.2       2 ALA2        0.0000 
     11 O         149.1000   46.8900   33.8200 O.2       2 ALA2        0.0000 
     12 N         146.2200   50.7100   40.3200 N.am      2 ALA2        0.0000 
     13 N         145.5500   52.0100   39.9600 N.am      2 ALA2        0.0000 
     14 OD1       147.3700   45.4400   31.8300 O.co2     3 ASP3        0.0000 
     15 OD1       146.3400   45.2100   32.9000 O.co2     3 ASP3        0.0000 
     16 OD1       145.6700   46.5000   32.5300 O.co2     3 ASP3        0.0000 
     17 OD1       148.6000   47.6900   31.4000 O.co2     3 ASP3        0.0000 
     18 OD1       147.5700   47.4600   32.4600 O.co2     3 ASP3        0.0000 
     19 OD1       146.9000   48.7500   32.1000 O.co2     3 ASP3        0.0000 
     20 OD1       146.5400   47.2300   33.5300 O.co2     3 ASP3        0.0000 
     21 OD1       145.8700   48.5200   33.1600 O.co2     3 ASP3        0.0000 
     22 OD1       149.4600   48.4200   32.3900 O.co2     3 ASP3        0.0000 
     23 OD1       148.4300   48.1800   33.4500 O.co2     3 ASP3        0.0000 
     24 OD1       147.7600   49.4800   33.0900 O.co2     3 ASP3        0.0000 
     25 OD1       147.0900   50.7700   32.7300 O.co2     3 ASP3        0.0000 
     26 OD1       146.7300   49.2400   34.1500 O.co2     3 ASP3        0.0000 
     27 OD1       149.9600   47.6200   34.8100 O.co2     3 ASP3        0.0000 
     28 OD1       149.2900   48.9100   34.4400 O.co2     3 ASP3        0.0000 
     29 OD1       148.2600   48.6800   35.5100 O.co2     3 ASP3        0.0000 
     30 OD1       147.5900   49.9700   35.1500 O.co2     3 ASP3        0.0000 
     31 OD1       150.8200   48.3400   35.8000 O.co2     3 ASP3        0.0000 
     32 OD1       149.7900   48.1100   36.8600 O.co2     3 ASP3        0.0000 
     33 OD1       149.1200   49.4000   36.5000 O.co2     3 ASP3        0.0000 
     34 OD1       149.9800   50.1200   37.4900 O.co2     3 ASP3        0.0000 
     35 OD1       149.3100   51.4200   37.1300 O.co2     3 ASP3        0.0000 
     36 NZ        145.4800   44.4800   31.9100 N.4       4 LYS4        0.0000 
     37 NZ        143.7800   45.5400   32.6100 N.4       4 LYS4        0.0000 
     38 NZ        144.6400   46.2700   33.6000 N.4       4 LYS4        0.0000 
     39 NZ        143.9800   47.5600   33.2400 N.4       4 LYS4        0.0000 
     40 NZ        143.6100   46.0300   34.6600 N.4       4 LYS4        0.0000 
     41 NZ        145.2000   49.8100   32.8000 N.4       4 LYS4        0.0000 
     42 NZ        144.8400   48.2800   34.2300 N.4       4 LYS4        0.0000 
     43 NZ        143.4500   46.5200   36.7200 N.4       4 LYS4        0.0000 
     44 NZ        145.7000   49.0100   35.2200 N.4       4 LYS4        0.0000 
     45 NZ        146.0100   46.1900   37.0100 N.4       4 LYS4        0.0000 
     46 NZ        146.5600   49.7300   36.2100 N.4       4 LYS4        0.0000 
     47 NZ        147.4200   50.4600   37.2000 N.4       4 LYS4        0.0000 
     48 NZ        146.3900   50.2200   38.2700 N.4       4 LYS4        0.0000 
     49 NZ        149.6200   48.6000   38.9200 N.4       4 LYS4        0.0000 
     50 NZ        148.9500   49.8900   38.5600 N.4       4 LYS4        0.0000 
     51 NZ        147.9200   49.6600   39.6200 N.4       4 LYS4        0.0000 
     52 NZ        146.8900   49.4200   40.6900 N.4       4 LYS4        0.0000 
     53 CZ        145.3400   47.4800   36.6500 C.ar      5 PHE5        0.0000 
     54 CA        146.5100   44.7200   30.8400 C.3       6 GLY6        0.0000 
     55 CA        144.4800   46.7600   35.6600 C.3       6 GLY6        0.0000 
     56 CA        143.8100   48.0500   35.2900 C.3       6 GLY6        0.0000 
     57 CA        150.6300   46.3200   35.1700 C.3       6 GLY6        0.0000 
     58 CA        151.4900   47.0500   36.1600 C.3       6 GLY6        0.0000 
     59 CA        148.2800   51.1800   38.1900 C.3       6 GLY6        0.0000 
     60 CA        147.6100   52.4800   37.8300 C.3       6 GLY6        0.0000 
     61 CA        148.5900   48.3600   39.9900 C.3       6 GLY6        0.0000 
     62 CA        147.2500   50.9500   39.2600 C.3       6 GLY6        0.0000 
     63 CA        146.5800   52.2400   38.9000 C.3       6 GLY6        0.0000 
     64 CA        144.5200   51.7700   41.0300 C.3       6 GLY6        0.0000 
     65 DU        145.3100   44.9700   33.9600 H         7 CUB7        0.0000 
     66 DU        147.8700   44.6400   34.2500 H         7 CUB7        0.0000 
     67 DU        147.2100   45.9300   33.8900 H         7 CUB7        0.0000 
     68 DU        145.5100   46.9900   34.5900 H         7 CUB7        0.0000 
     69 DU        148.7400   45.3700   35.2400 H         7 CUB7        0.0000 
     70 DU        147.4000   47.9500   34.5200 H         7 CUB7        0.0000 
     71 DU        146.3700   47.7200   35.5800 H         7 CUB7        0.0000 
     72 DU        148.9300   47.3800   35.8700 H         7 CUB7        0.0000 
     73 DU        147.2300   48.4400   36.5700 H         7 CUB7        0.0000 
     74 DU        148.7600   47.8700   37.9300 H         7 CUB7        0.0000 
     75 DU        148.0900   49.1700   37.5700 H         7 CUB7        0.0000 
@<TRIPOS>BOND
@<TRIPOS>SUBSTRUCTURE
     1 SER1        1 GROUP   
     2 ALA2        5 GROUP   
     3 ASP3       14 GROUP   
     4 LYS4       36 GROUP   
     5 PHE5       53 GROUP   
     6 GLY6       54 GROUP   
     7 CUB7       65 GROUP   
@<TRIPOS>SET

