#    Name: 6fdf_1_SAH
#    Modification time : Fri May 22 19:31:20 2020

@<TRIPOS>MOLECULE
6fdf_1_SAH
   26    28     1     0     0
SMALL
NO_CHARGES


@<TRIPOS>ATOM
      1 N         -40.0550   17.8090  102.1680 N.4       1 SAH401      0.0000 
      2 CA        -41.3070   18.1190  102.8230 C.3       1 SAH401      0.0000 
      3 CB        -41.9080   19.4280  102.3040 C.3       1 SAH401      0.0000 
      4 CG        -40.8300   20.3690  101.7700 C.3       1 SAH401      0.0000 
      5 SD        -41.4990   21.7230  100.8520 S.3       1 SAH401      0.0000 
      6 C         -42.2670   16.9850  102.6510 C.2       1 SAH401      0.0000 
      7 O         -41.8620   15.9500  102.0780 O.co2     1 SAH401      0.0000 
      8 OXT       -43.4230   17.1290  103.1040 O.co2     1 SAH401      0.0000 
      9 C5'       -40.5130   22.9610  101.6170 C.3       1 SAH401      0.0000 
     10 C4'       -41.0010   23.1820  103.0490 C.3       1 SAH401      0.0000 
     11 O4'       -40.0770   24.0500  103.6790 O.3       1 SAH401      0.0000 
     12 C3'       -42.3850   23.8260  103.1310 C.3       1 SAH401      0.0000 
     13 O3'       -43.2220   23.0690  104.0040 O.3       1 SAH401      0.0000 
     14 C2'       -42.1300   25.1920  103.7730 C.3       1 SAH401      0.0000 
     15 O2'       -43.1440   25.5380  104.7230 O.3       1 SAH401      0.0000 
     16 C1'       -40.7890   24.9870  104.4670 C.3       1 SAH401      0.0000 
     17 N9        -39.9410   26.1960  104.5310 N.pl3     1 SAH401      0.0000 
     18 C8        -39.6630   27.0590  103.5330 C.2       1 SAH401      0.0000 
     19 N7        -38.8440   28.0460  103.9700 N.2       1 SAH401      0.0000 
     20 C5        -38.5800   27.8260  105.2730 C.ar      1 SAH401      0.0000 
     21 C6        -37.7880   28.4830  106.3320 C.ar      1 SAH401      0.0000 
     22 N6        -37.0910   29.6120  106.0760 N.pl3     1 SAH401      0.0000 
     23 N1        -37.7950   27.9080  107.5580 N.ar      1 SAH401      0.0000 
     24 C2        -38.4850   26.7840  107.8220 C.ar      1 SAH401      0.0000 
     25 N3        -39.2260   26.1340  106.9060 N.ar      1 SAH401      0.0000 
     26 C4        -39.3150   26.6070  105.6360 C.ar      1 SAH401      0.0000 
@<TRIPOS>BOND
     1    1    2 1    
     2    2    3 1    
     3    2    6 1    
     4    3    4 1    
     5    4    5 1    
     6    5    9 1    
     7    6    7 ar   
     8    6    8 ar   
     9    9   10 1    
    10   10   11 1    
    11   10   12 1    
    12   11   16 1    
    13   12   13 1    
    14   12   14 1    
    15   14   15 1    
    16   14   16 1    
    17   16   17 1    
    18   17   18 1    
    19   17   26 1    
    20   18   19 2    
    21   19   20 1    
    22   20   21 ar   
    23   20   26 ar   
    24   21   22 1    
    25   21   23 ar   
    26   23   24 ar   
    27   24   25 ar   
    28   25   26 ar   
@<TRIPOS>SUBSTRUCTURE
     1 SAH401      1 GROUP   
@<TRIPOS>SET

