#    Name: 6fdf_2_SAH
#    Modification time : Fri May 22 19:31:26 2020

@<TRIPOS>MOLECULE
6fdf_2_SAH
   26    28     1     0     0
SMALL
NO_CHARGES


@<TRIPOS>ATOM
      1 N         -52.1780   46.7920   83.4180 N.4       1 SAH401      0.0000 
      2 CA        -52.9280   47.4420   82.3640 C.3       1 SAH401      0.0000 
      3 CB        -52.2710   48.7490   81.9140 C.3       1 SAH401      0.0000 
      4 CG        -51.6130   49.5140   83.0630 C.3       1 SAH401      0.0000 
      5 SD        -50.6530   50.8720   82.4620 S.3       1 SAH401      0.0000 
      6 C         -53.0760   46.5180   81.1960 C.2       1 SAH401      0.0000 
      7 O         -53.0230   47.0200   80.0520 O.co2     1 SAH401      0.0000 
      8 OXT       -53.2450   45.2990   81.4150 O.co2     1 SAH401      0.0000 
      9 C5'       -51.3440   52.1150   83.4960 C.3       1 SAH401      0.0000 
     10 C4'       -52.6900   52.5930   82.9480 C.3       1 SAH401      0.0000 
     11 O4'       -53.1970   53.5490   83.8580 O.3       1 SAH401      0.0000 
     12 C3'       -52.6070   53.2630   81.5760 C.3       1 SAH401      0.0000 
     13 O3'       -53.5070   52.5970   80.6920 O.3       1 SAH401      0.0000 
     14 C2'       -53.1050   54.6940   81.8080 C.3       1 SAH401      0.0000 
     15 O2'       -54.0000   55.1490   80.7850 O.3       1 SAH401      0.0000 
     16 C1'       -53.8380   54.5780   83.1350 C.3       1 SAH401      0.0000 
     17 N9        -53.7830   55.7810   83.9900 N.pl3     1 SAH401      0.0000 
     18 C8        -52.7040   56.5380   84.2660 C.2       1 SAH401      0.0000 
     19 N7        -53.0340   57.5510   85.1020 N.2       1 SAH401      0.0000 
     20 C5        -54.3470   57.4530   85.3790 C.ar      1 SAH401      0.0000 
     21 C6        -55.3300   58.1980   86.1920 C.ar      1 SAH401      0.0000 
     22 N6        -54.9600   59.2900   86.8970 N.pl3     1 SAH401      0.0000 
     23 N1        -56.6050   57.7420   86.1960 N.ar      1 SAH401      0.0000 
     24 C2        -56.9850   56.6570   85.4970 C.ar      1 SAH401      0.0000 
     25 N3        -56.1430   55.9320   84.7370 N.ar      1 SAH401      0.0000 
     26 C4        -54.8350   56.2820   84.6370 C.ar      1 SAH401      0.0000 
@<TRIPOS>BOND
     1    1    2 1    
     2    2    3 1    
     3    2    6 1    
     4    3    4 1    
     5    4    5 1    
     6    5    9 1    
     7    6    7 ar   
     8    6    8 ar   
     9    9   10 1    
    10   10   11 1    
    11   10   12 1    
    12   11   16 1    
    13   12   13 1    
    14   12   14 1    
    15   14   15 1    
    16   14   16 1    
    17   16   17 1    
    18   17   18 1    
    19   17   26 1    
    20   18   19 2    
    21   19   20 1    
    22   20   21 ar   
    23   20   26 ar   
    24   21   22 1    
    25   21   23 ar   
    26   23   24 ar   
    27   24   25 ar   
    28   25   26 ar   
@<TRIPOS>SUBSTRUCTURE
     1 SAH401      1 GROUP   
@<TRIPOS>SET

