#    Name: 6fdf_2_SAH_CAVITY_N1_4
#    Modification time : Fri May 22 19:31:27 2020

@<TRIPOS>MOLECULE
6fdf_2_SAH_CAVITY_N1_4
   74     0     6     0     0
SMALL
NO_CHARGES


@<TRIPOS>ATOM
      1 OG        -52.4000   55.3300   84.9300 O.3       1 SER1        0.0000 
      2 OG        -52.9100   56.4800   84.1200 O.3       1 SER1        0.0000 
      3 OG        -51.6400   56.4900   83.3300 O.3       1 SER1        0.0000 
      4 OG        -53.5900   57.4300   85.8900 O.3       1 SER1        0.0000 
      5 OG        -49.7600   57.4700   83.5300 O.3       1 SER1        0.0000 
      6 OG        -52.8300   58.6000   84.2900 O.3       1 SER1        0.0000 
      7 OG        -51.5500   58.6100   83.5000 O.3       1 SER1        0.0000 
      8 N         -51.9000   50.1600   82.8200 N.am      2 ALA2        0.0000 
      9 N         -50.6200   50.1700   82.0300 N.am      2 ALA2        0.0000 
     10 N         -49.5100   49.9800   83.8300 N.am      2 ALA2        0.0000 
     11 N         -48.2300   49.9900   83.0400 N.am      2 ALA2        0.0000 
     12 N         -46.9600   50.0000   82.2500 N.am      2 ALA2        0.0000 
     13 N         -51.3000   51.1200   83.8000 N.am      2 ALA2        0.0000 
     14 N         -50.0200   51.1300   83.0200 N.am      2 ALA2        0.0000 
     15 N         -48.7500   51.1400   82.2300 N.am      2 ALA2        0.0000 
     16 O         -49.7700   53.4400   80.6000 O.2       2 ALA2        0.0000 
     17 O         -50.2800   54.6000   79.7900 O.2       2 ALA2        0.0000 
     18 N         -48.9100   50.9400   84.8100 N.am      2 ALA2        0.0000 
     19 N         -47.6300   50.9500   84.0200 N.am      2 ALA2        0.0000 
     20 N         -49.4200   52.0900   84.0000 N.am      2 ALA2        0.0000 
     21 N         -46.8700   52.1100   82.4200 N.am      2 ALA2        0.0000 
     22 N         -51.2100   53.2300   83.9700 N.am      2 ALA2        0.0000 
     23 O         -49.1700   54.4100   81.5900 O.2       2 ALA2        0.0000 
     24 N         -53.5100   59.5400   86.0600 N.am      2 ALA2        0.0000 
     25 N         -52.2300   59.5600   85.2800 N.am      2 ALA2        0.0000 
     26 N         -50.9500   59.5700   84.4900 N.am      2 ALA2        0.0000 
     27 N         -52.7400   60.7100   84.4600 N.am      2 ALA2        0.0000 
     28 NZ        -52.4100   51.3100   82.0100 N.4       3 LYS4        0.0000 
     29 NZ        -52.9200   52.4600   81.1900 N.4       3 LYS4        0.0000 
     30 NZ        -53.4400   53.6100   80.3800 N.4       3 LYS4        0.0000 
     31 NZ        -53.6000   53.4100   82.9700 N.4       3 LYS4        0.0000 
     32 NZ        -52.3200   53.4200   82.1800 N.4       3 LYS4        0.0000 
     33 NZ        -54.1100   54.5600   82.1500 N.4       3 LYS4        0.0000 
     34 NZ        -52.8400   54.5700   81.3700 N.4       3 LYS4        0.0000 
     35 NZ        -53.3500   55.7200   80.5500 N.4       3 LYS4        0.0000 
     36 NZ        -55.3800   58.5700   85.8700 N.4       3 LYS4        0.0000 
     37 CZ        -52.4900   53.2200   84.7600 C.ar      4 PHE5        0.0000 
     38 CZ        -54.2800   54.3600   84.7400 C.ar      4 PHE5        0.0000 
     39 CZ        -53.0000   54.3700   83.9500 C.ar      4 PHE5        0.0000 
     40 CZ        -54.1900   56.4700   84.9100 C.ar      4 PHE5        0.0000 
     41 CZ        -54.8700   57.4200   86.6800 C.ar      4 PHE5        0.0000 
     42 CA        -51.1300   51.3200   81.2200 C.3       5 GLY6        0.0000 
     43 CA        -52.6700   54.7700   78.7800 C.3       5 GLY6        0.0000 
     44 CA        -53.0900   52.2600   83.7800 C.3       5 GLY6        0.0000 
     45 CA        -49.9400   53.2400   83.1900 C.3       5 GLY6        0.0000 
     46 CA        -51.7200   54.3800   83.1600 C.3       5 GLY6        0.0000 
     47 CA        -50.4500   54.3900   82.3700 C.3       5 GLY6        0.0000 
     48 CA        -54.7900   55.5100   83.9300 C.3       5 GLY6        0.0000 
     49 CA        -53.5100   55.5200   83.1400 C.3       5 GLY6        0.0000 
     50 CA        -54.0300   56.6700   82.3200 C.3       5 GLY6        0.0000 
     51 CA        -52.7500   56.6800   81.5400 C.3       5 GLY6        0.0000 
     52 CA        -48.8200   53.0500   84.9800 C.3       5 GLY6        0.0000 
     53 CA        -47.5500   53.0600   84.1900 C.3       5 GLY6        0.0000 
     54 CA        -48.0600   54.2100   83.3800 C.3       5 GLY6        0.0000 
     55 CA        -55.4700   56.4600   85.7000 C.3       5 GLY6        0.0000 
     56 CA        -55.9800   57.6100   84.8800 C.3       5 GLY6        0.0000 
     57 CA        -54.7000   57.6200   84.1000 C.3       5 GLY6        0.0000 
     58 CA        -53.4300   57.6300   83.3100 C.3       5 GLY6        0.0000 
     59 CA        -52.1500   57.6500   82.5200 C.3       5 GLY6        0.0000 
     60 CA        -54.1000   58.5800   85.0800 C.3       5 GLY6        0.0000 
     61 CA        -55.8900   59.7200   85.0600 C.3       5 GLY6        0.0000 
     62 CA        -54.6200   59.7400   84.2700 C.3       5 GLY6        0.0000 
     63 CA        -53.3400   59.7500   83.4800 C.3       5 GLY6        0.0000 
     64 CA        -54.0200   60.7000   85.2500 C.3       5 GLY6        0.0000 
     65 CA        -54.5300   61.8500   84.4400 C.3       5 GLY6        0.0000 
     66 DU        -51.8100   52.2700   82.9900 H         6 CUB7        0.0000 
     67 DU        -50.5300   52.2800   82.2000 H         6 CUB7        0.0000 
     68 DU        -51.0500   53.4300   81.3900 H         6 CUB7        0.0000 
     69 DU        -51.5600   54.5800   80.5800 H         6 CUB7        0.0000 
     70 DU        -52.0700   55.7400   79.7600 H         6 CUB7        0.0000 
     71 DU        -48.1500   52.1000   83.2100 H         6 CUB7        0.0000 
     72 DU        -48.6600   53.2500   82.4000 H         6 CUB7        0.0000 
     73 DU        -52.2400   55.5300   82.3500 H         6 CUB7        0.0000 
     74 DU        -50.9600   55.5500   81.5600 H         6 CUB7        0.0000 
@<TRIPOS>BOND
@<TRIPOS>SUBSTRUCTURE
     1 SER1        1 GROUP   
     2 ALA2        8 GROUP   
     3 LYS4       28 GROUP   
     4 PHE5       37 GROUP   
     5 GLY6       42 GROUP   
     6 CUB7       66 GROUP   
@<TRIPOS>SET

