#    Name: 5ooc_1_ADP
#    Modification time : Fri May 22 19:17:11 2020

@<TRIPOS>MOLECULE
5ooc_1_ADP
   27    29     1     0     1
SMALL
NO_CHARGES


@<TRIPOS>ATOM
      1 PB        159.4570  151.8840  208.8430 P.3       1 ADP401      0.0000 
      2 O1B       160.6570  151.9000  207.9630 O.co2     1 ADP401      0.0000 
      3 O2B       159.7250  152.5520  210.2250 O.co2     1 ADP401      0.0000 
      4 O3B       158.7650  150.5390  208.9100 O.co2     1 ADP401      0.0000 
      5 PA        158.6090  154.3150  208.5980 P.3       1 ADP401      0.0000 
      6 O1A       160.0320  154.6970  208.5210 O.co2     1 ADP401      0.0000 
      7 O2A       157.9540  154.5290  209.9380 O.co2     1 ADP401      0.0000 
      8 O3A       158.5150  152.8630  208.1880 O.3       1 ADP401      0.0000 
      9 O5'       157.7850  155.1520  207.5600 O.3       1 ADP401      0.0000 
     10 C5'       157.2960  154.4570  206.4470 C.3       1 ADP401      0.0000 
     11 C4'       155.9140  154.8880  206.0530 C.3       1 ADP401      0.0000 
     12 O4'       155.4910  156.0760  206.6270 O.3       1 ADP401      0.0000 
     13 C3'       155.8540  155.2990  204.6470 C.3       1 ADP401      0.0000 
     14 O3'       156.1770  154.2430  203.7770 O.3       1 ADP401      0.0000 
     15 C2'       154.4510  155.7580  204.5950 C.3       1 ADP401      0.0000 
     16 O2'       153.4920  154.6970  204.7270 O.3       1 ADP401      0.0000 
     17 C1'       154.4610  156.6110  205.8100 C.3       1 ADP401      0.0000 
     18 N9        154.8360  157.9340  205.3490 N.pl3     1 ADP401      0.0000 
     19 C8        156.0070  158.2730  204.8630 C.2       1 ADP401      0.0000 
     20 N7        156.0410  159.5720  204.5120 N.2       1 ADP401      0.0000 
     21 C5        154.8540  160.0560  204.7880 C.ar      1 ADP401      0.0000 
     22 C6        154.1960  161.3290  204.6670 C.ar      1 ADP401      0.0000 
     23 N6        154.7680  162.4150  204.1600 N.pl3     1 ADP401      0.0000 
     24 N1        152.9640  161.4140  205.0680 N.ar      1 ADP401      0.0000 
     25 C2        152.3450  160.3890  205.5550 C.ar      1 ADP401      0.0000 
     26 N3        152.8550  159.1960  205.6950 N.ar      1 ADP401      0.0000 
     27 C4        154.0810  158.9760  205.3360 C.ar      1 ADP401      0.0000 
@<TRIPOS>BOND
     1    1    2 ar   
     2    1    3 ar   
     3    1    4 ar   
     4    1    8 1    
     5    5    6 ar   
     6    5    7 ar   
     7    5    8 1    
     8    5    9 1    
     9    9   10 1    
    10   10   11 1    
    11   11   12 1    
    12   11   13 1    
    13   12   17 1    
    14   13   14 1    
    15   13   15 1    
    16   15   16 1    
    17   15   17 1    
    18   17   18 1    
    19   18   19 1    
    20   18   27 1    
    21   19   20 2    
    22   20   21 1    
    23   21   22 ar   
    24   21   27 ar   
    25   22   23 1    
    26   22   24 ar   
    27   24   25 ar   
    28   25   26 ar   
    29   26   27 ar   
@<TRIPOS>SUBSTRUCTURE
     1 ADP401      1 GROUP   
@<TRIPOS>SET
ATOM$ORANGE STATIC     ATOMS   COLORGROUP SYSTEM 
20 10 10 11 11 13 13 15 15 17 17 19 19 21 21 22 22 25 \
25 27 27 

