#    Name: 5ooc_2_ADP
#    Modification time : Fri May 22 19:17:17 2020

@<TRIPOS>MOLECULE
5ooc_2_ADP
   27    29     1     0     1
SMALL
NO_CHARGES


@<TRIPOS>ATOM
      1 PB        128.1290  138.8060  181.3230 P.3       1 ADP401      0.0000 
      2 O1B       126.9590  139.0680  180.4410 O.co2     1 ADP401      0.0000 
      3 O2B       127.7100  138.2300  182.7090 O.co2     1 ADP401      0.0000 
      4 O3B       129.1190  139.9500  181.3820 O.co2     1 ADP401      0.0000 
      5 PA        128.3780  136.2420  181.0960 P.3       1 ADP401      0.0000 
      6 O1A       126.9060  136.2070  181.0190 O.co2     1 ADP401      0.0000 
      7 O2A       128.9640  135.8890  182.4390 O.co2     1 ADP401      0.0000 
      8 O3A       128.8130  137.6280  180.6760 O.3       1 ADP401      0.0000 
      9 O5'       128.9820  135.2280  180.0660 O.3       1 ADP401      0.0000 
     10 C5'       129.6220  135.7790  178.9490 C.3       1 ADP401      0.0000 
     11 C4'       130.8640  135.0310  178.5610 C.3       1 ADP401      0.0000 
     12 O4'       130.9940  133.7810  179.1430 O.3       1 ADP401      0.0000 
     13 C3'       130.8250  134.6070  177.1570 C.3       1 ADP401      0.0000 
     14 O3'       130.7610  135.7040  176.2800 O.3       1 ADP401      0.0000 
     15 C2'       132.0800  133.8300  177.1120 C.3       1 ADP401      0.0000 
     16 O2'       133.2620  134.6360  177.2390 O.3       1 ADP401      0.0000 
     17 C1'       131.8680  133.0120  178.3330 C.3       1 ADP401      0.0000 
     18 N9        131.1910  131.8110  177.8790 N.pl3     1 ADP401      0.0000 
     19 C8        129.9740  131.7560  177.3930 C.2       1 ADP401      0.0000 
     20 N7        129.6340  130.4980  177.0510 N.2       1 ADP401      0.0000 
     21 C5        130.6730  129.7500  177.3330 C.ar      1 ADP401      0.0000 
     22 C6        131.0120  128.3570  177.2220 C.ar      1 ADP401      0.0000 
     23 N6        130.2000  127.4330  176.7210 N.pl3     1 ADP401      0.0000 
     24 N1        132.1890  127.9870  177.6260 N.ar      1 ADP401      0.0000 
     25 C2        133.0320  128.8400  178.1080 C.ar      1 ADP401      0.0000 
     26 N3        132.8180  130.1210  178.2380 N.ar      1 ADP401      0.0000 
     27 C4        131.6800  130.6210  177.8750 C.ar      1 ADP401      0.0000 
@<TRIPOS>BOND
     1    1    2 ar   
     2    1    3 ar   
     3    1    4 ar   
     4    1    8 1    
     5    5    6 ar   
     6    5    7 ar   
     7    5    8 1    
     8    5    9 1    
     9    9   10 1    
    10   10   11 1    
    11   11   12 1    
    12   11   13 1    
    13   12   17 1    
    14   13   14 1    
    15   13   15 1    
    16   15   16 1    
    17   15   17 1    
    18   17   18 1    
    19   18   19 1    
    20   18   27 1    
    21   19   20 2    
    22   20   21 1    
    23   21   22 ar   
    24   21   27 ar   
    25   22   23 1    
    26   22   24 ar   
    27   24   25 ar   
    28   25   26 ar   
    29   26   27 ar   
@<TRIPOS>SUBSTRUCTURE
     1 ADP401      1 GROUP   
@<TRIPOS>SET
ATOM$ORANGE STATIC     ATOMS   COLORGROUP SYSTEM 
20 10 10 11 11 13 13 15 15 17 17 19 19 21 21 22 22 25 \
25 27 27 

