#    Name: 5ooc_5_ADP
#    Modification time : Fri May 22 19:17:33 2020

@<TRIPOS>MOLECULE
5ooc_5_ADP
   27    29     1     0     1
SMALL
NO_CHARGES


@<TRIPOS>ATOM
      1 PB        160.0760  135.8250   98.7170 P.3       1 ADP401      0.0000 
      2 O1B       160.7860  134.8540   97.8400 O.co2     1 ADP401      0.0000 
      3 O2B       160.7720  135.9940  100.1010 O.co2     1 ADP401      0.0000 
      4 O3B       158.5780  135.6110   98.7790 O.co2     1 ADP401      0.0000 
      5 PA        161.5690  137.9230   98.4740 P.3       1 ADP401      0.0000 
      6 O1A       162.7040  136.9830   98.4020 O.co2     1 ADP401      0.0000 
      7 O2A       161.3600  138.5820   99.8140 O.co2     1 ADP401      0.0000 
      8 O3A       160.3310  137.1590   98.0610 O.3       1 ADP401      0.0000 
      9 O5'       161.7780  139.0780   97.4360 O.3       1 ADP401      0.0000 
     10 C5'       160.9310  139.0730   96.3210 C.3       1 ADP401      0.0000 
     11 C4'       160.4840  140.4500   95.9240 C.3       1 ADP401      0.0000 
     12 O4'       161.2070  141.4830   96.4990 O.3       1 ADP401      0.0000 
     13 C3'       160.7900  140.7350   94.5180 C.3       1 ADP401      0.0000 
     14 O3'       160.1170  139.8600   93.6470 O.3       1 ADP401      0.0000 
     15 C2'       160.3520  142.1450   94.4640 C.3       1 ADP401      0.0000 
     16 O2'       158.9310  142.3130   94.5910 O.3       1 ADP401      0.0000 
     17 C1'       161.0500  142.6310   95.6810 C.3       1 ADP401      0.0000 
     18 N9        162.3480  143.0910   95.2230 N.pl3     1 ADP401      0.0000 
     19 C8        163.3030  142.3310   94.7410 C.2       1 ADP401      0.0000 
     20 N7        164.3830  143.0560   94.3920 N.2       1 ADP401      0.0000 
     21 C5        164.0900  144.3040   94.6670 C.ar      1 ADP401      0.0000 
     22 C6        164.7480  145.5770   94.5470 C.ar      1 ADP401      0.0000 
     23 N6        165.9660  145.7380   94.0430 N.pl3     1 ADP401      0.0000 
     24 N1        164.1030  146.6310   94.9450 N.ar      1 ADP401      0.0000 
     25 C2        162.9070  146.5430   95.4280 C.ar      1 ADP401      0.0000 
     26 N3        162.2290  145.4370   95.5670 N.ar      1 ADP401      0.0000 
     27 C4        162.7600  144.3100   95.2100 C.ar      1 ADP401      0.0000 
@<TRIPOS>BOND
     1    1    2 ar   
     2    1    3 ar   
     3    1    4 ar   
     4    1    8 1    
     5    5    6 ar   
     6    5    7 ar   
     7    5    8 1    
     8    5    9 1    
     9    9   10 1    
    10   10   11 1    
    11   11   12 1    
    12   11   13 1    
    13   12   17 1    
    14   13   14 1    
    15   13   15 1    
    16   15   16 1    
    17   15   17 1    
    18   17   18 1    
    19   18   19 1    
    20   18   27 1    
    21   19   20 2    
    22   20   21 1    
    23   21   22 ar   
    24   21   27 ar   
    25   22   23 1    
    26   22   24 ar   
    27   24   25 ar   
    28   25   26 ar   
    29   26   27 ar   
@<TRIPOS>SUBSTRUCTURE
     1 ADP401      1 GROUP   
@<TRIPOS>SET
ATOM$ORANGE STATIC     ATOMS   COLORGROUP SYSTEM 
20 10 10 11 11 13 13 15 15 17 17 19 19 21 21 22 22 25 \
25 27 27 

