#    Name: 5ooc_4_ADP
#    Modification time : Fri May 22 19:17:27 2020

@<TRIPOS>MOLECULE
5ooc_4_ADP
   27    29     1     0     1
SMALL
NO_CHARGES


@<TRIPOS>ATOM
      1 PB        127.8820  146.6790  126.2040 P.3       1 ADP401      0.0000 
      2 O1B       126.9650  147.4480  125.3200 O.co2     1 ADP401      0.0000 
      3 O2B       127.2430  146.3600  127.5890 O.co2     1 ADP401      0.0000 
      4 O3B       129.2860  147.2410  126.2660 O.co2     1 ADP401      0.0000 
      5 PA        126.9270  144.2860  125.9750 P.3       1 ADP401      0.0000 
      6 O1A       125.6030  144.9310  125.8960 O.co2     1 ADP401      0.0000 
      7 O2A       127.2830  143.7040  127.3190 O.co2     1 ADP401      0.0000 
      8 O3A       127.9500  145.3180  125.5570 O.3       1 ADP401      0.0000 
      9 O5'       126.9990  143.1080  124.9460 O.3       1 ADP401      0.0000 
     10 C5'       127.8230  143.3040  123.8310 C.3       1 ADP401      0.0000 
     11 C4'       128.5830  142.0700  123.4440 C.3       1 ADP401      0.0000 
     12 O4'       128.1240  140.8990  124.0250 O.3       1 ADP401      0.0000 
     13 C3'       128.3570  141.7110  122.0390 C.3       1 ADP401      0.0000 
     14 O3'       128.8050  142.7140  121.1620 O.3       1 ADP401      0.0000 
     15 C2'       129.1150  140.4440  121.9950 C.3       1 ADP401      0.0000 
     16 O2'       130.5350  140.6170  122.1250 O.3       1 ADP401      0.0000 
     17 C1'       128.5500  139.8150  123.2150 C.3       1 ADP401      0.0000 
     18 N9        127.3980  139.0590  122.7600 N.pl3     1 ADP401      0.0000 
     19 C8        126.2920  139.5680  122.2720 C.2       1 ADP401      0.0000 
     20 N7        125.4130  138.6060  121.9280 N.2       1 ADP401      0.0000 
     21 C5        125.9920  137.4650  122.2120 C.ar      1 ADP401      0.0000 
     22 C6        125.6540  136.0720  122.1000 C.ar      1 ADP401      0.0000 
     23 N6        124.5090  135.6240  121.5980 N.pl3     1 ADP401      0.0000 
     24 N1        126.5290  135.2030  122.5060 N.ar      1 ADP401      0.0000 
     25 C2        127.6690  135.5730  122.9890 C.ar      1 ADP401      0.0000 
     26 N3        128.0660  136.8090  123.1210 N.ar      1 ADP401      0.0000 
     27 C4        127.2850  137.7770  122.7550 C.ar      1 ADP401      0.0000 
@<TRIPOS>BOND
     1    1    2 ar   
     2    1    3 ar   
     3    1    4 ar   
     4    1    8 1    
     5    5    6 ar   
     6    5    7 ar   
     7    5    8 1    
     8    5    9 1    
     9    9   10 1    
    10   10   11 1    
    11   11   12 1    
    12   11   13 1    
    13   12   17 1    
    14   13   14 1    
    15   13   15 1    
    16   15   16 1    
    17   15   17 1    
    18   17   18 1    
    19   18   19 1    
    20   18   27 1    
    21   19   20 2    
    22   20   21 1    
    23   21   22 ar   
    24   21   27 ar   
    25   22   23 1    
    26   22   24 ar   
    27   24   25 ar   
    28   25   26 ar   
    29   26   27 ar   
@<TRIPOS>SUBSTRUCTURE
     1 ADP401      1 GROUP   
@<TRIPOS>SET
ATOM$ORANGE STATIC     ATOMS   COLORGROUP SYSTEM 
20 10 10 11 11 13 13 15 15 17 17 19 19 21 21 22 22 25 \
25 27 27 

