#    Name: 5ooc_3_ADP
#    Modification time : Fri May 22 19:17:23 2020

@<TRIPOS>MOLECULE
5ooc_3_ADP
   27    29     1     0     1
SMALL
NO_CHARGES


@<TRIPOS>ATOM
      1 PB        161.6710  143.9210  153.7810 P.3       1 ADP401      0.0000 
      2 O1B       162.7460  143.3840  152.9030 O.co2     1 ADP401      0.0000 
      3 O2B       162.2140  144.3920  155.1640 O.co2     1 ADP401      0.0000 
      4 O3B       160.4390  143.0440  153.8460 O.co2     1 ADP401      0.0000 
      5 PA        162.0350  146.4700  153.5360 P.3       1 ADP401      0.0000 
      6 O1A       163.4740  146.1560  153.4620 O.co2     1 ADP401      0.0000 
      7 O2A       161.5480  146.9610  154.8760 O.co2     1 ADP401      0.0000 
      8 O3A       161.2850  145.2230  153.1250 O.3       1 ADP401      0.0000 
      9 O5'       161.6880  147.5910  152.4980 O.3       1 ADP401      0.0000 
     10 C5'       160.9370  147.1980  151.3840 C.3       1 ADP401      0.0000 
     11 C4'       159.9070  148.2160  150.9880 C.3       1 ADP401      0.0000 
     12 O4'       160.0750  149.4660  151.5610 O.3       1 ADP401      0.0000 
     13 C3'       160.0450  148.6090  149.5810 C.3       1 ADP401      0.0000 
     14 O3'       159.8480  147.5220  148.7110 O.3       1 ADP401      0.0000 
     15 C2'       159.0090  149.6600  149.5280 C.3       1 ADP401      0.0000 
     16 O2'       157.6700  149.1570  149.6580 O.3       1 ADP401      0.0000 
     17 C1'       159.4080  150.4130  150.7440 C.3       1 ADP401      0.0000 
     18 N9        160.3490  151.4170  150.2840 N.pl3     1 ADP401      0.0000 
     19 C8        161.5450  151.1800  149.8000 C.2       1 ADP401      0.0000 
     20 N7        162.1720  152.3190  149.4500 N.2       1 ADP401      0.0000 
     21 C5        161.3390  153.2940  149.7250 C.ar      1 ADP401      0.0000 
     22 C6        161.3390  154.7270  149.6040 C.ar      1 ADP401      0.0000 
     23 N6        162.3470  155.4290  149.0980 N.pl3     1 ADP401      0.0000 
     24 N1        160.2830  155.3670  150.0030 N.ar      1 ADP401      0.0000 
     25 C2        159.2620  154.7410  150.4880 C.ar      1 ADP401      0.0000 
     26 N3        159.1670  153.4470  150.6280 N.ar      1 ADP401      0.0000 
     27 C4        160.1560  152.6890  150.2700 C.ar      1 ADP401      0.0000 
@<TRIPOS>BOND
     1    1    2 ar   
     2    1    3 ar   
     3    1    4 ar   
     4    1    8 1    
     5    5    6 ar   
     6    5    7 ar   
     7    5    8 1    
     8    5    9 1    
     9    9   10 1    
    10   10   11 1    
    11   11   12 1    
    12   11   13 1    
    13   12   17 1    
    14   13   14 1    
    15   13   15 1    
    16   15   16 1    
    17   15   17 1    
    18   17   18 1    
    19   18   19 1    
    20   18   27 1    
    21   19   20 2    
    22   20   21 1    
    23   21   22 ar   
    24   21   27 ar   
    25   22   23 1    
    26   22   24 ar   
    27   24   25 ar   
    28   25   26 ar   
    29   26   27 ar   
@<TRIPOS>SUBSTRUCTURE
     1 ADP401      1 GROUP   
@<TRIPOS>SET
ATOM$ORANGE STATIC     ATOMS   COLORGROUP SYSTEM 
20 10 10 11 11 13 13 15 15 17 17 19 19 21 21 22 22 25 \
25 27 27 

