#    Name: 5ooc_4_ADP_CAVITY_N1_4
#    Modification time : Fri May 22 19:17:29 2020

@<TRIPOS>MOLECULE
5ooc_4_ADP_CAVITY_N1_4
   65     0     5     0     0
SMALL
NO_CHARGES


@<TRIPOS>ATOM
      1 OG        130.6000  146.5100  127.7800 O.3       1 SER1        0.0000 
      2 OG        132.1200  148.3300  128.8300 O.3       1 SER1        0.0000 
      3 OG        130.6600  148.1500  129.1200 O.3       1 SER1        0.0000 
      4 O         128.8100  144.5200  125.2600 O.2       2 ALA2        0.0000 
      5 O         128.6000  146.0000  125.1300 O.2       2 ALA2        0.0000 
      6 O         127.5600  142.8600  125.6700 O.2       2 ALA2        0.0000 
      7 O         126.9300  147.3000  125.3000 O.2       2 ALA2        0.0000 
      8 O         126.1000  142.6700  125.9600 O.2       2 ALA2        0.0000 
      9 O         124.6400  142.4900  126.2500 O.2       2 ALA2        0.0000 
     10 O         128.6600  147.6400  126.4800 O.2       2 ALA2        0.0000 
     11 O         127.8300  143.0200  127.1400 O.2       2 ALA2        0.0000 
     12 N         124.7000  144.1300  127.5900 N.am      2 ALA2        0.0000 
     13 O         130.4500  149.6300  129.0000 O.2       2 ALA2        0.0000 
     14 OD1       127.5200  145.3500  119.2700 O.co2     3 ASP3        0.0000 
     15 OD1       126.2700  143.6900  119.6800 O.co2     3 ASP3        0.0000 
     16 OD1       125.0200  142.0300  120.1000 O.co2     3 ASP3        0.0000 
     17 OD1       125.5000  140.7100  121.6900 O.co2     3 ASP3        0.0000 
     18 OD1       125.2900  142.1900  121.5600 O.co2     3 ASP3        0.0000 
     19 OD1       123.8300  142.0000  121.8500 O.co2     3 ASP3        0.0000 
     20 OD1       124.1600  143.8100  124.6600 O.co2     3 ASP3        0.0000 
     21 OD1       125.8900  144.1500  125.8400 O.co2     3 ASP3        0.0000 
     22 OD1       125.6800  145.6300  125.7100 O.co2     3 ASP3        0.0000 
     23 OD1       124.4300  143.9700  126.1300 O.co2     3 ASP3        0.0000 
     24 OD1       127.4100  145.9800  126.8900 O.co2     3 ASP3        0.0000 
     25 OD1       126.1600  144.3200  127.3000 O.co2     3 ASP3        0.0000 
     26 OD1       125.9500  145.8000  127.1800 O.co2     3 ASP3        0.0000 
     27 OD1       129.1400  146.3200  128.0700 O.co2     3 ASP3        0.0000 
     28 OD1       128.9300  147.8000  127.9400 O.co2     3 ASP3        0.0000 
     29 OD1       129.4100  146.4900  129.5300 O.co2     3 ASP3        0.0000 
     30 OD1       129.2000  147.9700  129.4100 O.co2     3 ASP3        0.0000 
     31 NZ        132.5900  143.1000  120.1200 N.4       4 LYS4        0.0000 
     32 NZ        130.7100  145.8800  120.1600 N.4       4 LYS4        0.0000 
     33 NZ        129.2500  145.7000  120.4500 N.4       4 LYS4        0.0000 
     34 NZ        128.2100  142.5500  120.9800 N.4       4 LYS4        0.0000 
     35 NZ        128.0000  144.0300  120.8600 N.4       4 LYS4        0.0000 
     36 NZ        126.7500  142.3700  121.2700 N.4       4 LYS4        0.0000 
     37 NZ        128.6900  141.2400  122.5800 N.4       4 LYS4        0.0000 
     38 NZ        128.4800  142.7200  122.4500 N.4       4 LYS4        0.0000 
     39 NZ        127.2300  141.0500  122.8600 N.4       4 LYS4        0.0000 
     40 NZ        127.0200  142.5300  122.7400 N.4       4 LYS4        0.0000 
     41 NZ        128.9600  141.4000  124.0400 N.4       4 LYS4        0.0000 
     42 NZ        128.7500  142.8800  123.9200 N.4       4 LYS4        0.0000 
     43 CA        130.6500  144.2400  118.8100 C.3       5 GLY6        0.0000 
     44 CA        128.9800  145.5300  118.9800 C.3       5 GLY6        0.0000 
     45 CA        127.7900  145.5100  120.7300 C.3       5 GLY6        0.0000 
     46 CA        126.5400  143.8500  121.1500 C.3       5 GLY6        0.0000 
     47 CA        125.0800  143.6700  121.4400 C.3       5 GLY6        0.0000 
     48 CA        126.8100  144.0100  122.6200 C.3       5 GLY6        0.0000 
     49 CA        125.7700  140.8700  123.1500 C.3       5 GLY6        0.0000 
     50 CA        125.5600  142.3500  123.0300 C.3       5 GLY6        0.0000 
     51 CA        124.1000  142.1700  123.3200 C.3       5 GLY6        0.0000 
     52 CA        123.8900  143.6500  123.1900 C.3       5 GLY6        0.0000 
     53 CA        127.5000  141.2100  124.3300 C.3       5 GLY6        0.0000 
     54 CA        127.2900  142.6900  124.2100 C.3       5 GLY6        0.0000 
     55 CA        127.0800  144.1700  124.0800 C.3       5 GLY6        0.0000 
     56 CA        125.8300  142.5100  124.5000 C.3       5 GLY6        0.0000 
     57 CA        125.6200  143.9900  124.3700 C.3       5 GLY6        0.0000 
     58 CA        124.3700  142.3300  124.7900 C.3       5 GLY6        0.0000 
     59 CA        129.2300  141.5600  125.5100 C.3       5 GLY6        0.0000 
     60 CA        129.0200  143.0400  125.3800 C.3       5 GLY6        0.0000 
     61 CA        127.3500  144.3400  125.5500 C.3       5 GLY6        0.0000 
     62 CA        127.1400  145.8200  125.4200 C.3       5 GLY6        0.0000 
     63 CA        128.8700  146.1600  126.6000 C.3       5 GLY6        0.0000 
     64 CA        127.6200  144.5000  127.0200 C.3       5 GLY6        0.0000 
     65 CA        130.8700  146.6700  129.2400 C.3       5 GLY6        0.0000 
@<TRIPOS>BOND
@<TRIPOS>SUBSTRUCTURE
     1 SER1        1 GROUP   
     2 ALA2        4 GROUP   
     3 ASP3       14 GROUP   
     4 LYS4       31 GROUP   
     5 GLY6       43 GROUP   
@<TRIPOS>SET

