#    Name: 6ie8_1_CHD
#    Modification time : Fri May 22 19:27:01 2020

@<TRIPOS>MOLECULE
6ie8_1_CHD
   29    32     1     0     0
SMALL
NO_CHARGES


@<TRIPOS>ATOM
      1 C1        -10.6400  -29.9510   11.3180 C.3       1 CHD201      0.0000 
      2 C2        -12.0890  -29.7520   11.6610 C.3       1 CHD201      0.0000 
      3 C3        -12.2450  -29.5410   13.1320 C.3       1 CHD201      0.0000 
      4 O3        -13.6190  -29.4590   13.3320 O.3       1 CHD201      0.0000 
      5 C4        -11.7660  -30.8140   13.8320 C.3       1 CHD201      0.0000 
      6 C5        -10.3010  -31.0830   13.4880 C.3       1 CHD201      0.0000 
      7 C6         -9.7550  -32.4220   14.1100 C.3       1 CHD201      0.0000 
      8 C7        -10.2530  -33.7290   13.5140 C.3       1 CHD201      0.0000 
      9 O7        -11.6620  -33.9590   13.7730 O.3       1 CHD201      0.0000 
     10 C8        -10.0330  -33.7470   11.9790 C.3       1 CHD201      0.0000 
     11 C9        -10.6210  -32.5150   11.3470 C.3       1 CHD201      0.0000 
     12 C10       -10.0520  -31.1910   11.9590 C.3       1 CHD201      0.0000 
     13 C11       -10.5930  -32.6680    9.7850 C.3       1 CHD201      0.0000 
     14 C12       -11.0900  -34.0180    9.2370 C.3       1 CHD201      0.0000 
     15 O12       -12.5260  -34.1120    9.3170 O.3       1 CHD201      0.0000 
     16 C13       -10.4600  -35.2180    9.9390 C.3       1 CHD201      0.0000 
     17 C14       -10.6980  -35.0150   11.4300 C.3       1 CHD201      0.0000 
     18 C15       -10.2580  -36.3290   12.0490 C.3       1 CHD201      0.0000 
     19 C16       -10.8270  -37.3710   11.0720 C.3       1 CHD201      0.0000 
     20 C17       -11.1090  -36.6110    9.7610 C.3       1 CHD201      0.0000 
     21 C18        -8.9540  -35.1730    9.6540 C.3       1 CHD201      0.0000 
     22 C19        -8.5300  -31.0860   11.6920 C.3       1 CHD201      0.0000 
     23 C20       -10.7630  -37.5160    8.5610 C.3       1 CHD201      0.0000 
     24 C21       -11.0790  -36.7510    7.2710 C.3       1 CHD201      0.0000 
     25 C22       -11.4690  -38.9350    8.6520 C.3       1 CHD201      0.0000 
     26 C23       -10.6910  -40.1090    7.9570 C.3       1 CHD201      0.0000 
     27 O25        -9.8930  -41.6240    9.7710 O.co2     1 CHD201      0.0000 
     28 C24       -10.3560  -41.4940    8.6040 C.2       1 CHD201      0.0000 
     29 O26       -10.4910  -42.5290    7.8860 O.co2     1 CHD201      0.0000 
@<TRIPOS>BOND
     1    1    2 1    
     2    1   12 1    
     3    2    3 1    
     4    3    4 1    
     5    3    5 1    
     6    5    6 1    
     7    6    7 1    
     8    6   12 1    
     9    7    8 1    
    10    8    9 1    
    11    8   10 1    
    12   10   11 1    
    13   10   17 1    
    14   11   12 1    
    15   11   13 1    
    16   12   22 1    
    17   13   14 1    
    18   14   15 1    
    19   14   16 1    
    20   16   17 1    
    21   16   20 1    
    22   16   21 1    
    23   17   18 1    
    24   18   19 1    
    25   19   20 1    
    26   20   23 1    
    27   23   24 1    
    28   23   25 1    
    29   25   26 1    
    30   26   28 1    
    31   27   28 ar   
    32   28   29 ar   
@<TRIPOS>SUBSTRUCTURE
     1 CHD201      1 GROUP   
@<TRIPOS>SET

