#    Name: 6drw_1_SKE
#    Modification time : Fri May 22 19:34:05 2020

@<TRIPOS>MOLECULE
6drw_1_SKE
   27    29     1     0     0
SMALL
NO_CHARGES


@<TRIPOS>ATOM
      1 S         -12.9980  -20.4130  102.5210 S.o2      1 SKE1201     0.0000 
      2 C1         -6.5680  -26.4810  104.1280 C.2       1 SKE1201     0.0000 
      3 F1         -3.4880  -22.8060  105.1310 F         1 SKE1201     0.0000 
      4 N1         -5.5450  -27.5090  104.1130 N.pl3     1 SKE1201     0.0000 
      5 O1        -12.5610  -19.1880  103.1960 O.2       1 SKE1201     0.0000 
      6 C2         -8.4860  -25.4710  104.2890 C.2       1 SKE1201     0.0000 
      7 F2         -6.7180  -23.2470  101.6610 F         1 SKE1201     0.0000 
      8 N2         -7.8740  -26.6670  104.3630 N.2       1 SKE1201     0.0000 
      9 O2        -14.3930  -20.5020  102.9600 O.2       1 SKE1201     0.0000 
     10 C3        -10.6220  -24.0560  104.0020 C.ar      1 SKE1201     0.0000 
     11 N3         -9.9090  -25.2320  104.4840 N.pl3     1 SKE1201     0.0000 
     12 O3         -4.1260  -25.1800  103.5530 O.2       1 SKE1201     0.0000 
     13 C4        -12.0030  -24.1080  103.9050 C.ar      1 SKE1201     0.0000 
     14 N4        -12.8930  -20.2560  100.8220 N.pl3     1 SKE1201     0.0000 
     15 C5        -12.7180  -23.0110  103.4570 C.ar      1 SKE1201     0.0000 
     16 N5         -7.5600  -24.5750  104.0160 N.2       1 SKE1201     0.0000 
     17 C6        -12.0520  -21.8510  103.1040 C.ar      1 SKE1201     0.0000 
     18 N6         -6.3850  -25.2040  103.9160 N.am      1 SKE1201     0.0000 
     19 C7        -10.6740  -21.7870  103.2050 C.ar      1 SKE1201     0.0000 
     20 C8         -9.9620  -22.8870  103.6530 C.ar      1 SKE1201     0.0000 
     21 C9         -5.1250  -24.5490  103.6200 C.2       1 SKE1201     0.0000 
     22 C10        -5.0990  -23.0370  103.3990 C.ar      1 SKE1201     0.0000 
     23 C11        -4.2760  -22.2380  104.1740 C.ar      1 SKE1201     0.0000 
     24 C12        -4.2520  -20.8670  103.9780 C.ar      1 SKE1201     0.0000 
     25 C13        -5.0530  -20.2940  103.0040 C.ar      1 SKE1201     0.0000 
     26 C14        -5.8780  -21.0920  102.2290 C.ar      1 SKE1201     0.0000 
     27 C15        -5.9020  -22.4630  102.4250 C.ar      1 SKE1201     0.0000 
@<TRIPOS>BOND
     1    1    5 2    
     2    1    9 2    
     3    1   14 1    
     4    1   17 1    
     5    2    4 1    
     6    2    8 2    
     7    2   18 1    
     8    3   23 1    
     9    6    8 1    
    10    6   11 1    
    11    6   16 2    
    12    7   27 1    
    13   10   11 1    
    14   10   13 ar   
    15   10   20 ar   
    16   12   21 2    
    17   13   15 ar   
    18   15   17 ar   
    19   16   18 1    
    20   17   19 ar   
    21   18   21 am   
    22   19   20 ar   
    23   21   22 1    
    24   22   23 ar   
    25   22   27 ar   
    26   23   24 ar   
    27   24   25 ar   
    28   25   26 ar   
    29   26   27 ar   
@<TRIPOS>SUBSTRUCTURE
     1 SKE1201     1 GROUP   
@<TRIPOS>SET

