#    Name: 6nec_2_XIN
#    Modification time : Fri May 22 19:24:45 2020

@<TRIPOS>MOLECULE
6nec_2_XIN
   40    44     1     0     0
SMALL
NO_CHARGES


@<TRIPOS>ATOM
      1 C1         24.2060   14.9060  -26.7320 C.2       1 XIN1102     0.0000 
      2 C2         25.0230   13.7840  -26.2230 C.ar      1 XIN1102     0.0000 
      3 C3         22.7410   15.0930  -26.5770 C.2       1 XIN1102     0.0000 
      4 C4         25.1480   15.7700  -27.4460 C.2       1 XIN1102     0.0000 
      5 C5         26.3960   14.1330  -26.6910 C.ar      1 XIN1102     0.0000 
      6 C6         24.7690   12.6370  -25.4630 C.ar      1 XIN1102     0.0000 
      7 C7         21.9430   14.1030  -25.7770 C.ar      1 XIN1102     0.0000 
      8 C11        27.4140   13.2450  -26.3810 C.ar      1 XIN1102     0.0000 
      9 C12        25.8500   11.7900  -25.1770 C.ar      1 XIN1102     0.0000 
     10 C15        21.0040   16.6140  -27.4250 C.ar      1 XIN1102     0.0000 
     11 C16        27.1460   12.0990  -25.6210 C.ar      1 XIN1102     0.0000 
     12 C17        20.4310   12.2320  -25.5610 C.ar      1 XIN1102     0.0000 
     13 C18        21.3380   13.2740  -23.5800 C.ar      1 XIN1102     0.0000 
     14 C19        20.8250   17.6110  -28.3940 C.ar      1 XIN1102     0.0000 
     15 C21        28.2900   11.1750  -25.3400 C.2       1 XIN1102     0.0000 
     16 C23        19.5450   18.0730  -28.6990 C.ar      1 XIN1102     0.0000 
     17 C24        18.6120   16.5650  -27.0510 C.ar      1 XIN1102     0.0000 
     18 O25        29.6310   11.5670  -25.6850 O.3       1 XIN1102     0.0000 
     19 O26        28.1250   10.0520  -24.8740 O.2       1 XIN1102     0.0000 
     20 C27        18.4330   17.5540  -28.0240 C.ar      1 XIN1102     0.0000 
     21 C30        16.5120   18.9410  -27.6120 C.2       1 XIN1102     0.0000 
     22 C31        16.5120   17.3410  -29.4880 C.3       1 XIN1102     0.0000 
     23 C32        17.2660   19.5750  -26.4530 C.3       1 XIN1102     0.0000 
     24 C35        16.0850   21.0560  -24.9910 C.3       1 XIN1102     0.0000 
     25 C36        15.4330   18.7180  -24.9900 C.3       1 XIN1102     0.0000 
     26 C37        15.7350   21.2730  -23.5230 C.3       1 XIN1102     0.0000 
     27 C38        14.3720   19.2190  -24.0020 C.3       1 XIN1102     0.0000 
     28 C40        15.4220   19.5750  -21.8240 C.3       1 XIN1102     0.0000 
     29 O33        15.3730   19.3080  -27.8770 O.2       1 XIN1102     0.0000 
     30 N34        16.5490   19.6720  -25.1600 N.4       1 XIN1102     0.0000 
     31 N39        14.8190   20.2300  -23.0040 N.3       1 XIN1102     0.0000 
     32 N29        17.1290   17.9940  -28.3370 N.am      1 XIN1102     0.0000 
     33 C20        19.8950   16.1080  -26.7520 C.ar      1 XIN1102     0.0000 
     34 N8         22.2770   16.2120  -27.1580 N.pl3     1 XIN1102     0.0000 
     35 C14        22.0360   14.1720  -24.3780 C.ar      1 XIN1102     0.0000 
     36 C22        20.5330   12.2990  -24.1710 C.ar      1 XIN1102     0.0000 
     37 C13        21.1410   13.1230  -26.3710 C.ar      1 XIN1102     0.0000 
     38 C28        30.6910   10.6640  -25.3730 C.3       1 XIN1102     0.0000 
     39 N9         26.3970   15.2950  -27.4150 N.am      1 XIN1102     0.0000 
     40 O10        24.8010   16.8650  -28.0480 O.2       1 XIN1102     0.0000 
@<TRIPOS>BOND
     1    1    2 1    
     2    1    3 2    
     3    1    4 1    
     4    2    5 ar   
     5    2    6 ar   
     6    3    7 1    
     7    3   34 1    
     8    4   39 am   
     9    4   40 2    
    10    5    8 ar   
    11    5   39 1    
    12    6    9 ar   
    13    7   35 ar   
    14    7   37 ar   
    15    8   11 ar   
    16    9   11 ar   
    17   10   14 ar   
    18   10   33 ar   
    19   10   34 1    
    20   11   15 1    
    21   12   36 ar   
    22   12   37 ar   
    23   13   35 ar   
    24   13   36 ar   
    25   14   16 ar   
    26   15   18 1    
    27   15   19 2    
    28   16   20 ar   
    29   17   20 ar   
    30   17   33 ar   
    31   18   38 1    
    32   20   32 1    
    33   21   23 1    
    34   21   29 2    
    35   21   32 am   
    36   22   32 1    
    37   23   30 1    
    38   24   26 1    
    39   24   30 1    
    40   25   27 1    
    41   25   30 1    
    42   26   31 1    
    43   27   31 1    
    44   28   31 1    
@<TRIPOS>SUBSTRUCTURE
     1 XIN1102     1 GROUP   
@<TRIPOS>SET

