#    Name: 6nec_1_XIN
#    Modification time : Fri May 22 19:24:42 2020

@<TRIPOS>MOLECULE
6nec_1_XIN
   40    44     1     0     0
SMALL
NO_CHARGES


@<TRIPOS>ATOM
      1 C1          5.8770    1.8150   -2.0560 C.2       1 XIN1101     0.0000 
      2 C2          6.9690    0.8380   -2.2240 C.ar      1 XIN1101     0.0000 
      3 C3          5.8830    3.2440   -2.4200 C.2       1 XIN1101     0.0000 
      4 C4          4.7810    1.0490   -1.4530 C.2       1 XIN1101     0.0000 
      5 C5          6.3770   -0.4270   -1.6930 C.ar      1 XIN1101     0.0000 
      6 C6          8.2760    0.9090   -2.7040 C.ar      1 XIN1101     0.0000 
      7 C7          7.0850    3.8530   -3.0650 C.ar      1 XIN1101     0.0000 
      8 C11         7.1850   -1.5660   -1.6820 C.ar      1 XIN1101     0.0000 
      9 C12         9.0320   -0.2780   -2.6640 C.ar      1 XIN1101     0.0000 
     10 C15         4.3720    5.1850   -2.2250 C.ar      1 XIN1101     0.0000 
     11 C16         8.4930   -1.4820   -2.1780 C.ar      1 XIN1101     0.0000 
     12 C17         9.0870    5.1850   -3.0470 C.ar      1 XIN1101     0.0000 
     13 C18         8.3760    4.0760   -5.0950 C.ar      1 XIN1101     0.0000 
     14 C19         5.0550    6.1570   -2.9760 C.ar      1 XIN1101     0.0000 
     15 C21         9.3480   -2.7180   -2.1270 C.2       1 XIN1101     0.0000 
     16 C23         4.5860    7.4750   -2.9720 C.ar      1 XIN1101     0.0000 
     17 C24         2.7450    6.8380   -1.5320 C.ar      1 XIN1101     0.0000 
     18 O25         8.7180   -3.9450   -1.7670 O.3       1 XIN1101     0.0000 
     19 O26        10.5720   -2.6980   -2.3170 O.2       1 XIN1101     0.0000 
     20 C27         3.4180    7.8120   -2.2690 C.ar      1 XIN1101     0.0000 
     21 C30         2.5310    9.8340   -3.3030 C.2       1 XIN1101     0.0000 
     22 C31         3.0000    9.7800   -0.9200 C.3       1 XIN1101     0.0000 
     23 C32         2.5270    9.2150   -4.6890 C.3       1 XIN1101     0.0000 
     24 C35         4.5660   10.2840   -5.5240 C.3       1 XIN1101     0.0000 
     25 C36         2.7770    9.7730   -7.0660 C.3       1 XIN1101     0.0000 
     26 C37         5.0710   11.3990   -6.4450 C.3       1 XIN1101     0.0000 
     27 C38         3.2560   10.8810   -8.0140 C.3       1 XIN1101     0.0000 
     28 C40         5.1450   12.2490   -8.6840 C.3       1 XIN1101     0.0000 
     29 O33         2.1740   10.9950   -3.1650 O.2       1 XIN1101     0.0000 
     30 N34         3.0970   10.1630   -5.6770 N.4       1 XIN1101     0.0000 
     31 N39         4.7110   11.1130   -7.8520 N.3       1 XIN1101     0.0000 
     32 N29         2.9470    9.1510   -2.2350 N.am      1 XIN1101     0.0000 
     33 C20         3.2150    5.5260   -1.5320 C.ar      1 XIN1101     0.0000 
     34 N8          4.7320    3.8850   -2.1510 N.pl3     1 XIN1101     0.0000 
     35 C14         7.2740    3.5460   -4.4220 C.ar      1 XIN1101     0.0000 
     36 C22         9.2780    4.8910   -4.4040 C.ar      1 XIN1101     0.0000 
     37 C13         7.9760    4.6680   -2.3780 C.ar      1 XIN1101     0.0000 
     38 C28         9.5190   -5.1270   -1.6330 C.3       1 XIN1101     0.0000 
     39 N9          5.1010   -0.2310   -1.2520 N.am      1 XIN1101     0.0000 
     40 O10         3.6470    1.5900   -1.1780 O.2       1 XIN1101     0.0000 
@<TRIPOS>BOND
     1    1    2 1    
     2    1    3 2    
     3    1    4 1    
     4    2    5 ar   
     5    2    6 ar   
     6    3    7 1    
     7    3   34 1    
     8    4   39 am   
     9    4   40 2    
    10    5    8 ar   
    11    5   39 1    
    12    6    9 ar   
    13    7   35 ar   
    14    7   37 ar   
    15    8   11 ar   
    16    9   11 ar   
    17   10   14 ar   
    18   10   33 ar   
    19   10   34 1    
    20   11   15 1    
    21   12   36 ar   
    22   12   37 ar   
    23   13   35 ar   
    24   13   36 ar   
    25   14   16 ar   
    26   15   18 1    
    27   15   19 2    
    28   16   20 ar   
    29   17   20 ar   
    30   17   33 ar   
    31   18   38 1    
    32   20   32 1    
    33   21   23 1    
    34   21   29 2    
    35   21   32 am   
    36   22   32 1    
    37   23   30 1    
    38   24   26 1    
    39   24   30 1    
    40   25   27 1    
    41   25   30 1    
    42   26   31 1    
    43   27   31 1    
    44   28   31 1    
@<TRIPOS>SUBSTRUCTURE
     1 XIN1101     1 GROUP   
@<TRIPOS>SET

