#    Name: 6nkk_2_NAP
#    Modification time : Fri May 22 19:27:16 2020

@<TRIPOS>MOLECULE
6nkk_2_NAP
   48    52     1     0     1
SMALL
NO_CHARGES


@<TRIPOS>ATOM
      1 PA         42.1200   51.8540   26.4580 P.3       1 NAP801      0.0000 
      2 O1A        41.9790   52.0530   24.9680 O.co2     1 NAP801      0.0000 
      3 O2A        43.5840   51.8010   26.8280 O.co2     1 NAP801      0.0000 
      4 O5B        41.4040   53.1080   27.2560 O.3       1 NAP801      0.0000 
      5 C5B        42.1770   53.8180   28.1800 C.3       1 NAP801      0.0000 
      6 C4B        41.8370   55.3320   28.1360 C.3       1 NAP801      0.0000 
      7 O4B        42.1550   55.8860   29.2800 O.3       1 NAP801      0.0000 
      8 C3B        42.7360   56.0110   27.0860 C.3       1 NAP801      0.0000 
      9 O3B        42.1320   57.1110   26.5730 O.3       1 NAP801      0.0000 
     10 C2B        43.9780   56.4000   27.9080 C.3       1 NAP801      0.0000 
     11 O2B        44.7080   57.5270   27.2570 O.3       1 NAP801      0.0000 
     12 C1B        43.4890   56.7780   29.0570 C.3       1 NAP801      0.0000 
     13 N9A        44.4690   56.5560   30.0930 N.pl3     1 NAP801      0.0000 
     14 C8A        45.3840   55.6130   30.3370 C.2       1 NAP801      0.0000 
     15 N7A        46.0290   55.9380   31.4610 N.2       1 NAP801      0.0000 
     16 C5A        45.5160   57.0890   31.9130 C.ar      1 NAP801      0.0000 
     17 C6A        45.8050   57.8630   33.0170 C.ar      1 NAP801      0.0000 
     18 N6A        46.7480   57.7680   34.1140 N.pl3     1 NAP801      0.0000 
     19 N1A        45.1370   58.9810   33.2470 N.ar      1 NAP801      0.0000 
     20 C2A        44.1640   59.3680   32.3890 C.ar      1 NAP801      0.0000 
     21 N3A        43.8780   58.6130   31.3040 N.ar      1 NAP801      0.0000 
     22 C4A        44.5560   57.4740   31.0700 C.ar      1 NAP801      0.0000 
     23 O3         41.3980   50.4340   26.8810 O.3       1 NAP801      0.0000 
     24 PN         39.7880   50.0970   26.7880 P.3       1 NAP801      0.0000 
     25 O1N        39.6210   48.7030   26.2280 O.co2     1 NAP801      0.0000 
     26 O2N        39.0920   51.1000   25.8980 O.co2     1 NAP801      0.0000 
     27 O5D        39.1440   50.1610   28.3060 O.3       1 NAP801      0.0000 
     28 C5D        38.1710   51.1210   28.6060 C.3       1 NAP801      0.0000 
     29 C4D        37.5050   50.7770   29.9680 C.3       1 NAP801      0.0000 
     30 O4D        36.7970   49.6790   29.8830 O.3       1 NAP801      0.0000 
     31 C3D        38.5770   50.4950   31.0460 C.3       1 NAP801      0.0000 
     32 O3D        38.2170   51.0830   32.2160 O.3       1 NAP801      0.0000 
     33 C2D        38.5540   48.9660   31.2040 C.3       1 NAP801      0.0000 
     34 O2D        39.0730   48.5750   32.5510 O.3       1 NAP801      0.0000 
     35 C1D        37.2810   48.7100   31.0850 C.3       1 NAP801      0.0000 
     36 N1N        37.0480   47.3410   30.7130 N.pl3     1 NAP801      0.0000 
     37 C2N        37.4410   46.9070   29.4950 C.ar      1 NAP801      0.0000 
     38 C3N        37.2190   45.5940   29.1220 C.ar      1 NAP801      0.0000 
     39 C7N        37.6740   45.1170   27.7450 C.2       1 NAP801      0.0000 
     40 O7N        37.5280   43.9850   27.4280 O.2       1 NAP801      0.0000 
     41 N7N        38.2910   46.0560   26.8250 N.am      1 NAP801      0.0000 
     42 C4N        36.6030   44.7420   29.9770 C.ar      1 NAP801      0.0000 
     43 C5N        36.2100   45.1780   31.1990 C.ar      1 NAP801      0.0000 
     44 C6N        36.4350   46.4940   31.5710 C.ar      1 NAP801      0.0000 
     45 P2B        46.3460   57.4180   27.1420 P.3       1 NAP801      0.0000 
     46 O1X        46.8530   56.3320   28.0620 O.co2     1 NAP801      0.0000 
     47 O2X        46.7380   57.1150   25.7160 O.co2     1 NAP801      0.0000 
     48 O3X        46.9520   58.7390   27.5360 O.co2     1 NAP801      0.0000 
@<TRIPOS>BOND
     1    1    2 ar   
     2    1    3 ar   
     3    1    4 1    
     4    1   23 1    
     5    4    5 1    
     6    5    6 1    
     7    6    7 1    
     8    6    8 1    
     9    7   12 1    
    10    8    9 1    
    11    8   10 1    
    12   10   11 1    
    13   10   12 1    
    14   11   45 1    
    15   12   13 1    
    16   13   14 1    
    17   13   22 1    
    18   14   15 2    
    19   15   16 1    
    20   16   17 ar   
    21   16   22 ar   
    22   17   18 1    
    23   17   19 ar   
    24   19   20 ar   
    25   20   21 ar   
    26   21   22 ar   
    27   23   24 1    
    28   24   25 ar   
    29   24   26 ar   
    30   24   27 1    
    31   27   28 1    
    32   28   29 1    
    33   29   30 1    
    34   29   31 1    
    35   30   35 1    
    36   31   32 1    
    37   31   33 1    
    38   33   34 1    
    39   33   35 1    
    40   35   36 1    
    41   36   37 ar   
    42   36   44 ar   
    43   37   38 ar   
    44   38   39 1    
    45   38   42 ar   
    46   39   40 2    
    47   39   41 am   
    48   42   43 ar   
    49   43   44 ar   
    50   45   46 ar   
    51   45   47 ar   
    52   45   48 ar   
@<TRIPOS>SUBSTRUCTURE
     1 NAP801      1 GROUP   
@<TRIPOS>SET
ATOM$ORANGE STATIC     ATOMS   COLORGROUP SYSTEM 
42 5 5 6 6 8 8 10 10 12 12 14 14 16 16 17 17 20 \
20 22 22 28 28 29 29 31 31 33 33 35 35 37 37 38 38 39 \
39 42 42 43 43 44 44 

