#    Name: 6nkk_1_NAP
#    Modification time : Fri May 22 19:27:10 2020

@<TRIPOS>MOLECULE
6nkk_1_NAP
   48    52     1     0     1
SMALL
NO_CHARGES


@<TRIPOS>ATOM
      1 PA         15.0430   14.4540   43.8560 P.3       1 NAP801      0.0000 
      2 O1A        15.7990   13.4950   44.7420 O.co2     1 NAP801      0.0000 
      3 O2A        14.2550   13.6840   42.8250 O.co2     1 NAP801      0.0000 
      4 O5B        14.0240   15.3490   44.7880 O.3       1 NAP801      0.0000 
      5 C5B        12.6680   15.3680   44.4620 C.3       1 NAP801      0.0000 
      6 C4B        11.8450   15.3610   45.7750 C.3       1 NAP801      0.0000 
      7 O4B        10.6630   15.8770   45.5630 O.3       1 NAP801      0.0000 
      8 C3B        11.6020   13.8940   46.1750 C.3       1 NAP801      0.0000 
      9 O3B        11.5280   13.7600   47.5240 O.3       1 NAP801      0.0000 
     10 C2B        10.2460   13.5880   45.5200 C.3       1 NAP801      0.0000 
     11 O2B         9.5820   12.4450   46.2140 O.3       1 NAP801      0.0000 
     12 C1B         9.5640   14.6950   45.6480 C.3       1 NAP801      0.0000 
     13 N9A         8.6450   14.7940   44.5440 N.pl3     1 NAP801      0.0000 
     14 C8A         8.7910   14.7860   43.2180 C.2       1 NAP801      0.0000 
     15 N7A         7.5820   14.8930   42.6650 N.2       1 NAP801      0.0000 
     16 C5A         6.6830   14.9620   43.6550 C.ar      1 NAP801      0.0000 
     17 C6A         5.3110   15.0790   43.6440 C.ar      1 NAP801      0.0000 
     18 N6A         4.3130   15.1710   42.6000 N.pl3     1 NAP801      0.0000 
     19 N1A         4.6300   15.1290   44.7760 N.ar      1 NAP801      0.0000 
     20 C2A         5.2950   15.0650   45.9560 C.ar      1 NAP801      0.0000 
     21 N3A         6.6440   14.9500   45.9700 N.ar      1 NAP801      0.0000 
     22 C4A         7.3340   14.9000   44.8160 C.ar      1 NAP801      0.0000 
     23 O3         16.1180   15.4450   43.1050 O.3       1 NAP801      0.0000 
     24 PN         17.0340   16.5310   43.9330 P.3       1 NAP801      0.0000 
     25 O1N        18.4490   16.5170   43.4090 O.co2     1 NAP801      0.0000 
     26 O2N        17.0220   16.2140   45.4080 O.co2     1 NAP801      0.0000 
     27 O5D        16.3480   17.9980   43.6730 O.3       1 NAP801      0.0000 
     28 C5D        15.7950   18.7150   44.7380 C.3       1 NAP801      0.0000 
     29 C4D        15.5240   20.1620   44.2540 C.3       1 NAP801      0.0000 
     30 O4D        16.6450   20.8180   44.1230 O.3       1 NAP801      0.0000 
     31 C3D        14.8940   20.1270   42.8460 C.3       1 NAP801      0.0000 
     32 O3D        13.9700   21.1130   42.7400 O.3       1 NAP801      0.0000 
     33 C2D        16.0760   20.4150   41.9060 C.3       1 NAP801      0.0000 
     34 O2D        15.5880   20.9650   40.6050 O.3       1 NAP801      0.0000 
     35 C1D        16.7610   21.2950   42.5830 C.3       1 NAP801      0.0000 
     36 N1N        18.1440   21.3010   42.1900 N.pl3     1 NAP801      0.0000 
     37 C2N        18.8740   20.1600   42.2030 C.ar      1 NAP801      0.0000 
     38 C3N        20.2050   20.1920   41.8210 C.ar      1 NAP801      0.0000 
     39 C7N        21.0460   18.9160   41.8190 C.2       1 NAP801      0.0000 
     40 O7N        22.1720   18.9560   41.4500 O.2       1 NAP801      0.0000 
     41 N7N        20.4740   17.6580   42.2640 N.am      1 NAP801      0.0000 
     42 C4N        20.7720   21.3630   41.4440 C.ar      1 NAP801      0.0000 
     43 C5N        20.0430   22.5030   41.4350 C.ar      1 NAP801      0.0000 
     44 C6N        18.7130   22.4680   41.8140 C.ar      1 NAP801      0.0000 
     45 P2B         8.9020   11.2850   45.2650 P.3       1 NAP801      0.0000 
     46 O1X         8.7650   11.8000   43.8540 O.co2     1 NAP801      0.0000 
     47 O2X         9.7470   10.0390   45.2650 O.co2     1 NAP801      0.0000 
     48 O3X         7.5450   10.9500   45.8230 O.co2     1 NAP801      0.0000 
@<TRIPOS>BOND
     1    1    2 ar   
     2    1    3 ar   
     3    1    4 1    
     4    1   23 1    
     5    4    5 1    
     6    5    6 1    
     7    6    7 1    
     8    6    8 1    
     9    7   12 1    
    10    8    9 1    
    11    8   10 1    
    12   10   11 1    
    13   10   12 1    
    14   11   45 1    
    15   12   13 1    
    16   13   14 1    
    17   13   22 1    
    18   14   15 2    
    19   15   16 1    
    20   16   17 ar   
    21   16   22 ar   
    22   17   18 1    
    23   17   19 ar   
    24   19   20 ar   
    25   20   21 ar   
    26   21   22 ar   
    27   23   24 1    
    28   24   25 ar   
    29   24   26 ar   
    30   24   27 1    
    31   27   28 1    
    32   28   29 1    
    33   29   30 1    
    34   29   31 1    
    35   30   35 1    
    36   31   32 1    
    37   31   33 1    
    38   33   34 1    
    39   33   35 1    
    40   35   36 1    
    41   36   37 ar   
    42   36   44 ar   
    43   37   38 ar   
    44   38   39 1    
    45   38   42 ar   
    46   39   40 2    
    47   39   41 am   
    48   42   43 ar   
    49   43   44 ar   
    50   45   46 ar   
    51   45   47 ar   
    52   45   48 ar   
@<TRIPOS>SUBSTRUCTURE
     1 NAP801      1 GROUP   
@<TRIPOS>SET
ATOM$ORANGE STATIC     ATOMS   COLORGROUP SYSTEM 
42 5 5 6 6 8 8 10 10 12 12 14 14 16 16 17 17 20 \
20 22 22 28 28 29 29 31 31 33 33 35 35 37 37 38 38 39 \
39 42 42 43 43 44 44 

