#    Name: 6nkk_4_NAP
#    Modification time : Fri May 22 19:27:28 2020

@<TRIPOS>MOLECULE
6nkk_4_NAP
   48    52     1     0     1
SMALL
NO_CHARGES


@<TRIPOS>ATOM
      1 PA         10.4930   -0.4100   31.0470 P.3       1 NAP801      0.0000 
      2 O1A        11.9080   -0.5970   30.6610 O.co2     1 NAP801      0.0000 
      3 O2A        10.2770    0.8670   31.6660 O.co2     1 NAP801      0.0000 
      4 O5B         9.6850   -0.2920   29.7150 O.3       1 NAP801      0.0000 
      5 C5B         8.6580    0.6270   29.5330 C.3       1 NAP801      0.0000 
      6 C4B         8.8270    1.2250   28.1880 C.3       1 NAP801      0.0000 
      7 O4B         7.7030    2.0790   28.1170 O.3       1 NAP801      0.0000 
      8 C3B        10.0540    2.0750   28.1050 C.3       1 NAP801      0.0000 
      9 O3B        10.6490    1.8660   26.8500 O.3       1 NAP801      0.0000 
     10 C2B         9.5040    3.4660   28.2120 C.3       1 NAP801      0.0000 
     11 O2B        10.2690    4.4200   27.5120 O.3       1 NAP801      0.0000 
     12 C1B         8.1290    3.3210   27.6030 C.3       1 NAP801      0.0000 
     13 N9A         7.2310    4.4260   27.9860 N.pl3     1 NAP801      0.0000 
     14 C8A         6.6310    4.6290   29.1400 C.2       1 NAP801      0.0000 
     15 N7A         5.9280    5.7610   29.0770 N.2       1 NAP801      0.0000 
     16 C5A         6.0700    6.2650   27.8710 C.ar      1 NAP801      0.0000 
     17 C6A         5.6030    7.4200   27.1030 C.ar      1 NAP801      0.0000 
     18 N6A         4.7910    8.3280   27.6470 N.pl3     1 NAP801      0.0000 
     19 N1A         5.9990    7.5790   25.8330 N.ar      1 NAP801      0.0000 
     20 C2A         6.8020    6.7040   25.2620 C.ar      1 NAP801      0.0000 
     21 N3A         7.2400    5.6330   25.9160 N.ar      1 NAP801      0.0000 
     22 C4A         6.9200    5.3720   27.1690 C.ar      1 NAP801      0.0000 
     23 O3          9.6300   -1.3840   31.9660 O.3       1 NAP801      0.0000 
     24 PN          9.3310   -2.8290   31.5980 P.3       1 NAP801      0.0000 
     25 O1N         8.8790   -3.7730   32.5810 O.co2     1 NAP801      0.0000 
     26 O2N        10.2620   -3.1130   30.5630 O.co2     1 NAP801      0.0000 
     27 O5D         7.9650   -2.6750   30.9360 O.3       1 NAP801      0.0000 
     28 C5D         7.5550   -3.4690   29.8460 C.3       1 NAP801      0.0000 
     29 C4D         6.0650   -3.8390   29.8240 C.3       1 NAP801      0.0000 
     30 O4D         5.8210   -5.0990   30.3460 O.3       1 NAP801      0.0000 
     31 C3D         5.1540   -2.9820   30.6250 C.3       1 NAP801      0.0000 
     32 O3D         4.0600   -2.8490   29.7750 O.3       1 NAP801      0.0000 
     33 C2D         4.7770   -3.8280   31.7730 C.3       1 NAP801      0.0000 
     34 O2D         3.5300   -3.5210   32.3220 O.3       1 NAP801      0.0000 
     35 C1D         4.6770   -5.1150   31.1030 C.3       1 NAP801      0.0000 
     36 N1N         4.8430   -6.0320   32.1490 N.pl3     1 NAP801      0.0000 
     37 C2N         5.9870   -6.1380   32.8060 C.ar      1 NAP801      0.0000 
     38 C3N         6.1150   -7.0410   33.8500 C.ar      1 NAP801      0.0000 
     39 C7N         7.4040   -7.2010   34.5860 C.2       1 NAP801      0.0000 
     40 O7N         7.4320   -7.9890   35.4530 O.2       1 NAP801      0.0000 
     41 N7N         8.4730   -6.5140   34.2190 N.am      1 NAP801      0.0000 
     42 C4N         5.0340   -7.8140   34.1740 C.ar      1 NAP801      0.0000 
     43 C5N         3.8560   -7.6370   33.4760 C.ar      1 NAP801      0.0000 
     44 C6N         3.8040   -6.7410   32.4570 C.ar      1 NAP801      0.0000 
     45 P2B        11.1320    5.5720   28.0880 P.3       1 NAP801      0.0000 
     46 O1X        10.8620    5.3550   29.5130 O.co2     1 NAP801      0.0000 
     47 O2X        12.4880    5.3830   27.5620 O.co2     1 NAP801      0.0000 
     48 O3X        10.5800    6.7520   27.4180 O.co2     1 NAP801      0.0000 
@<TRIPOS>BOND
     1    1    2 ar   
     2    1    3 ar   
     3    1    4 1    
     4    1   23 1    
     5    4    5 1    
     6    5    6 1    
     7    6    7 1    
     8    6    8 1    
     9    7   12 1    
    10    8    9 1    
    11    8   10 1    
    12   10   11 1    
    13   10   12 1    
    14   11   45 1    
    15   12   13 1    
    16   13   14 1    
    17   13   22 1    
    18   14   15 2    
    19   15   16 1    
    20   16   17 ar   
    21   16   22 ar   
    22   17   18 1    
    23   17   19 ar   
    24   19   20 ar   
    25   20   21 ar   
    26   21   22 ar   
    27   23   24 1    
    28   24   25 ar   
    29   24   26 ar   
    30   24   27 1    
    31   27   28 1    
    32   28   29 1    
    33   29   30 1    
    34   29   31 1    
    35   30   35 1    
    36   31   32 1    
    37   31   33 1    
    38   33   34 1    
    39   33   35 1    
    40   35   36 1    
    41   36   37 ar   
    42   36   44 ar   
    43   37   38 ar   
    44   38   39 1    
    45   38   42 ar   
    46   39   40 2    
    47   39   41 am   
    48   42   43 ar   
    49   43   44 ar   
    50   45   46 ar   
    51   45   47 ar   
    52   45   48 ar   
@<TRIPOS>SUBSTRUCTURE
     1 NAP801      1 GROUP   
@<TRIPOS>SET
ATOM$ORANGE STATIC     ATOMS   COLORGROUP SYSTEM 
42 5 5 6 6 8 8 10 10 12 12 14 14 16 16 17 17 20 \
20 22 22 28 28 29 29 31 31 33 33 35 35 37 37 38 38 39 \
39 42 42 43 43 44 44 

