#    Name: 6nkk_3_NAP
#    Modification time : Fri May 22 19:27:22 2020

@<TRIPOS>MOLECULE
6nkk_3_NAP
   48    52     1     0     1
SMALL
NO_CHARGES


@<TRIPOS>ATOM
      1 PA         33.0910   46.0020   65.4510 P.3       1 NAP801      0.0000 
      2 O1A        32.5320   45.3880   66.7120 O.co2     1 NAP801      0.0000 
      3 O2A        33.8420   47.2670   65.7870 O.co2     1 NAP801      0.0000 
      4 O5B        34.1180   44.9380   64.7210 O.3       1 NAP801      0.0000 
      5 C5B        35.4130   45.3930   64.4410 C.3       1 NAP801      0.0000 
      6 C4B        36.4530   44.2720   64.6900 C.3       1 NAP801      0.0000 
      7 O4B        37.5510   44.5020   64.0160 O.3       1 NAP801      0.0000 
      8 C3B        36.8700   44.3970   66.1620 C.3       1 NAP801      0.0000 
      9 O3B        37.4090   43.2380   66.6180 O.3       1 NAP801      0.0000 
     10 C2B        37.9440   45.4910   66.0970 C.3       1 NAP801      0.0000 
     11 O2B        38.7130   45.4340   67.3790 O.3       1 NAP801      0.0000 
     12 C1B        38.6340   45.1590   65.0350 C.3       1 NAP801      0.0000 
     13 N9A        39.2400   46.3240   64.4310 N.pl3     1 NAP801      0.0000 
     14 C8A        38.8120   47.5580   64.1450 C.2       1 NAP801      0.0000 
     15 N7A        39.8210   48.2290   63.5820 N.2       1 NAP801      0.0000 
     16 C5A        40.8800   47.4110   63.5150 C.ar      1 NAP801      0.0000 
     17 C6A        42.1580   47.5920   63.0330 C.ar      1 NAP801      0.0000 
     18 N6A        42.8710   48.6950   62.4110 N.pl3     1 NAP801      0.0000 
     19 N1A        43.0360   46.6050   63.0760 N.ar      1 NAP801      0.0000 
     20 C2A        42.6760   45.4130   63.6070 C.ar      1 NAP801      0.0000 
     21 N3A        41.4220   45.2310   64.0840 N.ar      1 NAP801      0.0000 
     22 C4A        40.5240   46.2340   64.0370 C.ar      1 NAP801      0.0000 
     23 O3         31.8500   46.3680   64.4300 O.3       1 NAP801      0.0000 
     24 PN         30.8550   45.2720   63.7110 P.3       1 NAP801      0.0000 
     25 O1N        29.4370   45.7880   63.7750 O.co2     1 NAP801      0.0000 
     26 O2N        30.9570   43.9430   64.4190 O.co2     1 NAP801      0.0000 
     27 O5D        31.3060   45.1060   62.1360 O.3       1 NAP801      0.0000 
     28 C5D        31.7820   43.8770   61.6680 C.3       1 NAP801      0.0000 
     29 C4D        31.8270   43.9000   60.1140 C.3       1 NAP801      0.0000 
     30 O4D        30.6190   43.8610   59.6070 O.3       1 NAP801      0.0000 
     31 C3D        32.4520   45.2200   59.6100 C.3       1 NAP801      0.0000 
     32 O3D        33.2370   44.9800   58.5290 O.3       1 NAP801      0.0000 
     33 C2D        31.2440   46.0710   59.1860 C.3       1 NAP801      0.0000 
     34 O2D        31.6920   47.0640   58.1640 O.3       1 NAP801      0.0000 
     35 C1D        30.4310   45.1770   58.6840 C.3       1 NAP801      0.0000 
     36 N1N        29.0500   45.5880   58.7400 N.pl3     1 NAP801      0.0000 
     37 C2N        28.4160   45.7010   59.9320 C.ar      1 NAP801      0.0000 
     38 C3N        27.0850   46.0870   59.9750 C.ar      1 NAP801      0.0000 
     39 C7N        26.3580   46.2250   61.3100 C.2       1 NAP801      0.0000 
     40 O7N        25.2330   46.5950   61.3290 O.2       1 NAP801      0.0000 
     41 N7N        27.0380   45.9060   62.5530 N.am      1 NAP801      0.0000 
     42 C4N        26.4180   46.3470   58.8250 C.ar      1 NAP801      0.0000 
     43 C5N        27.0500   46.2300   57.6340 C.ar      1 NAP801      0.0000 
     44 C6N        28.3800   45.8420   57.5930 C.ar      1 NAP801      0.0000 
     45 P2B        39.3660   46.8070   68.0150 P.3       1 NAP801      0.0000 
     46 O1X        39.4150   47.9190   66.9940 O.co2     1 NAP801      0.0000 
     47 O2X        38.5400   47.2450   69.1990 O.co2     1 NAP801      0.0000 
     48 O3X        40.7620   46.5000   68.4920 O.co2     1 NAP801      0.0000 
@<TRIPOS>BOND
     1    1    2 ar   
     2    1    3 ar   
     3    1    4 1    
     4    1   23 1    
     5    4    5 1    
     6    5    6 1    
     7    6    7 1    
     8    6    8 1    
     9    7   12 1    
    10    8    9 1    
    11    8   10 1    
    12   10   11 1    
    13   10   12 1    
    14   11   45 1    
    15   12   13 1    
    16   13   14 1    
    17   13   22 1    
    18   14   15 2    
    19   15   16 1    
    20   16   17 ar   
    21   16   22 ar   
    22   17   18 1    
    23   17   19 ar   
    24   19   20 ar   
    25   20   21 ar   
    26   21   22 ar   
    27   23   24 1    
    28   24   25 ar   
    29   24   26 ar   
    30   24   27 1    
    31   27   28 1    
    32   28   29 1    
    33   29   30 1    
    34   29   31 1    
    35   30   35 1    
    36   31   32 1    
    37   31   33 1    
    38   33   34 1    
    39   33   35 1    
    40   35   36 1    
    41   36   37 ar   
    42   36   44 ar   
    43   37   38 ar   
    44   38   39 1    
    45   38   42 ar   
    46   39   40 2    
    47   39   41 am   
    48   42   43 ar   
    49   43   44 ar   
    50   45   46 ar   
    51   45   47 ar   
    52   45   48 ar   
@<TRIPOS>SUBSTRUCTURE
     1 NAP801      1 GROUP   
@<TRIPOS>SET
ATOM$ORANGE STATIC     ATOMS   COLORGROUP SYSTEM 
42 5 5 6 6 8 8 10 10 12 12 14 14 16 16 17 17 20 \
20 22 22 28 28 29 29 31 31 33 33 35 35 37 37 38 38 39 \
39 42 42 43 43 44 44 

