#    Name: 6qgt_3_FAD
#    Modification time : Fri May 22 19:31:15 2020

@<TRIPOS>MOLECULE
6qgt_3_FAD
   53    58     1     0     1
SMALL
NO_CHARGES


@<TRIPOS>ATOM
      1 PA        242.1960   26.3720   35.6540 P.3       1 FAD302      0.0000 
      2 O1A       242.8260   25.3970   36.6780 O.co2     1 FAD302      0.0000 
      3 O2A       242.7620   26.2310   34.3160 O.co2     1 FAD302      0.0000 
      4 O5B       242.4370   27.9010   36.0950 O.3       1 FAD302      0.0000 
      5 C5B       242.0880   28.3670   37.3770 C.3       1 FAD302      0.0000 
      6 C4B       241.1750   29.5590   37.2160 C.3       1 FAD302      0.0000 
      7 O4B       240.5450   29.7180   38.3960 O.3       1 FAD302      0.0000 
      8 C3B       241.9300   30.8690   36.9100 C.3       1 FAD302      0.0000 
      9 O3B       241.1110   31.6250   36.1280 O.3       1 FAD302      0.0000 
     10 C2B       241.9920   31.5980   38.2520 C.3       1 FAD302      0.0000 
     11 O2B       242.1200   33.0760   37.9590 O.3       1 FAD302      0.0000 
     12 C1B       240.8180   31.2120   38.8730 C.3       1 FAD302      0.0000 
     13 N9A       240.8740   31.0480   40.2730 N.pl3     1 FAD302      0.0000 
     14 C8A       241.5500   30.0490   40.9810 C.2       1 FAD302      0.0000 
     15 N7A       241.3050   30.3340   42.3950 N.2       1 FAD302      0.0000 
     16 C5A       240.4680   31.5310   42.4480 C.ar      1 FAD302      0.0000 
     17 C6A       239.9310   32.2660   43.4860 C.ar      1 FAD302      0.0000 
     18 N6A       239.9860   32.1190   44.9460 N.pl3     1 FAD302      0.0000 
     19 N1A       239.1610   33.3900   43.2720 N.ar      1 FAD302      0.0000 
     20 C2A       238.8990   33.8250   41.9920 C.ar      1 FAD302      0.0000 
     21 N3A       239.4220   33.1030   40.9280 N.ar      1 FAD302      0.0000 
     22 C4A       240.2260   31.9360   41.1460 C.ar      1 FAD302      0.0000 
     23 N1        233.1810   24.4390   40.7850 N.2       1 FAD302      0.0000 
     24 C2        232.0440   23.5570   40.8490 C.2       1 FAD302      0.0000 
     25 O2        231.7720   22.8360   39.9070 O.2       1 FAD302      0.0000 
     26 N3        231.2660   23.5690   42.0100 N.am      1 FAD302      0.0000 
     27 C4        231.5880   24.4070   43.1260 C.2       1 FAD302      0.0000 
     28 O4        230.9440   24.4070   44.0760 O.2       1 FAD302      0.0000 
     29 C4X       232.7840   25.3020   43.0660 C.2       1 FAD302      0.0000 
     30 N5        233.1050   26.1540   44.2000 N.2       1 FAD302      0.0000 
     31 C5X       234.2700   26.9880   43.9790 C.ar      1 FAD302      0.0000 
     32 C6        234.6340   27.8260   45.0080 C.ar      1 FAD302      0.0000 
     33 C7        235.7520   28.6350   44.8430 C.ar      1 FAD302      0.0000 
     34 C7M       235.7980   29.4090   46.2300 C.3       1 FAD302      0.0000 
     35 C8        236.5230   28.6120   43.6190 C.ar      1 FAD302      0.0000 
     36 C8M       237.7410   29.5860   43.5550 C.3       1 FAD302      0.0000 
     37 C9        236.2020   27.8090   42.5930 C.ar      1 FAD302      0.0000 
     38 C9A       235.0330   26.9630   42.7980 C.ar      1 FAD302      0.0000 
     39 N10       234.6730   26.1020   41.7200 N.pl3     1 FAD302      0.0000 
     40 C10       233.5230   25.2890   41.8900 C.2       1 FAD302      0.0000 
     41 C1'       235.4190   26.0650   40.4380 C.3       1 FAD302      0.0000 
     42 C2'       236.3630   24.9150   40.2290 C.3       1 FAD302      0.0000 
     43 O2'       236.9450   24.6700   41.4510 O.3       1 FAD302      0.0000 
     44 C3'       237.4290   25.3840   39.2500 C.3       1 FAD302      0.0000 
     45 O3'       237.9000   26.5940   39.7400 O.3       1 FAD302      0.0000 
     46 C4'       236.8050   25.6410   37.8540 C.3       1 FAD302      0.0000 
     47 O4'       236.2720   24.4310   37.3670 O.3       1 FAD302      0.0000 
     48 C5'       237.9010   26.1740   36.8940 C.3       1 FAD302      0.0000 
     49 O5'       238.7030   25.0820   36.5800 O.3       1 FAD302      0.0000 
     50 P         239.5600   25.0540   35.2680 P.3       1 FAD302      0.0000 
     51 O1P       238.6720   25.4790   34.0920 O.co2     1 FAD302      0.0000 
     52 O2P       240.3220   23.8130   35.0380 O.co2     1 FAD302      0.0000 
     53 O3P       240.6580   26.2910   35.5790 O.3       1 FAD302      0.0000 
@<TRIPOS>BOND
     1    1    2 ar   
     2    1    3 ar   
     3    1    4 1    
     4    1   53 1    
     5    4    5 1    
     6    5    6 1    
     7    6    7 1    
     8    6    8 1    
     9    7   12 1    
    10    8    9 1    
    11    8   10 1    
    12   10   11 1    
    13   10   12 1    
    14   12   13 1    
    15   13   14 1    
    16   13   22 1    
    17   14   15 2    
    18   15   16 1    
    19   16   17 ar   
    20   16   22 ar   
    21   17   18 1    
    22   17   19 ar   
    23   19   20 ar   
    24   20   21 ar   
    25   21   22 ar   
    26   23   24 1    
    27   23   40 2    
    28   24   25 2    
    29   24   26 am   
    30   26   27 am   
    31   27   28 2    
    32   27   29 1    
    33   29   30 2    
    34   29   40 1    
    35   30   31 1    
    36   31   32 ar   
    37   31   38 ar   
    38   32   33 ar   
    39   33   34 1    
    40   33   35 ar   
    41   35   36 1    
    42   35   37 ar   
    43   37   38 ar   
    44   38   39 1    
    45   39   40 1    
    46   39   41 1    
    47   41   42 1    
    48   42   43 1    
    49   42   44 1    
    50   44   45 1    
    51   44   46 1    
    52   46   47 1    
    53   46   48 1    
    54   48   49 1    
    55   49   50 1    
    56   50   51 ar   
    57   50   52 ar   
    58   50   53 1    
@<TRIPOS>SUBSTRUCTURE
     1 FAD302      1 GROUP   
@<TRIPOS>SET
ATOM$ORANGE STATIC     ATOMS   COLORGROUP SYSTEM 
54 5 5 6 6 8 8 10 10 12 12 14 14 16 16 17 17 20 \
20 22 22 24 24 27 27 29 29 31 31 32 32 33 33 34 34 35 \
35 36 36 37 37 38 38 40 40 41 41 42 42 44 44 46 46 48 \
48 

