#    Name: 6ct6_1_OXM_CAVITY_N1_6
#    Modification time : Fri May 22 19:28:28 2020

@<TRIPOS>MOLECULE
6ct6_1_OXM_CAVITY_N1_6
    6     0     4     0     0
SMALL
NO_CHARGES


@<TRIPOS>ATOM
      1 OG         -7.1700   91.6500   24.5900 O.3       1 SER1        0.0000 
      2 N          -6.2900   89.3100   23.9000 N.am      2 ALA2        0.0000 
      3 O          -5.4300   90.4600   24.3500 O.2       2 ALA2        0.0000 
      4 O          -6.3100   92.8000   25.0400 O.2       2 ALA2        0.0000 
      5 CZ         -5.4600   93.9500   25.4800 C.ar      3 PHE5        0.0000 
      6 DU         -8.0200   90.5100   24.1500 H         4 CUB7        0.0000 
@<TRIPOS>BOND
@<TRIPOS>SUBSTRUCTURE
     1 SER1        1 GROUP   
     2 ALA2        2 GROUP   
     3 PHE5        5 GROUP   
     4 CUB7        6 GROUP   
@<TRIPOS>SET

