#    Name: 6ct6_1_OXM_CAVITY_N1_ALL
#    Modification time : Fri May 22 19:28:28 2020

@<TRIPOS>MOLECULE
6ct6_1_OXM_CAVITY_N1_ALL
   97     0     7     0     0
SMALL
NO_CHARGES


@<TRIPOS>ATOM
      1 OG         -7.1700   91.6500   24.5900 O.3       1 SER1        0.0000 
      2 OG         -8.9000   92.8500   24.8400 O.3       1 SER1        0.0000 
      3 OG        -10.6400   94.0500   25.0900 O.3       1 SER1        0.0000 
      4 OG         -9.9500   94.5400   27.5400 O.3       1 SER1        0.0000 
      5 N          -6.2900   89.3100   23.9000 N.am      2 ALA2        0.0000 
      6 N          -8.1900   89.8500   26.1600 N.am      2 ALA2        0.0000 
      7 O          -5.4300   90.4600   24.3500 O.2       2 ALA2        0.0000 
      8 N          -5.6000   89.8000   26.3600 N.am      2 ALA2        0.0000 
      9 N          -6.3800   90.7300   25.4700 N.am      2 ALA2        0.0000 
     10 N          -6.5500   90.0700   27.4900 N.am      2 ALA2        0.0000 
     11 N          -8.1200   91.9300   25.7200 N.am      2 ALA2        0.0000 
     12 O          -6.3100   92.8000   25.0400 O.2       2 ALA2        0.0000 
     13 N          -5.6900   91.2200   27.9300 N.am      2 ALA2        0.0000 
     14 N          -6.4800   92.1500   27.0500 N.am      2 ALA2        0.0000 
     15 N          -7.2600   93.0700   26.1700 N.am      2 ALA2        0.0000 
     16 N          -5.8600   90.5700   29.9400 N.am      2 ALA2        0.0000 
     17 N          -8.2100   93.3500   27.2900 N.am      2 ALA2        0.0000 
     18 N          -9.1600   93.6200   28.4200 N.am      2 ALA2        0.0000 
     19 N          -5.6200   93.3000   27.4900 N.am      2 ALA2        0.0000 
     20 N          -5.7900   92.6400   29.5000 N.am      2 ALA2        0.0000 
     21 N          -6.5700   93.5700   28.6200 N.am      2 ALA2        0.0000 
     22 O          -7.3600   94.4900   27.7400 O.2       2 ALA2        0.0000 
     23 O          -5.1700   91.0600   32.4000 O.2       2 ALA2        0.0000 
     24 O          -8.3000   94.7700   28.8700 O.2       2 ALA2        0.0000 
     25 O          -9.0900   95.6900   27.9900 O.2       2 ALA2        0.0000 
     26 O          -5.5500   95.3700   27.0500 O.2       2 ALA2        0.0000 
     27 N          -2.5800   91.0200   32.5900 N.am      2 ALA2        0.0000 
     28 O          -6.5000   95.6400   28.1800 O.2       2 ALA2        0.0000 
     29 O          -7.4500   95.9100   29.3100 O.2       2 ALA2        0.0000 
     30 N          -4.8600   95.8700   29.5100 N.am      2 ALA2        0.0000 
     31 O          -5.6400   96.7900   28.6300 O.2       2 ALA2        0.0000 
     32 N          -3.0500   96.7400   28.8300 N.am      2 ALA2        0.0000 
     33 N          -4.0000   97.0200   29.9500 N.am      2 ALA2        0.0000 
     34 OD1        -2.5100   93.0900   32.1600 O.co2     3 ASP3        0.0000 
     35 OD1        -3.2900   94.0200   31.2700 O.co2     3 ASP3        0.0000 
     36 OD1        -4.0700   94.9400   30.3900 O.co2     3 ASP3        0.0000 
     37 OD1        -2.2700   95.8200   29.7100 O.co2     3 ASP3        0.0000 
     38 OD1        -3.2200   96.0900   30.8400 O.co2     3 ASP3        0.0000 
     39 NZ         -7.3100   87.5100   25.4700 N.4       4 LYS4        0.0000 
     40 NZ         -6.4600   88.6500   25.9100 N.4       4 LYS4        0.0000 
     41 NZ         -5.7700   89.1500   28.3700 N.4       4 LYS4        0.0000 
     42 NZ         -4.9100   90.3000   28.8100 N.4       4 LYS4        0.0000 
     43 NZ         -5.0800   89.6400   30.8200 N.4       4 LYS4        0.0000 
     44 NZ         -2.4900   89.6000   31.0200 N.4       4 LYS4        0.0000 
     45 NZ         -3.2700   90.5200   30.1400 N.4       4 LYS4        0.0000 
     46 NZ         -4.0500   91.4500   29.2600 N.4       4 LYS4        0.0000 
     47 NZ         -3.4300   89.8700   32.1500 N.4       4 LYS4        0.0000 
     48 NZ         -4.2200   90.7900   31.2700 N.4       4 LYS4        0.0000 
     49 NZ         -2.4100   91.6700   30.5800 N.4       4 LYS4        0.0000 
     50 CZ         -4.7400   90.9500   26.8000 C.ar      5 PHE5        0.0000 
     51 CZ         -5.5300   91.8800   25.9200 C.ar      5 PHE5        0.0000 
     52 CZ         -3.1000   91.1800   28.1300 C.ar      5 PHE5        0.0000 
     53 CZ         -3.8900   92.1000   27.2500 C.ar      5 PHE5        0.0000 
     54 CZ         -4.6700   93.0300   26.3600 C.ar      5 PHE5        0.0000 
     55 CZ         -5.4600   93.9500   25.4800 C.ar      5 PHE5        0.0000 
     56 CZ         -4.8400   92.3700   28.3700 C.ar      5 PHE5        0.0000 
     57 CZ         -3.0300   93.2500   27.6900 C.ar      5 PHE5        0.0000 
     58 CZ         -3.8200   94.1800   26.8100 C.ar      5 PHE5        0.0000 
     59 CA         -7.4100   88.9300   27.0400 C.3       6 GLY6        0.0000 
     60 CA         -8.9700   90.7800   25.2800 C.3       6 GLY6        0.0000 
     61 CA         -9.7600   91.7000   24.3900 C.3       6 GLY6        0.0000 
     62 CA         -9.8500   93.1200   25.9700 C.3       6 GLY6        0.0000 
     63 CA         -9.0000   94.2700   26.4100 C.3       6 GLY6        0.0000 
     64 CA         -6.4100   94.2200   26.6100 C.3       6 GLY6        0.0000 
     65 CA         -5.0000   91.7200   30.3900 C.3       6 GLY6        0.0000 
     66 CA         -5.9500   91.9900   31.5100 C.3       6 GLY6        0.0000 
     67 CA         -7.5200   93.8400   29.7500 C.3       6 GLY6        0.0000 
     68 CA         -1.4600   91.4000   29.4500 C.3       6 GLY6        0.0000 
     69 CA         -2.2500   92.3200   28.5700 C.3       6 GLY6        0.0000 
     70 CA         -4.6000   95.1000   25.9300 C.3       6 GLY6        0.0000 
     71 CA         -4.3100   92.2100   32.8400 C.3       6 GLY6        0.0000 
     72 CA         -5.1000   93.1400   31.9600 C.3       6 GLY6        0.0000 
     73 CA         -5.8800   94.0600   31.0800 C.3       6 GLY6        0.0000 
     74 CA         -6.6600   94.9900   30.1900 C.3       6 GLY6        0.0000 
     75 CA         -2.1700   94.4000   28.1300 C.3       6 GLY6        0.0000 
     76 CA         -2.9600   95.3200   27.2500 C.3       6 GLY6        0.0000 
     77 CA         -3.9100   95.6000   28.3800 C.3       6 GLY6        0.0000 
     78 CA         -4.2400   94.2900   32.4000 C.3       6 GLY6        0.0000 
     79 CA         -5.0200   95.2100   31.5200 C.3       6 GLY6        0.0000 
     80 CA         -5.8100   96.1400   30.6400 C.3       6 GLY6        0.0000 
     81 CA         -6.5900   97.0600   29.7600 C.3       6 GLY6        0.0000 
     82 CA         -0.3700   95.2800   27.4500 C.3       6 GLY6        0.0000 
     83 CA         -1.3200   95.5500   28.5800 C.3       6 GLY6        0.0000 
     84 CA         -2.1000   96.4700   27.7000 C.3       6 GLY6        0.0000 
     85 CA         -4.1700   96.3600   31.9700 C.3       6 GLY6        0.0000 
     86 CA         -1.2500   97.6200   28.1400 C.3       6 GLY6        0.0000 
     87 DU         -8.1000   88.4300   24.5900 H         7 CUB7        0.0000 
     88 DU         -7.2400   89.5800   25.0300 H         7 CUB7        0.0000 
     89 DU         -8.0200   90.5100   24.1500 H         7 CUB7        0.0000 
     90 DU         -3.2000   92.6000   29.7000 H         7 CUB7        0.0000 
     91 DU         -3.9800   93.5200   28.8200 H         7 CUB7        0.0000 
     92 DU         -4.7600   94.4500   27.9400 H         7 CUB7        0.0000 
     93 DU         -3.3600   91.9400   31.7100 H         7 CUB7        0.0000 
     94 DU         -4.1500   92.8700   30.8300 H         7 CUB7        0.0000 
     95 DU         -4.9300   93.7900   29.9500 H         7 CUB7        0.0000 
     96 DU         -5.7100   94.7200   29.0700 H         7 CUB7        0.0000 
     97 DU         -3.1200   94.6700   29.2600 H         7 CUB7        0.0000 
@<TRIPOS>BOND
@<TRIPOS>SUBSTRUCTURE
     1 SER1        1 GROUP   
     2 ALA2        5 GROUP   
     3 ASP3       34 GROUP   
     4 LYS4       39 GROUP   
     5 PHE5       50 GROUP   
     6 GLY6       59 GROUP   
     7 CUB7       87 GROUP   
@<TRIPOS>SET

