#    Name: 6ct6_1_OXM_CAVITY_N1_8
#    Modification time : Fri May 22 19:28:28 2020

@<TRIPOS>MOLECULE
6ct6_1_OXM_CAVITY_N1_8
   30     0     6     0     0
SMALL
NO_CHARGES


@<TRIPOS>ATOM
      1 OG         -7.1700   91.6500   24.5900 O.3       1 SER1        0.0000 
      2 OG         -8.9000   92.8500   24.8400 O.3       1 SER1        0.0000 
      3 OG        -10.6400   94.0500   25.0900 O.3       1 SER1        0.0000 
      4 N          -6.2900   89.3100   23.9000 N.am      2 ALA2        0.0000 
      5 N          -8.1900   89.8500   26.1600 N.am      2 ALA2        0.0000 
      6 O          -5.4300   90.4600   24.3500 O.2       2 ALA2        0.0000 
      7 N          -5.6000   89.8000   26.3600 N.am      2 ALA2        0.0000 
      8 N          -6.3800   90.7300   25.4700 N.am      2 ALA2        0.0000 
      9 N          -8.1200   91.9300   25.7200 N.am      2 ALA2        0.0000 
     10 O          -6.3100   92.8000   25.0400 O.2       2 ALA2        0.0000 
     11 N          -6.4800   92.1500   27.0500 N.am      2 ALA2        0.0000 
     12 N          -7.2600   93.0700   26.1700 N.am      2 ALA2        0.0000 
     13 N          -5.6200   93.3000   27.4900 N.am      2 ALA2        0.0000 
     14 O          -5.5500   95.3700   27.0500 O.2       2 ALA2        0.0000 
     15 NZ         -6.4600   88.6500   25.9100 N.4       3 LYS4        0.0000 
     16 CZ         -4.7400   90.9500   26.8000 C.ar      4 PHE5        0.0000 
     17 CZ         -5.5300   91.8800   25.9200 C.ar      4 PHE5        0.0000 
     18 CZ         -3.8900   92.1000   27.2500 C.ar      4 PHE5        0.0000 
     19 CZ         -4.6700   93.0300   26.3600 C.ar      4 PHE5        0.0000 
     20 CZ         -5.4600   93.9500   25.4800 C.ar      4 PHE5        0.0000 
     21 CZ         -3.8200   94.1800   26.8100 C.ar      4 PHE5        0.0000 
     22 CA         -8.9700   90.7800   25.2800 C.3       5 GLY6        0.0000 
     23 CA         -9.7600   91.7000   24.3900 C.3       5 GLY6        0.0000 
     24 CA         -9.8500   93.1200   25.9700 C.3       5 GLY6        0.0000 
     25 CA         -9.0000   94.2700   26.4100 C.3       5 GLY6        0.0000 
     26 CA         -6.4100   94.2200   26.6100 C.3       5 GLY6        0.0000 
     27 CA         -4.6000   95.1000   25.9300 C.3       5 GLY6        0.0000 
     28 DU         -8.1000   88.4300   24.5900 H         6 CUB7        0.0000 
     29 DU         -7.2400   89.5800   25.0300 H         6 CUB7        0.0000 
     30 DU         -8.0200   90.5100   24.1500 H         6 CUB7        0.0000 
@<TRIPOS>BOND
@<TRIPOS>SUBSTRUCTURE
     1 SER1        1 GROUP   
     2 ALA2        4 GROUP   
     3 LYS4       15 GROUP   
     4 PHE5       16 GROUP   
     5 GLY6       22 GROUP   
     6 CUB7       28 GROUP   
@<TRIPOS>SET

