#    Name: 6npy_1_ADP
#    Modification time : Fri May 22 19:25:00 2020

@<TRIPOS>MOLECULE
6npy_1_ADP
   27    29     1     0     1
SMALL
NO_CHARGES


@<TRIPOS>ATOM
      1 PB         87.0150   95.5750   91.6000 P.3       1 ADP1101     0.0000 
      2 O1B        87.3310   96.6840   90.6400 O.co2     1 ADP1101     0.0000 
      3 O2B        86.6860   94.2500   90.9630 O.co2     1 ADP1101     0.0000 
      4 O3B        87.9420   95.4480   92.7740 O.co2     1 ADP1101     0.0000 
      5 PA         84.3100   96.2770   91.4870 P.3       1 ADP1101     0.0000 
      6 O1A        84.5760   97.4150   90.5410 O.co2     1 ADP1101     0.0000 
      7 O2A        83.8750   94.9470   90.9360 O.co2     1 ADP1101     0.0000 
      8 O3A        85.6580   96.0400   92.3220 O.3       1 ADP1101     0.0000 
      9 O5'        83.2660   96.6840   92.6520 O.3       1 ADP1101     0.0000 
     10 C5'        81.8530   96.5510   92.4610 C.3       1 ADP1101     0.0000 
     11 C4'        81.0340   96.4270   93.7500 C.3       1 ADP1101     0.0000 
     12 O4'        81.0270   97.6290   94.5250 O.3       1 ADP1101     0.0000 
     13 C3'        79.5950   96.1330   93.3940 C.3       1 ADP1101     0.0000 
     14 O3'        79.1400   94.9940   94.1180 O.3       1 ADP1101     0.0000 
     15 C2'        78.8040   97.3400   93.8260 C.3       1 ADP1101     0.0000 
     16 O2'        77.6780   96.9360   94.5980 O.3       1 ADP1101     0.0000 
     17 C1'        79.7240   98.1890   94.6700 C.3       1 ADP1101     0.0000 
     18 N9         79.8000   99.5210   94.0470 N.pl3     1 ADP1101     0.0000 
     19 C8         80.9540  100.0690   93.6710 C.2       1 ADP1101     0.0000 
     20 N7         80.7770  101.2850   93.1130 N.2       1 ADP1101     0.0000 
     21 C5         79.4690  101.5380   93.1350 C.ar      1 ADP1101     0.0000 
     22 C6         78.6190  102.6610   92.7040 C.ar      1 ADP1101     0.0000 
     23 N6         79.1630  103.7580   92.1330 N.pl3     1 ADP1101     0.0000 
     24 N1         77.2920  102.5550   92.9050 N.ar      1 ADP1101     0.0000 
     25 C2         76.7610  101.4630   93.4780 C.ar      1 ADP1101     0.0000 
     26 N3         77.4790  100.4070   93.8900 N.ar      1 ADP1101     0.0000 
     27 C4         78.8210  100.3780   93.7540 C.ar      1 ADP1101     0.0000 
@<TRIPOS>BOND
     1    1    2 ar   
     2    1    3 ar   
     3    1    4 ar   
     4    1    8 1    
     5    5    6 ar   
     6    5    7 ar   
     7    5    8 1    
     8    5    9 1    
     9    9   10 1    
    10   10   11 1    
    11   11   12 1    
    12   11   13 1    
    13   12   17 1    
    14   13   14 1    
    15   13   15 1    
    16   15   16 1    
    17   15   17 1    
    18   17   18 1    
    19   18   19 1    
    20   18   27 1    
    21   19   20 2    
    22   20   21 1    
    23   21   22 ar   
    24   21   27 ar   
    25   22   23 1    
    26   22   24 ar   
    27   24   25 ar   
    28   25   26 ar   
    29   26   27 ar   
@<TRIPOS>SUBSTRUCTURE
     1 ADP1101     1 GROUP   
@<TRIPOS>SET
ATOM$ORANGE STATIC     ATOMS   COLORGROUP SYSTEM 
20 10 10 11 11 13 13 15 15 17 17 19 19 21 21 22 22 25 \
25 27 27 

