#    Name: 6b50_1_OAQ
#    Modification time : Fri May 22 19:24:49 2020

@<TRIPOS>MOLECULE
6b50_1_OAQ
   20    21     1     0     0
SMALL
NO_CHARGES


@<TRIPOS>ATOM
      1 C1        112.3220    7.4970   14.6880 C.ar      1 OAQ302      0.0000 
      2 C2        112.8150    8.0140   13.4890 C.ar      1 OAQ302      0.0000 
      3 C3        112.0600    8.9870   12.8250 C.ar      1 OAQ302      0.0000 
      4 C4        110.8550    9.4470   13.3410 C.ar      1 OAQ302      0.0000 
      5 C5        110.3700    8.9200   14.5270 C.ar      1 OAQ302      0.0000 
      6 C6        111.1030    7.9450   15.2040 C.ar      1 OAQ302      0.0000 
      7 C7        108.4510    8.5960   16.0840 C.3       1 OAQ302      0.0000 
      8 C8        109.1210    7.2450   16.2720 C.3       1 OAQ302      0.0000 
      9 C9        110.6200    7.4160   16.4010 C.3       1 OAQ302      0.0000 
     10 C10       114.0490    7.5720   12.9680 C.3       1 OAQ302      0.0000 
     11 C11       108.2910    9.3220   17.4310 C.3       1 OAQ302      0.0000 
     12 C12       107.0480    7.5200   19.5700 C.3       1 OAQ302      0.0000 
     13 C13       105.0860    9.0250   19.4740 C.3       1 OAQ302      0.0000 
     14 C14       106.5890    8.9260   19.1970 C.3       1 OAQ302      0.0000 
     15 N1        109.1400    9.3780   15.0250 N.pl3     1 OAQ302      0.0000 
     16 N2        112.5350    9.4910   11.6790 N.pl3     1 OAQ302      0.0000 
     17 N3        106.8590    9.2570   17.7850 N.4       1 OAQ302      0.0000 
     18 O1        112.6650   10.8360   11.5800 O.2       1 OAQ302      0.0000 
     19 O2        112.8230    8.5710   10.4890 O.2       1 OAQ302      0.0000 
     20 O3        114.6010    6.5040   13.7640 O.3       1 OAQ302      0.0000 
@<TRIPOS>BOND
     1    1    2 ar   
     2    1    6 ar   
     3    2    3 ar   
     4    2   10 1    
     5    3    4 ar   
     6    3   16 1    
     7    4    5 ar   
     8    5    6 ar   
     9    5   15 1    
    10    6    9 1    
    11    7    8 1    
    12    7   11 1    
    13    7   15 1    
    14    8    9 1    
    15   10   20 1    
    16   11   17 1    
    17   12   14 1    
    18   13   14 1    
    19   14   17 1    
    20   16   18 2    
    21   16   19 2    
@<TRIPOS>SUBSTRUCTURE
     1 OAQ302      1 GROUP   
@<TRIPOS>SET

