#    Name: 5zzs_1_FMN
#    Modification time : Fri May 22 19:23:38 2020

@<TRIPOS>MOLECULE
5zzs_1_FMN
   31    33     1     0     1
SMALL
NO_CHARGES


@<TRIPOS>ATOM
      1 N1         -9.0640  -29.5440  -33.7280 N.2       1 FMN404      0.0000 
      2 C2         -9.2240  -30.7420  -34.3580 C.2       1 FMN404      0.0000 
      3 O2         -9.2150  -30.7990  -35.6040 O.2       1 FMN404      0.0000 
      4 N3         -9.3190  -31.9180  -33.6190 N.am      1 FMN404      0.0000 
      5 C4         -9.2520  -31.8820  -32.2520 C.2       1 FMN404      0.0000 
      6 O4         -9.3600  -32.9760  -31.5620 O.2       1 FMN404      0.0000 
      7 C4A        -9.1320  -30.6590  -31.5870 C.2       1 FMN404      0.0000 
      8 N5         -9.0890  -30.5480  -30.2070 N.2       1 FMN404      0.0000 
      9 C5A        -8.9410  -29.3270  -29.6090 C.ar      1 FMN404      0.0000 
     10 C6         -8.8640  -29.2320  -28.2240 C.ar      1 FMN404      0.0000 
     11 C7         -8.7830  -28.0050  -27.6020 C.ar      1 FMN404      0.0000 
     12 C7M        -8.7360  -27.8740  -26.0760 C.3       1 FMN404      0.0000 
     13 C8         -8.7720  -26.8310  -28.3620 C.ar      1 FMN404      0.0000 
     14 C8M        -8.7110  -25.4810  -27.7170 C.3       1 FMN404      0.0000 
     15 C9         -8.8450  -26.9070  -29.7630 C.ar      1 FMN404      0.0000 
     16 C9A        -8.9040  -28.1360  -30.3910 C.ar      1 FMN404      0.0000 
     17 N10        -8.9440  -28.2660  -31.7810 N.pl3     1 FMN404      0.0000 
     18 C10        -9.0530  -29.4930  -32.3670 C.2       1 FMN404      0.0000 
     19 C1'        -8.9280  -27.0290  -32.6750 C.3       1 FMN404      0.0000 
     20 C2'       -10.3650  -26.4780  -32.8180 C.3       1 FMN404      0.0000 
     21 O2'       -11.1650  -27.3170  -33.6070 O.3       1 FMN404      0.0000 
     22 C3'       -10.3520  -25.0840  -33.4240 C.3       1 FMN404      0.0000 
     23 O3'        -9.6840  -25.1840  -34.7030 O.3       1 FMN404      0.0000 
     24 C4'        -9.6180  -24.0130  -32.6270 C.3       1 FMN404      0.0000 
     25 O4'        -9.8210  -24.1730  -31.2030 O.3       1 FMN404      0.0000 
     26 C5'        -9.9220  -22.5890  -33.0880 C.3       1 FMN404      0.0000 
     27 O5'       -11.2120  -22.1790  -32.7650 O.3       1 FMN404      0.0000 
     28 P         -11.5360  -21.2510  -31.3930 P.3       1 FMN404      0.0000 
     29 O1P       -11.2350  -22.1260  -30.1900 O.co2     1 FMN404      0.0000 
     30 O2P       -10.6890  -20.0040  -31.3630 O.co2     1 FMN404      0.0000 
     31 O3P       -12.9700  -20.9670  -31.5870 O.co2     1 FMN404      0.0000 
@<TRIPOS>BOND
     1    1    2 1    
     2    1   18 2    
     3    2    3 2    
     4    2    4 am   
     5    4    5 am   
     6    5    6 2    
     7    5    7 1    
     8    7    8 2    
     9    7   18 1    
    10    8    9 1    
    11    9   10 ar   
    12    9   16 ar   
    13   10   11 ar   
    14   11   12 1    
    15   11   13 ar   
    16   13   14 1    
    17   13   15 ar   
    18   15   16 ar   
    19   16   17 1    
    20   17   18 1    
    21   17   19 1    
    22   19   20 1    
    23   20   21 1    
    24   20   22 1    
    25   22   23 1    
    26   22   24 1    
    27   24   25 1    
    28   24   26 1    
    29   26   27 1    
    30   27   28 1    
    31   28   29 ar   
    32   28   30 ar   
    33   28   31 ar   
@<TRIPOS>SUBSTRUCTURE
     1 FMN404      1 GROUP   
@<TRIPOS>SET
ATOM$ORANGE STATIC     ATOMS   COLORGROUP SYSTEM 
34 2 2 5 5 7 7 9 9 10 10 11 11 12 12 13 13 14 \
14 15 15 16 16 18 18 19 19 20 20 22 22 24 24 26 26 

