#    Name: 6p0y_1_ADP
#    Modification time : Fri May 22 19:28:02 2020

@<TRIPOS>MOLECULE
6p0y_1_ADP
   27    29     1     0     1
SMALL
NO_CHARGES


@<TRIPOS>ATOM
      1 PB        108.9220   41.6580    6.8370 P.3       1 ADP601      0.0000 
      2 O1B       109.8580   41.3560    5.6800 O.co2     1 ADP601      0.0000 
      3 O2B       109.7520   42.3350    7.9470 O.co2     1 ADP601      0.0000 
      4 O3B       107.7180   42.4600    6.4630 O.co2     1 ADP601      0.0000 
      5 PA        107.8090   39.8190    8.7670 P.3       1 ADP601      0.0000 
      6 O1A       107.6820   38.3120    8.7370 O.co2     1 ADP601      0.0000 
      7 O2A       106.5750   40.6010    9.0120 O.co2     1 ADP601      0.0000 
      8 O3A       108.4710   40.2320    7.3830 O.3       1 ADP601      0.0000 
      9 O5'       108.9870   40.2510    9.7740 O.3       1 ADP601      0.0000 
     10 C5'       109.7090   39.4330   10.7190 C.3       1 ADP601      0.0000 
     11 C4'       111.1870   39.4160   10.4020 C.3       1 ADP601      0.0000 
     12 O4'       111.7510   38.1580   10.8360 O.3       1 ADP601      0.0000 
     13 C3'       111.5700   39.5650    8.9290 C.3       1 ADP601      0.0000 
     14 O3'       111.8420   40.9240    8.6080 O.3       1 ADP601      0.0000 
     15 C2'       112.8460   38.7280    8.8220 C.3       1 ADP601      0.0000 
     16 O2'       113.9920   39.4820    9.2030 O.3       1 ADP601      0.0000 
     17 C1'       112.5570   37.5990    9.8160 C.3       1 ADP601      0.0000 
     18 N9        111.8540   36.4500    9.2470 N.pl3     1 ADP601      0.0000 
     19 C8        110.5000   36.2820    9.1150 C.2       1 ADP601      0.0000 
     20 N7        110.1520   35.1470    8.5570 N.2       1 ADP601      0.0000 
     21 C5        111.3630   34.5220    8.3010 C.ar      1 ADP601      0.0000 
     22 C6        111.6890   33.2840    7.7070 C.ar      1 ADP601      0.0000 
     23 N6        110.7830   32.3980    7.2820 N.pl3     1 ADP601      0.0000 
     24 N1        112.9980   32.9730    7.5800 N.ar      1 ADP601      0.0000 
     25 C2        113.9130   33.8420    8.0260 C.ar      1 ADP601      0.0000 
     26 N3        113.7260   35.0300    8.6120 N.ar      1 ADP601      0.0000 
     27 C4        112.4220   35.3140    8.7200 C.ar      1 ADP601      0.0000 
@<TRIPOS>BOND
     1    1    2 ar   
     2    1    3 ar   
     3    1    4 ar   
     4    1    8 1    
     5    5    6 ar   
     6    5    7 ar   
     7    5    8 1    
     8    5    9 1    
     9    9   10 1    
    10   10   11 1    
    11   11   12 1    
    12   11   13 1    
    13   12   17 1    
    14   13   14 1    
    15   13   15 1    
    16   15   16 1    
    17   15   17 1    
    18   17   18 1    
    19   18   19 1    
    20   18   27 1    
    21   19   20 2    
    22   20   21 1    
    23   21   22 ar   
    24   21   27 ar   
    25   22   23 1    
    26   22   24 ar   
    27   24   25 ar   
    28   25   26 ar   
    29   26   27 ar   
@<TRIPOS>SUBSTRUCTURE
     1 ADP601      1 GROUP   
@<TRIPOS>SET
ATOM$ORANGE STATIC     ATOMS   COLORGROUP SYSTEM 
20 10 10 11 11 13 13 15 15 17 17 19 19 21 21 22 22 25 \
25 27 27 

