#    Name: 6c9j_2_AMP
#    Modification time : Fri May 22 19:26:55 2020

@<TRIPOS>MOLECULE
6c9j_2_AMP
   23    25     1     0     1
SMALL
NO_CHARGES


@<TRIPOS>ATOM
      1 P         -34.3440   70.6650   20.0050 P.3       1 AMP401      0.0000 
      2 O1P       -33.9110   70.1880   18.6410 O.co2     1 AMP401      0.0000 
      3 O2P       -34.2400   69.6210   21.0900 O.co2     1 AMP401      0.0000 
      4 O3P       -35.6200   71.4720   20.0170 O.co2     1 AMP401      0.0000 
      5 O5'       -33.2040   71.7030   20.4000 O.3       1 AMP401      0.0000 
      6 C5'       -33.1560   73.0040   19.8250 C.3       1 AMP401      0.0000 
      7 C4'       -32.7120   74.0350   20.8330 C.3       1 AMP401      0.0000 
      8 O4'       -33.7370   74.1800   21.8540 O.3       1 AMP401      0.0000 
      9 C3'       -31.4190   73.6950   21.5730 C.3       1 AMP401      0.0000 
     10 O3'       -30.6800   74.8920   21.8110 O.3       1 AMP401      0.0000 
     11 C2'       -31.9230   73.1280   22.8990 C.3       1 AMP401      0.0000 
     12 O2'       -31.0140   73.2280   23.9750 O.3       1 AMP401      0.0000 
     13 C1'       -33.1720   73.9680   23.1330 C.3       1 AMP401      0.0000 
     14 N9        -34.1820   73.3240   23.9740 N.pl3     1 AMP401      0.0000 
     15 C8        -34.6280   72.0600   23.8550 C.2       1 AMP401      0.0000 
     16 N7        -35.5700   71.7900   24.7960 N.2       1 AMP401      0.0000 
     17 C5        -35.7360   72.9020   25.5380 C.ar      1 AMP401      0.0000 
     18 C6        -36.5740   73.3030   26.6940 C.ar      1 AMP401      0.0000 
     19 N6        -37.4490   72.4340   27.2590 N.pl3     1 AMP401      0.0000 
     20 N1        -36.4350   74.5640   27.1640 N.ar      1 AMP401      0.0000 
     21 C2        -35.5720   75.4370   26.6120 C.ar      1 AMP401      0.0000 
     22 N3        -34.7830   75.1400   25.5640 N.ar      1 AMP401      0.0000 
     23 C4        -34.8170   73.9110   24.9930 C.ar      1 AMP401      0.0000 
@<TRIPOS>BOND
     1    1    2 ar   
     2    1    3 ar   
     3    1    4 ar   
     4    1    5 1    
     5    5    6 1    
     6    6    7 1    
     7    7    8 1    
     8    7    9 1    
     9    8   13 1    
    10    9   10 1    
    11    9   11 1    
    12   11   12 1    
    13   11   13 1    
    14   13   14 1    
    15   14   15 1    
    16   14   23 1    
    17   15   16 2    
    18   16   17 1    
    19   17   18 ar   
    20   17   23 ar   
    21   18   19 1    
    22   18   20 ar   
    23   20   21 ar   
    24   21   22 ar   
    25   22   23 ar   
@<TRIPOS>SUBSTRUCTURE
     1 AMP401      1 GROUP   
@<TRIPOS>SET
ATOM$ORANGE STATIC     ATOMS   COLORGROUP SYSTEM 
20 6 6 7 7 9 9 11 11 13 13 15 15 17 17 18 18 21 \
21 23 23 

