#    Name: 6c9j_1_STU
#    Modification time : Fri May 22 19:26:49 2020

@<TRIPOS>MOLECULE
6c9j_1_STU
   35    42     1     0     0
SMALL
NO_CHARGES


@<TRIPOS>ATOM
      1 O4        -19.6260   21.1980  -26.8160 O.3       1 STU602      0.0000 
      2 C25       -19.0410   20.1440  -26.0080 C.3       1 STU602      0.0000 
      3 C24       -20.0680   19.6380  -24.9520 C.3       1 STU602      0.0000 
      4 C23       -21.4330   20.1330  -25.3470 C.3       1 STU602      0.0000 
      5 C22       -21.4040   21.6130  -25.2510 C.3       1 STU602      0.0000 
      6 C21       -20.5760   22.1620  -26.3290 C.3       1 STU602      0.0000 
      7 C26       -21.4970   22.4770  -27.5150 C.3       1 STU602      0.0000 
      8 N2        -19.9330   23.3750  -25.8360 N.pl3     1 STU602      0.0000 
      9 C18       -18.6250   23.1920  -25.2650 C.ar      1 STU602      0.0000 
     10 C19       -17.8060   22.0910  -25.0860 C.ar      1 STU602      0.0000 
     11 C6        -16.5410   22.2450  -24.4780 C.ar      1 STU602      0.0000 
     12 C7        -16.1210   23.5220  -24.0540 C.ar      1 STU602      0.0000 
     13 C10       -16.9170   24.6090  -24.2270 C.ar      1 STU602      0.0000 
     14 C11       -18.1780   24.4540  -24.8270 C.ar      1 STU602      0.0000 
     15 C12       -19.2720   25.4770  -25.1410 C.ar      1 STU602      0.0000 
     16 C17       -20.3150   24.7690  -25.7480 C.ar      1 STU602      0.0000 
     17 C16       -21.4710   25.4450  -26.1520 C.ar      1 STU602      0.0000 
     18 C15       -21.5950   26.8090  -25.9660 C.ar      1 STU602      0.0000 
     19 C14       -20.5730   27.5250  -25.3680 C.ar      1 STU602      0.0000 
     20 C13       -19.4060   26.8720  -24.9490 C.ar      1 STU602      0.0000 
     21 C9        -16.2600   25.8830  -23.6880 C.3       1 STU602      0.0000 
     22 N1        -15.0180   25.4000  -23.0780 N.am      1 STU602      0.0000 
     23 C8        -14.8690   23.9990  -23.3940 C.2       1 STU602      0.0000 
     24 O5        -13.7380   23.2130  -23.1290 O.2       1 STU602      0.0000 
     25 C5        -15.8840   20.8660  -24.4240 C.ar      1 STU602      0.0000 
     26 C20       -16.7900   19.9860  -25.0030 C.ar      1 STU602      0.0000 
     27 C1        -16.5050   18.6320  -25.1140 C.ar      1 STU602      0.0000 
     28 C2        -15.3030   18.1360  -24.6510 C.ar      1 STU602      0.0000 
     29 C3        -14.3700   18.9760  -24.0720 C.ar      1 STU602      0.0000 
     30 C4        -14.6500   20.3500  -23.9520 C.ar      1 STU602      0.0000 
     31 N3        -17.9670   20.7180  -25.4040 N.pl3     1 STU602      0.0000 
     32 O6        -20.8340   21.9730  -23.9690 O.3       1 STU602      0.0000 
     33 C27       -21.7140   22.7450  -23.1310 C.3       1 STU602      0.0000 
     34 N4        -22.4210   19.5990  -24.4300 N.4       1 STU602      0.0000 
     35 C28       -23.7480   20.0470  -24.8100 C.3       1 STU602      0.0000 
@<TRIPOS>BOND
     1    1    2 1    
     2    1    6 1    
     3    2    3 1    
     4    2   31 1    
     5    3    4 1    
     6    4    5 1    
     7    4   34 1    
     8    5    6 1    
     9    5   32 1    
    10    6    7 1    
    11    6    8 1    
    12    8    9 1    
    13    8   16 1    
    14    9   10 ar   
    15    9   14 ar   
    16   10   11 ar   
    17   10   31 1    
    18   11   12 ar   
    19   11   25 1    
    20   12   13 ar   
    21   12   23 1    
    22   13   14 ar   
    23   13   21 1    
    24   14   15 1    
    25   15   16 ar   
    26   15   20 ar   
    27   16   17 ar   
    28   17   18 ar   
    29   18   19 ar   
    30   19   20 ar   
    31   21   22 1    
    32   22   23 am   
    33   23   24 2    
    34   25   26 ar   
    35   25   30 ar   
    36   26   27 ar   
    37   26   31 1    
    38   27   28 ar   
    39   28   29 ar   
    40   29   30 ar   
    41   32   33 1    
    42   34   35 1    
@<TRIPOS>SUBSTRUCTURE
     1 STU602      1 GROUP   
@<TRIPOS>SET

