#    Name: 6tir_1_NAI_CAVITY_N1_ALL
#    Modification time : Fri May 22 19:36:28 2020

@<TRIPOS>MOLECULE
6tir_1_NAI_CAVITY_N1_ALL
   74     0     7     0     0
SMALL
NO_CHARGES


@<TRIPOS>ATOM
      1 OG         -0.4500   28.5700    3.7000 O.3       1 SER1        0.0000 
      2 OG          0.5200   29.4300    4.4500 O.3       1 SER1        0.0000 
      3 OG          0.7200   30.0700    6.4700 O.3       1 SER1        0.0000 
      4 OG         -0.1200   31.2800    6.1700 O.3       1 SER1        0.0000 
      5 N           1.2200   26.1500    4.3000 N.am      2 ALA2        0.0000 
      6 N           0.3800   27.3600    4.0000 N.am      2 ALA2        0.0000 
      7 N           3.8100   26.0300    4.0900 N.am      2 ALA2        0.0000 
      8 N           2.9700   27.2400    3.7900 N.am      2 ALA2        0.0000 
      9 N           6.3900   25.9000    3.8800 N.am      2 ALA2        0.0000 
     10 N           5.5600   27.1100    3.5800 N.am      2 ALA2        0.0000 
     11 O           3.9400   28.1000    4.5400 O.2       2 ALA2        0.0000 
     12 O           3.1100   29.3100    4.2400 O.2       2 ALA2        0.0000 
     13 N           2.5200   29.7200    7.5200 N.am      2 ALA2        0.0000 
     14 O           3.3000   29.9400    6.2600 O.2       2 ALA2        0.0000 
     15 O           4.0800   30.1600    5.0000 O.2       2 ALA2        0.0000 
     16 N           1.6900   30.9200    7.2200 N.am      2 ALA2        0.0000 
     17 N           0.8500   32.1300    6.9200 N.am      2 ALA2        0.0000 
     18 N           3.5000   30.5700    8.2700 N.am      2 ALA2        0.0000 
     19 O           4.2800   30.8000    7.0100 O.2       2 ALA2        0.0000 
     20 O           5.0500   31.0200    5.7500 O.2       2 ALA2        0.0000 
     21 N           2.6600   31.7800    7.9700 N.am      2 ALA2        0.0000 
     22 O           6.0800   30.4500    8.0600 O.2       2 ALA2        0.0000 
     23 O           3.6900   31.2100   10.2900 O.2       2 ALA2        0.0000 
     24 N           4.4700   31.4300    9.0300 N.am      2 ALA2        0.0000 
     25 O           5.2500   31.6600    7.7600 O.2       2 ALA2        0.0000 
     26 O           6.0300   31.8800    6.5000 O.2       2 ALA2        0.0000 
     27 O           2.8600   32.4200    9.9900 O.2       2 ALA2        0.0000 
     28 O           5.4400   32.2900    9.7800 O.2       2 ALA2        0.0000 
     29 O           7.0000   32.7400    7.2500 O.2       2 ALA2        0.0000 
     30 OD1         2.8300   25.1700    3.3400 O.co2     3 ASP3        0.0000 
     31 OD1         2.0000   26.3800    3.0400 O.co2     3 ASP3        0.0000 
     32 OD1         6.2000   25.2700    1.8700 O.co2     3 ASP3        0.0000 
     33 OD1         4.5800   26.2500    2.8300 O.co2     3 ASP3        0.0000 
     34 OD1         5.3600   26.4800    1.5700 O.co2     3 ASP3        0.0000 
     35 OD1         3.7500   27.4600    2.5300 O.co2     3 ASP3        0.0000 
     36 NZ          5.3900   33.7200    8.2200 N.4       4 LYS4        0.0000 
     37 NZ          6.1700   33.9500    6.9500 N.4       4 LYS4        0.0000 
     38 NZ          4.5500   34.9300    7.9200 N.4       4 LYS4        0.0000 
     39 CZ          1.3000   29.6600    3.1900 C.ar      5 PHE5        0.0000 
     40 CZ          1.5000   30.2900    5.2100 C.ar      5 PHE5        0.0000 
     41 CZ          2.2700   30.5100    3.9400 C.ar      5 PHE5        0.0000 
     42 CZ          3.0500   30.7400    2.6800 C.ar      5 PHE5        0.0000 
     43 CZ          2.4700   31.1500    5.9600 C.ar      5 PHE5        0.0000 
     44 CZ          3.2500   31.3700    4.7000 C.ar      5 PHE5        0.0000 
     45 CZ          4.0300   31.6000    3.4300 C.ar      5 PHE5        0.0000 
     46 CZ          1.6300   32.3600    5.6600 C.ar      5 PHE5        0.0000 
     47 CZ          2.6100   33.2200    6.4100 C.ar      5 PHE5        0.0000 
     48 CZ          3.3800   33.4400    5.1500 C.ar      5 PHE5        0.0000 
     49 CZ          1.7700   34.4300    6.1100 C.ar      5 PHE5        0.0000 
     50 CZ          3.5200   35.5100    5.6000 C.ar      5 PHE5        0.0000 
     51 CA          1.1600   27.5900    2.7400 C.3       6 GLY6        0.0000 
     52 CA          2.1900   27.0100    5.0500 C.3       6 GLY6        0.0000 
     53 CA          4.5300   27.6900    1.2700 C.3       6 GLY6        0.0000 
     54 CA          0.5800   28.0000    6.0200 C.3       6 GLY6        0.0000 
     55 CA          1.3600   28.2200    4.7500 C.3       6 GLY6        0.0000 
     56 CA          2.1400   28.4500    3.4900 C.3       6 GLY6        0.0000 
     57 CA          2.9100   28.6700    2.2300 C.3       6 GLY6        0.0000 
     58 CA          3.6900   28.9000    0.9700 C.3       6 GLY6        0.0000 
     59 CA          2.0800   29.8800    1.9300 C.3       6 GLY6        0.0000 
     60 CA          2.3300   29.0800    5.5100 C.3       6 GLY6        0.0000 
     61 CA          3.0000   32.1700    1.1200 C.3       6 GLY6        0.0000 
     62 CA          3.6400   32.6400    8.7300 C.3       6 GLY6        0.0000 
     63 CA          3.5800   34.0800    7.1600 C.3       6 GLY6        0.0000 
     64 CA          2.7400   35.2800    6.8600 C.3       6 GLY6        0.0000 
     65 CA          6.2200   32.5200    8.5200 C.3       6 GLY6        0.0000 
     66 CA          4.6100   33.5000    9.4800 C.3       6 GLY6        0.0000 
     67 CA          3.7200   36.1400    7.6200 C.3       6 GLY6        0.0000 
     68 DU          4.7200   28.3200    3.2800 H         7 CUB7        0.0000 
     69 DU          3.8900   29.5300    2.9800 H         7 CUB7        0.0000 
     70 DU          3.4400   32.0100    6.7100 H         7 CUB7        0.0000 
     71 DU          4.2200   32.2300    5.4500 H         7 CUB7        0.0000 
     72 DU          4.4100   32.8700    7.4600 H         7 CUB7        0.0000 
     73 DU          5.1900   33.0900    6.2000 H         7 CUB7        0.0000 
     74 DU          4.3600   34.3000    5.9000 H         7 CUB7        0.0000 
@<TRIPOS>BOND
@<TRIPOS>SUBSTRUCTURE
     1 SER1        1 GROUP   
     2 ALA2        5 GROUP   
     3 ASP3       30 GROUP   
     4 LYS4       36 GROUP   
     5 PHE5       39 GROUP   
     6 GLY6       51 GROUP   
     7 CUB7       68 GROUP   
@<TRIPOS>SET

