#    Name: 6tir_1_NAI
#    Modification time : Fri May 22 19:36:27 2020

@<TRIPOS>MOLECULE
6tir_1_NAI
   73    77     1     0     1
SMALL
NO_CHARGES


@<TRIPOS>ATOM
      1 PA          4.2180   35.9050    1.8130 P.3       1 NAI301      0.0000 
      2 O1A         5.6030   36.4220    1.7310 O.co2     1 NAI301      0.0000 
      3 O2A         3.9370   35.3560    3.3000 O.co2     1 NAI301      0.0000 
      4 O5B         4.0280   34.7080    0.7530 O.3       1 NAI301      0.0000 
      5 C5B         4.9920   33.7070    1.0840 C.3       1 NAI301      0.0000 
      6 C4B         4.4120   32.7710    2.1460 C.3       1 NAI301      0.0000 
      7 O4B         4.2760   31.4450    1.6080 O.3       1 NAI301      0.0000 
      8 C3B         5.3720   32.6850    3.3480 C.3       1 NAI301      0.0000 
      9 O3B         4.7280   33.1350    4.5430 O.3       1 NAI301      0.0000 
     10 C2B         5.7110   31.1750    3.4510 C.3       1 NAI301      0.0000 
     11 O2B         5.7350   30.7500    4.8150 O.3       1 NAI301      0.0000 
     12 C1B         4.5280   30.5230    2.6900 C.3       1 NAI301      0.0000 
     13 N9A         4.9080   29.2080    2.1690 N.pl3     1 NAI301      0.0000 
     14 C8A         4.4120   28.0040    2.5770 C.2       1 NAI301      0.0000 
     15 N7A         4.9710   27.0420    1.9010 N.2       1 NAI301      0.0000 
     16 C5A         5.8560   27.5650    1.0190 C.ar      1 NAI301      0.0000 
     17 C6A         6.7250   27.0270    0.0550 C.ar      1 NAI301      0.0000 
     18 N6A         6.7970   25.6610   -0.1490 N.pl3     1 NAI301      0.0000 
     19 N1A         7.4760   27.8620   -0.6570 N.ar      1 NAI301      0.0000 
     20 C2A         7.4130   29.1670   -0.4700 C.ar      1 NAI301      0.0000 
     21 N3A         6.6140   29.7160    0.4220 N.ar      1 NAI301      0.0000 
     22 C4A         5.8220   28.9610    1.1770 C.ar      1 NAI301      0.0000 
     23 O3          3.1820   37.0910    1.4740 O.3       1 NAI301      0.0000 
     24 PN          3.6470   37.7280    0.0700 P.3       1 NAI301      0.0000 
     25 O1N         4.9480   38.4130    0.2460 O.co2     1 NAI301      0.0000 
     26 O2N         3.8000   36.5590   -1.0260 O.co2     1 NAI301      0.0000 
     27 O5D         2.5460   38.7910   -0.4280 O.3       1 NAI301      0.0000 
     28 C5D         2.0250   39.4260    0.7410 C.3       1 NAI301      0.0000 
     29 C4D         1.1190   40.5880    0.3300 C.3       1 NAI301      0.0000 
     30 O4D        -0.0730   40.0920   -0.3180 O.3       1 NAI301      0.0000 
     31 C3D         0.6070   41.3420    1.5770 C.3       1 NAI301      0.0000 
     32 O3D         1.3940   42.5090    1.8150 O.3       1 NAI301      0.0000 
     33 C2D        -0.8460   41.7300    1.2110 C.3       1 NAI301      0.0000 
     34 O2D        -0.9990   43.1520    1.2150 O.3       1 NAI301      0.0000 
     35 C1D        -1.0370   41.1620   -0.2130 C.3       1 NAI301      0.0000 
     36 N1N        -2.3970   40.6430   -0.3750 N.pl3     1 NAI301      0.0000 
     37 C2N        -2.6840   39.3560   -0.0170 C.2       1 NAI301      0.0000 
     38 C3N        -3.9580   38.9690    0.1760 C.2       1 NAI301      0.0000 
     39 C7N        -4.2280   37.6290    0.5370 C.2       1 NAI301      0.0000 
     40 O7N        -3.3120   36.8380    0.6710 O.2       1 NAI301      0.0000 
     41 N7N        -5.5000   37.2270    0.7340 N.am      1 NAI301      0.0000 
     42 C4N        -5.1000   39.9310    0.0100 C.3       1 NAI301      0.0000 
     43 C5N        -4.6640   41.1590   -0.7340 C.2       1 NAI301      0.0000 
     44 C6N        -3.3940   41.4590   -0.8930 C.2       1 NAI301      0.0000 
     45 HOA2        3.0270   35.0300    3.3100 H         1 NAI301      0.0000 
     46 H51A        5.2410   33.1330    0.1910 H         1 NAI301      0.0000 
     47 H52A        5.8940   34.1830    1.4710 H         1 NAI301      0.0000 
     48 H4B         3.4400   33.1400    2.4730 H         1 NAI301      0.0000 
     49 H3B         6.2730   33.2660    3.1590 H         1 NAI301      0.0000 
     50 HO3A        5.3570   33.0000    5.2660 H         1 NAI301      0.0000 
     51 H2B         6.6590   30.9540    2.9600 H         1 NAI301      0.0000 
     52 HO2A        6.4900   31.1880    5.2310 H         1 NAI301      0.0000 
     53 H1B         3.6550   30.4420    3.3360 H         1 NAI301      0.0000 
     54 H8A         3.6680   27.8700    3.3480 H         1 NAI301      0.0000 
     55 H61A        6.2440   25.0610    0.3760 H         1 NAI301      0.0000 
     56 H62A        7.4010   25.3010   -0.8180 H         1 NAI301      0.0000 
     57 H2A         8.0410   29.8090   -1.0690 H         1 NAI301      0.0000 
     58 H51N        2.8490   39.8040    1.3470 H         1 NAI301      0.0000 
     59 H52N        1.4490   38.7040    1.3200 H         1 NAI301      0.0000 
     60 H4D         1.6550   41.2690   -0.3320 H         1 NAI301      0.0000 
     61 H3D         0.6200   40.6890    2.4490 H         1 NAI301      0.0000 
     62 HO3N        1.0290   42.9370    2.6020 H         1 NAI301      0.0000 
     63 H2D        -1.5500   41.2690    1.9030 H         1 NAI301      0.0000 
     64 HO2N       -0.8080   43.4510    2.1140 H         1 NAI301      0.0000 
     65 H1D        -0.8340   41.9300   -0.9580 H         1 NAI301      0.0000 
     66 H2N        -1.8810   38.6440    0.1140 H         1 NAI301      0.0000 
     67 H71N       -5.6850   36.3070    0.9820 H         1 NAI301      0.0000 
     68 H72N       -6.2290   37.8580    0.6310 H         1 NAI301      0.0000 
     69 H4N        -5.9070   39.4470   -0.5410 H         1 NAI301      0.0000 
     70 H42N       -5.4620   40.2190    0.9960 H         1 NAI301      0.0000 
     71 H5N        -5.4140   41.8130   -1.1530 H         1 NAI301      0.0000 
     72 H6N        -3.1220   42.3530   -1.4340 H         1 NAI301      0.0000 
     73 HO5C        2.9320   36.1390   -1.1090 H         1 NAI301      0.0000 
@<TRIPOS>BOND
     1    1    2 ar   
     2    1    3 ar   
     3    1    4 1    
     4    1   23 1    
     5    3   45 1    
     6    4    5 1    
     7    5    6 1    
     8    5   46 1    
     9    5   47 1    
    10    6    7 1    
    11    6    8 1    
    12    6   48 1    
    13    7   12 1    
    14    8    9 1    
    15    8   10 1    
    16    8   49 1    
    17    9   50 1    
    18   10   11 1    
    19   10   12 1    
    20   10   51 1    
    21   11   52 1    
    22   12   13 1    
    23   12   53 1    
    24   13   14 1    
    25   13   22 1    
    26   14   15 2    
    27   14   54 1    
    28   15   16 1    
    29   16   17 ar   
    30   16   22 ar   
    31   17   18 1    
    32   17   19 ar   
    33   18   55 1    
    34   18   56 1    
    35   19   20 ar   
    36   20   21 ar   
    37   20   57 1    
    38   21   22 ar   
    39   23   24 1    
    40   24   25 ar   
    41   24   26 ar   
    42   24   27 1    
    43   26   73 1    
    44   27   28 1    
    45   28   29 1    
    46   28   58 1    
    47   28   59 1    
    48   29   30 1    
    49   29   31 1    
    50   29   60 1    
    51   30   35 1    
    52   31   32 1    
    53   31   33 1    
    54   31   61 1    
    55   32   62 1    
    56   33   34 1    
    57   33   35 1    
    58   33   63 1    
    59   34   64 1    
    60   35   36 1    
    61   35   65 1    
    62   36   37 1    
    63   36   44 1    
    64   37   66 1    
    65   37   38 2    
    66   38   39 1    
    67   38   42 1    
    68   39   40 2    
    69   39   41 am   
    70   41   67 1    
    71   41   68 1    
    72   42   43 1    
    73   42   69 1    
    74   42   70 1    
    75   43   44 2    
    76   43   71 1    
    77   44   72 1    
@<TRIPOS>SUBSTRUCTURE
     1 NAI301      1 GROUP   
@<TRIPOS>SET
ATOM$ORANGE STATIC     ATOMS   COLORGROUP SYSTEM 
42 5 5 6 6 8 8 10 10 12 12 14 14 16 16 17 17 20 \
20 22 22 28 28 29 29 31 31 33 33 35 35 37 37 38 38 39 \
39 42 42 43 43 44 44 

