#    Name: 6tir_1_NAI_CAVITY_N1_4
#    Modification time : Fri May 22 19:36:28 2020

@<TRIPOS>MOLECULE
6tir_1_NAI_CAVITY_N1_4
   54     0     6     0     0
SMALL
NO_CHARGES


@<TRIPOS>ATOM
      1 N           3.8100   26.0300    4.0900 N.am      1 ALA2        0.0000 
      2 N           2.9700   27.2400    3.7900 N.am      1 ALA2        0.0000 
      3 N           6.3900   25.9000    3.8800 N.am      1 ALA2        0.0000 
      4 N           5.5600   27.1100    3.5800 N.am      1 ALA2        0.0000 
      5 O           3.9400   28.1000    4.5400 O.2       1 ALA2        0.0000 
      6 O           3.1100   29.3100    4.2400 O.2       1 ALA2        0.0000 
      7 O           3.3000   29.9400    6.2600 O.2       1 ALA2        0.0000 
      8 O           4.0800   30.1600    5.0000 O.2       1 ALA2        0.0000 
      9 O           4.2800   30.8000    7.0100 O.2       1 ALA2        0.0000 
     10 O           5.0500   31.0200    5.7500 O.2       1 ALA2        0.0000 
     11 O           6.0800   30.4500    8.0600 O.2       1 ALA2        0.0000 
     12 O           5.2500   31.6600    7.7600 O.2       1 ALA2        0.0000 
     13 O           6.0300   31.8800    6.5000 O.2       1 ALA2        0.0000 
     14 O           7.0000   32.7400    7.2500 O.2       1 ALA2        0.0000 
     15 OD1         2.8300   25.1700    3.3400 O.co2     2 ASP3        0.0000 
     16 OD1         2.0000   26.3800    3.0400 O.co2     2 ASP3        0.0000 
     17 OD1         6.2000   25.2700    1.8700 O.co2     2 ASP3        0.0000 
     18 OD1         4.5800   26.2500    2.8300 O.co2     2 ASP3        0.0000 
     19 OD1         5.3600   26.4800    1.5700 O.co2     2 ASP3        0.0000 
     20 OD1         3.7500   27.4600    2.5300 O.co2     2 ASP3        0.0000 
     21 NZ          5.3900   33.7200    8.2200 N.4       3 LYS4        0.0000 
     22 NZ          6.1700   33.9500    6.9500 N.4       3 LYS4        0.0000 
     23 NZ          4.5500   34.9300    7.9200 N.4       3 LYS4        0.0000 
     24 CZ          1.3000   29.6600    3.1900 C.ar      4 PHE5        0.0000 
     25 CZ          1.5000   30.2900    5.2100 C.ar      4 PHE5        0.0000 
     26 CZ          2.2700   30.5100    3.9400 C.ar      4 PHE5        0.0000 
     27 CZ          3.0500   30.7400    2.6800 C.ar      4 PHE5        0.0000 
     28 CZ          2.4700   31.1500    5.9600 C.ar      4 PHE5        0.0000 
     29 CZ          3.2500   31.3700    4.7000 C.ar      4 PHE5        0.0000 
     30 CZ          4.0300   31.6000    3.4300 C.ar      4 PHE5        0.0000 
     31 CZ          1.6300   32.3600    5.6600 C.ar      4 PHE5        0.0000 
     32 CZ          2.6100   33.2200    6.4100 C.ar      4 PHE5        0.0000 
     33 CZ          3.3800   33.4400    5.1500 C.ar      4 PHE5        0.0000 
     34 CZ          1.7700   34.4300    6.1100 C.ar      4 PHE5        0.0000 
     35 CZ          3.5200   35.5100    5.6000 C.ar      4 PHE5        0.0000 
     36 CA          1.1600   27.5900    2.7400 C.3       5 GLY6        0.0000 
     37 CA          2.1900   27.0100    5.0500 C.3       5 GLY6        0.0000 
     38 CA          4.5300   27.6900    1.2700 C.3       5 GLY6        0.0000 
     39 CA          1.3600   28.2200    4.7500 C.3       5 GLY6        0.0000 
     40 CA          2.1400   28.4500    3.4900 C.3       5 GLY6        0.0000 
     41 CA          2.9100   28.6700    2.2300 C.3       5 GLY6        0.0000 
     42 CA          3.6900   28.9000    0.9700 C.3       5 GLY6        0.0000 
     43 CA          2.0800   29.8800    1.9300 C.3       5 GLY6        0.0000 
     44 CA          2.3300   29.0800    5.5100 C.3       5 GLY6        0.0000 
     45 CA          3.0000   32.1700    1.1200 C.3       5 GLY6        0.0000 
     46 CA          3.5800   34.0800    7.1600 C.3       5 GLY6        0.0000 
     47 CA          2.7400   35.2800    6.8600 C.3       5 GLY6        0.0000 
     48 DU          4.7200   28.3200    3.2800 H         6 CUB7        0.0000 
     49 DU          3.8900   29.5300    2.9800 H         6 CUB7        0.0000 
     50 DU          3.4400   32.0100    6.7100 H         6 CUB7        0.0000 
     51 DU          4.2200   32.2300    5.4500 H         6 CUB7        0.0000 
     52 DU          4.4100   32.8700    7.4600 H         6 CUB7        0.0000 
     53 DU          5.1900   33.0900    6.2000 H         6 CUB7        0.0000 
     54 DU          4.3600   34.3000    5.9000 H         6 CUB7        0.0000 
@<TRIPOS>BOND
@<TRIPOS>SUBSTRUCTURE
     1 ALA2        1 GROUP   
     2 ASP3       15 GROUP   
     3 LYS4       21 GROUP   
     4 PHE5       24 GROUP   
     5 GLY6       36 GROUP   
     6 CUB7       48 GROUP   
@<TRIPOS>SET

