#    Name: 6otd_1_IMD_CAVITY_N1_4
#    Modification time : Fri May 22 19:30:54 2020

@<TRIPOS>MOLECULE
6otd_1_IMD_CAVITY_N1_4
   39     0     3     0     0
SMALL
NO_CHARGES


@<TRIPOS>ATOM
      1 OG         -6.1200  -17.5900   -3.1500 O.3       1 SER1        0.0000 
      2 OG         -5.0700  -16.5800   -2.7900 O.3       1 SER1        0.0000 
      3 OG         -5.8300  -15.5300   -3.5400 O.3       1 SER1        0.0000 
      4 OG         -6.5800  -14.4700   -4.2900 O.3       1 SER1        0.0000 
      5 OG         -5.0800  -17.3000   -0.7900 O.3       1 SER1        0.0000 
      6 OG         -5.8300  -16.2400   -1.5500 O.3       1 SER1        0.0000 
      7 OG         -6.5900  -15.1800   -2.3000 O.3       1 SER1        0.0000 
      8 OG         -5.8300  -16.9500    0.4500 O.3       1 SER1        0.0000 
      9 OG         -7.3500  -14.8400   -1.0500 O.3       1 SER1        0.0000 
     10 OG         -6.5900  -16.6100    1.7000 O.3       1 SER1        0.0000 
     11 OG         -7.3500  -15.5500    0.9500 O.3       1 SER1        0.0000 
     12 CZ         -6.8800  -17.9600    0.0900 C.ar      2 PHE5        0.0000 
     13 CZ         -7.6400  -17.6200    1.3400 C.ar      2 PHE5        0.0000 
     14 CZ         -7.6500  -18.3300    3.3400 C.ar      2 PHE5        0.0000 
     15 CZ         -5.0800  -18.0100    1.2000 C.ar      2 PHE5        0.0000 
     16 CZ         -5.8400  -17.6700    2.4500 C.ar      2 PHE5        0.0000 
     17 CZ         -4.0200  -15.5700   -2.4300 C.ar      2 PHE5        0.0000 
     18 CA         -9.4500  -17.5700    0.2300 C.3       3 GLY6        0.0000 
     19 CA        -10.9600  -16.1700    0.7300 C.3       3 GLY6        0.0000 
     20 CA         -4.6100  -18.9900   -3.6500 C.3       3 GLY6        0.0000 
     21 CA         -5.3600  -17.9300   -4.4000 C.3       3 GLY6        0.0000 
     22 CA         -6.8800  -17.2500   -1.9100 C.3       3 GLY6        0.0000 
     23 CA         -7.6400  -16.1900   -2.6600 C.3       3 GLY6        0.0000 
     24 CA         -8.3900  -15.1300   -3.4100 C.3       3 GLY6        0.0000 
     25 CA         -7.6400  -16.9000   -0.6600 C.3       3 GLY6        0.0000 
     26 CA         -8.4000  -15.8500   -1.4100 C.3       3 GLY6        0.0000 
     27 CA         -8.4000  -16.5600    0.5900 C.3       3 GLY6        0.0000 
     28 CA         -9.1500  -15.5000   -0.1600 C.3       3 GLY6        0.0000 
     29 CA         -8.4000  -17.2700    2.5900 C.3       3 GLY6        0.0000 
     30 CA         -9.1600  -16.2200    1.8400 C.3       3 GLY6        0.0000 
     31 CA         -9.9100  -15.1600    1.0900 C.3       3 GLY6        0.0000 
     32 CA         -4.3100  -16.9300   -4.0400 C.3       3 GLY6        0.0000 
     33 CA         -5.0700  -15.8700   -4.7900 C.3       3 GLY6        0.0000 
     34 CA         -4.3200  -17.6400   -2.0400 C.3       3 GLY6        0.0000 
     35 CA         -4.3200  -18.3500   -0.0400 C.3       3 GLY6        0.0000 
     36 CA         -7.3400  -14.1300   -3.0500 C.3       3 GLY6        0.0000 
     37 CA         -8.1000  -13.7800   -1.8000 C.3       3 GLY6        0.0000 
     38 CA         -7.3500  -16.2700    2.9500 C.3       3 GLY6        0.0000 
     39 CA         -8.1100  -15.2100    2.2000 C.3       3 GLY6        0.0000 
@<TRIPOS>BOND
@<TRIPOS>SUBSTRUCTURE
     1 SER1        1 GROUP   
     2 PHE5       12 GROUP   
     3 GLY6       18 GROUP   
@<TRIPOS>SET

