#    Name: 6otd_1_IMD
#    Modification time : Fri May 22 19:30:53 2020

@<TRIPOS>MOLECULE
6otd_1_IMD
    5     5     1     0     0
SMALL
NO_CHARGES


@<TRIPOS>ATOM
      1 N1         -8.3890  -18.6910   -2.5860 N.pl3     1 IMD203      0.0000 
      2 C2         -7.5660  -17.6290   -2.6420 C.2       1 IMD203      0.0000 
      3 N3         -7.4510  -17.2380   -1.4090 N.2       1 IMD203      0.0000 
      4 C4         -8.1450  -18.0390   -0.5370 C.2       1 IMD203      0.0000 
      5 C5         -8.7390  -18.9970   -1.3120 C.2       1 IMD203      0.0000 
@<TRIPOS>BOND
     1    1    2 1    
     2    1    5 1    
     3    2    3 2    
     4    3    4 1    
     5    4    5 2    
@<TRIPOS>SUBSTRUCTURE
     1 IMD203      1 GROUP   
@<TRIPOS>SET

