#    Name: 6otd_2_IMD_CAVITY_N1_4
#    Modification time : Fri May 22 19:30:56 2020

@<TRIPOS>MOLECULE
6otd_2_IMD_CAVITY_N1_4
   44     0     6     0     0
SMALL
NO_CHARGES


@<TRIPOS>ATOM
      1 OG         -8.1200  -18.7700   12.1900 O.3       1 SER1        0.0000 
      2 N          -9.4600  -20.4200    8.2200 N.am      2 ALA2        0.0000 
      3 O          -6.9000  -20.8100    8.0800 O.2       2 ALA2        0.0000 
      4 N          -7.6500  -19.7600    7.3300 N.am      2 ALA2        0.0000 
      5 N          -6.6000  -19.4600    9.6900 N.am      2 ALA2        0.0000 
      6 N          -7.3600  -18.4000    8.9400 N.am      2 ALA2        0.0000 
      7 OD1        -9.7500  -22.4800    8.6100 O.co2     3 ASP3        0.0000 
      8 OD1        -7.9500  -22.5300    9.7200 O.co2     3 ASP3        0.0000 
      9 OD1        -8.7000  -21.4800    8.9700 O.co2     3 ASP3        0.0000 
     10 OD1        -8.7100  -22.1900   10.9700 O.co2     3 ASP3        0.0000 
     11 CZ         -7.9400  -21.1100    5.7200 C.ar      4 PHE5        0.0000 
     12 CZ         -9.4600  -21.1300   10.2200 C.ar      4 PHE5        0.0000 
     13 CZ         -8.4100  -20.1300   10.5800 C.ar      4 PHE5        0.0000 
     14 CZ         -9.1700  -19.0700    9.8300 C.ar      4 PHE5        0.0000 
     15 CZ         -8.1100  -16.6300    6.1900 C.ar      4 PHE5        0.0000 
     16 CZ         -8.1100  -17.3500    8.1900 C.ar      4 PHE5        0.0000 
     17 CZ         -8.1200  -18.0600   10.1900 C.ar      4 PHE5        0.0000 
     18 CZ         -7.0700  -17.7700   12.5500 C.ar      4 PHE5        0.0000 
     19 CA         -8.2400  -23.1700    6.1100 C.3       5 GLY6        0.0000 
     20 CA         -8.9900  -22.1200    5.3600 C.3       5 GLY6        0.0000 
     21 CA         -9.7500  -21.7700    6.6100 C.3       5 GLY6        0.0000 
     22 CA         -7.1900  -22.1600    6.4700 C.3       5 GLY6        0.0000 
     23 CA         -7.1900  -22.8800    8.4700 C.3       5 GLY6        0.0000 
     24 CA         -7.9500  -21.8200    7.7200 C.3       5 GLY6        0.0000 
     25 CA         -9.4600  -19.7100    6.2200 C.3       5 GLY6        0.0000 
     26 CA        -10.2200  -19.3600    7.4700 C.3       5 GLY6        0.0000 
     27 CA        -10.2200  -20.0800    9.4700 C.3       5 GLY6        0.0000 
     28 CA         -6.8900  -20.1000    6.0900 C.3       5 GLY6        0.0000 
     29 CA         -7.6500  -19.0400    5.3400 C.3       5 GLY6        0.0000 
     30 CA         -8.4000  -17.9900    4.5800 C.3       5 GLY6        0.0000 
     31 CA         -8.4100  -18.7000    6.5800 C.3       5 GLY6        0.0000 
     32 CA         -9.1600  -17.6400    5.8300 C.3       5 GLY6        0.0000 
     33 CA         -6.9000  -21.5300   10.0800 C.3       5 GLY6        0.0000 
     34 CA         -9.1700  -18.3600    7.8300 C.3       5 GLY6        0.0000 
     35 CA         -9.9200  -18.0100    9.0800 C.3       5 GLY6        0.0000 
     36 CA         -6.6000  -18.0300    5.7000 C.3       5 GLY6        0.0000 
     37 CA         -7.3600  -17.6900    6.9400 C.3       5 GLY6        0.0000 
     38 CA         -6.6100  -20.1700   11.6900 C.3       5 GLY6        0.0000 
     39 CA         -7.3600  -19.1200   10.9400 C.3       5 GLY6        0.0000 
     40 CA         -6.3100  -18.1100   11.3000 C.3       5 GLY6        0.0000 
     41 DU         -8.7000  -20.7600    6.9700 H         6 CUB7        0.0000 
     42 DU         -7.6500  -20.4700    9.3300 H         6 CUB7        0.0000 
     43 DU         -8.4100  -19.4100    8.5800 H         6 CUB7        0.0000 
     44 DU         -7.6600  -21.1800   11.3300 H         6 CUB7        0.0000 
@<TRIPOS>BOND
@<TRIPOS>SUBSTRUCTURE
     1 SER1        1 GROUP   
     2 ALA2        2 GROUP   
     3 ASP3        7 GROUP   
     4 PHE5       11 GROUP   
     5 GLY6       19 GROUP   
     6 CUB7       41 GROUP   
@<TRIPOS>SET

