#    Name: 6otd_2_IMD
#    Modification time : Fri May 22 19:30:55 2020

@<TRIPOS>MOLECULE
6otd_2_IMD
    5     5     1     0     0
SMALL
NO_CHARGES


@<TRIPOS>ATOM
      1 N1         -8.1140  -19.5500    9.4280 N.pl3     1 IMD204      0.0000 
      2 C2         -8.3280  -19.3290    8.1030 C.2       1 IMD204      0.0000 
      3 N3         -8.1850  -20.5020    7.4360 N.2       1 IMD204      0.0000 
      4 C4         -7.8970  -21.4580    8.3550 C.2       1 IMD204      0.0000 
      5 C5         -7.8520  -20.8630    9.6050 C.2       1 IMD204      0.0000 
@<TRIPOS>BOND
     1    1    2 1    
     2    1    5 1    
     3    2    3 2    
     4    3    4 1    
     5    4    5 2    
@<TRIPOS>SUBSTRUCTURE
     1 IMD204      1 GROUP   
@<TRIPOS>SET

