#    Name: 6ky6_1_EPR_CAVITY_N1_4
#    Modification time : Fri May 22 19:28:08 2020

@<TRIPOS>MOLECULE
6ky6_1_EPR_CAVITY_N1_4
   62     0     6     0     0
SMALL
NO_CHARGES


@<TRIPOS>ATOM
      1 OG         25.7000  -32.8800   12.2900 O.3       1 SER1        0.0000 
      2 OG         24.6600  -32.8100   13.3600 O.3       1 SER1        0.0000 
      3 O          23.7300  -33.6400   12.5200 O.2       2 ALA2        0.0000 
      4 O          26.6900  -34.4800   15.4400 O.2       2 ALA2        0.0000 
      5 NZ         23.0000  -33.0200   18.0500 N.4       3 LYS4        0.0000 
      6 NZ         21.9600  -32.9500   19.1200 N.4       3 LYS4        0.0000 
      7 NZ         24.4800  -33.4400   19.5100 N.4       3 LYS4        0.0000 
      8 CZ         21.8300  -36.8300   15.0600 C.ar      4 PHE5        0.0000 
      9 CZ         21.2800  -35.5800   14.4400 C.ar      4 PHE5        0.0000 
     10 CZ         24.2900  -34.8900   13.1400 C.ar      4 PHE5        0.0000 
     11 CZ         23.2400  -34.8200   14.2100 C.ar      4 PHE5        0.0000 
     12 CZ         22.6900  -33.5700   13.5900 C.ar      4 PHE5        0.0000 
     13 CZ         23.3100  -37.2500   16.5200 C.ar      4 PHE5        0.0000 
     14 CZ         21.6400  -33.5000   14.6700 C.ar      4 PHE5        0.0000 
     15 CZ         21.7100  -35.9300   16.9800 C.ar      4 PHE5        0.0000 
     16 CZ         20.6000  -33.4300   15.7400 C.ar      4 PHE5        0.0000 
     17 CZ         24.1000  -31.5600   12.7400 C.ar      4 PHE5        0.0000 
     18 CZ         23.6100  -32.7400   14.4400 C.ar      4 PHE5        0.0000 
     19 CZ         23.0600  -31.4900   13.8200 C.ar      4 PHE5        0.0000 
     20 CZ         24.7900  -37.6700   17.9800 C.ar      4 PHE5        0.0000 
     21 CZ         24.2300  -36.4200   17.3700 C.ar      4 PHE5        0.0000 
     22 CZ         22.5700  -32.6700   15.5100 C.ar      4 PHE5        0.0000 
     23 CZ         22.0100  -31.4200   14.8900 C.ar      4 PHE5        0.0000 
     24 CZ         23.1900  -36.3500   18.4400 C.ar      4 PHE5        0.0000 
     25 CZ         22.6300  -35.1000   17.8200 C.ar      4 PHE5        0.0000 
     26 CZ         20.9700  -31.3500   15.9700 C.ar      4 PHE5        0.0000 
     27 CZ         21.5900  -35.0300   18.9000 C.ar      4 PHE5        0.0000 
     28 CZ         21.0400  -33.7800   18.2800 C.ar      4 PHE5        0.0000 
     29 CZ         27.7300  -34.5500   14.3700 C.ar      4 PHE5        0.0000 
     30 CZ         27.1800  -33.3000   13.7500 C.ar      4 PHE5        0.0000 
     31 CZ         26.6200  -32.0500   13.1300 C.ar      4 PHE5        0.0000 
     32 CZ         26.1300  -33.2300   14.8200 C.ar      4 PHE5        0.0000 
     33 CZ         25.5800  -31.9800   14.2000 C.ar      4 PHE5        0.0000 
     34 CZ         25.0200  -30.7300   13.5900 C.ar      4 PHE5        0.0000 
     35 CZ         25.6400  -34.4100   16.5200 C.ar      4 PHE5        0.0000 
     36 CZ         25.0900  -33.1600   15.9000 C.ar      4 PHE5        0.0000 
     37 CZ         24.5400  -31.9100   15.2800 C.ar      4 PHE5        0.0000 
     38 CZ         23.9800  -30.6600   14.6600 C.ar      4 PHE5        0.0000 
     39 CZ         25.1600  -35.5900   18.2100 C.ar      4 PHE5        0.0000 
     40 CZ         24.6000  -34.3400   17.5900 C.ar      4 PHE5        0.0000 
     41 CZ         24.0500  -33.0900   16.9700 C.ar      4 PHE5        0.0000 
     42 CZ         23.4900  -31.8400   16.3500 C.ar      4 PHE5        0.0000 
     43 CZ         22.9400  -30.5900   15.7400 C.ar      4 PHE5        0.0000 
     44 CZ         24.1100  -35.5200   19.2800 C.ar      4 PHE5        0.0000 
     45 CZ         23.5600  -34.2700   18.6700 C.ar      4 PHE5        0.0000 
     46 CZ         22.5100  -34.2000   19.7400 C.ar      4 PHE5        0.0000 
     47 CZ         26.5700  -33.5800   17.3600 C.ar      4 PHE5        0.0000 
     48 CZ         25.5200  -33.5100   18.4300 C.ar      4 PHE5        0.0000 
     49 CZ         25.0400  -34.6900   20.1300 C.ar      4 PHE5        0.0000 
     50 CA         22.4500  -31.7700   17.4300 C.3       5 GLY6        0.0000 
     51 DU         22.7500  -36.0000   15.9000 H         6 CUB7        0.0000 
     52 DU         22.2000  -34.7500   15.2900 H         6 CUB7        0.0000 
     53 DU         21.1600  -34.6800   16.3600 H         6 CUB7        0.0000 
     54 DU         26.2500  -34.1300   12.9000 H         6 CUB7        0.0000 
     55 DU         25.2100  -34.0600   13.9800 H         6 CUB7        0.0000 
     56 DU         24.7200  -35.2400   15.6700 H         6 CUB7        0.0000 
     57 DU         24.1700  -33.9900   15.0500 H         6 CUB7        0.0000 
     58 DU         23.6800  -35.1700   16.7500 H         6 CUB7        0.0000 
     59 DU         23.1200  -33.9200   16.1300 H         6 CUB7        0.0000 
     60 DU         22.0800  -33.8500   17.2000 H         6 CUB7        0.0000 
     61 DU         21.5200  -32.6000   16.5900 H         6 CUB7        0.0000 
     62 DU         26.2000  -35.6600   17.1300 H         6 CUB7        0.0000 
@<TRIPOS>BOND
@<TRIPOS>SUBSTRUCTURE
     1 SER1        1 GROUP   
     2 ALA2        3 GROUP   
     3 LYS4        5 GROUP   
     4 PHE5        8 GROUP   
     5 GLY6       50 GROUP   
     6 CUB7       51 GROUP   
@<TRIPOS>SET

