#    Name: 6ky6_2_EPR
#    Modification time : Fri May 22 19:28:15 2020

@<TRIPOS>MOLECULE
6ky6_2_EPR
   13    13     1     0     0
SMALL
NO_CHARGES


@<TRIPOS>ATOM
      1 N          16.0940  -39.3100   16.3900 N.am      1 EPR302      0.0000 
      2 O          16.7660  -41.5790   15.7990 O.2       1 EPR302      0.0000 
      3 S          15.4820  -36.7950   16.8650 S.2       1 EPR302      0.0000 
      4 C1         19.9540  -40.2910   13.9990 C.2       1 EPR302      0.0000 
      5 O1         17.0770  -38.6850   18.8160 O.co2     1 EPR302      0.0000 
      6 S1         17.2920  -37.9050   14.7590 S.3       1 EPR302      0.0000 
      7 O2         15.2490  -39.3500   19.8590 O.co2     1 EPR302      0.0000 
      8 C9         18.4820  -40.2870   13.5670 C.2       1 EPR302      0.0000 
      9 C10        17.5770  -39.5800   14.5860 C.2       1 EPR302      0.0000 
     10 C11        16.8010  -40.1890   15.6040 C.2       1 EPR302      0.0000 
     11 C12        16.2250  -38.0000   16.0930 C.2       1 EPR302      0.0000 
     12 C13        15.2620  -39.7500   17.4950 C.3       1 EPR302      0.0000 
     13 C14        15.9140  -39.2330   18.7940 C.2       1 EPR302      0.0000 
@<TRIPOS>BOND
     1    1   10 am   
     2    1   11 am   
     3    1   12 1    
     4    2   10 2    
     5    3   11 2    
     6    4    8 1    
     7    5   13 ar   
     8    6    9 1    
     9    6   11 1    
    10    7   13 ar   
    11    8    9 2    
    12    9   10 1    
    13   12   13 1    
@<TRIPOS>SUBSTRUCTURE
     1 EPR302      1 GROUP   
@<TRIPOS>SET

