#    Name: 6ky6_2_EPR_CAVITY_N1_4
#    Modification time : Fri May 22 19:28:16 2020

@<TRIPOS>MOLECULE
6ky6_2_EPR_CAVITY_N1_4
   67     0     6     0     0
SMALL
NO_CHARGES


@<TRIPOS>ATOM
      1 OG         15.8100  -38.2000   17.6700 O.3       1 SER1        0.0000 
      2 OG         16.7300  -37.3800   18.5200 O.3       1 SER1        0.0000 
      3 O          16.1700  -40.9000   11.9200 O.2       2 ALA2        0.0000 
      4 O          16.0500  -40.0000   13.8400 O.2       2 ALA2        0.0000 
      5 O          15.5600  -41.1800   15.5300 O.2       2 ALA2        0.0000 
      6 O          17.7800  -37.4500   17.4400 O.2       2 ALA2        0.0000 
      7 NZ         15.9800  -37.5700   11.5300 N.4       3 LYS4        0.0000 
      8 NZ         16.9100  -36.7400   12.3700 N.4       3 LYS4        0.0000 
      9 NZ         16.3500  -35.4900   11.7500 N.4       3 LYS4        0.0000 
     10 CZ         15.6100  -39.6500   11.3000 C.ar      4 PHE5        0.0000 
     11 CZ         18.6900  -41.3900   12.3100 C.ar      4 PHE5        0.0000 
     12 CZ         18.1300  -40.1400   11.6900 C.ar      4 PHE5        0.0000 
     13 CZ         17.5800  -38.8900   11.0700 C.ar      4 PHE5        0.0000 
     14 CZ         17.0900  -40.0700   12.7600 C.ar      4 PHE5        0.0000 
     15 CZ         16.5400  -38.8200   12.1400 C.ar      4 PHE5        0.0000 
     16 CZ         19.0600  -39.3100   12.5300 C.ar      4 PHE5        0.0000 
     17 CZ         18.5000  -38.0600   11.9100 C.ar      4 PHE5        0.0000 
     18 CZ         17.9500  -36.8100   11.2900 C.ar      4 PHE5        0.0000 
     19 CZ         16.9700  -39.1700   14.6800 C.ar      4 PHE5        0.0000 
     20 CZ         16.4200  -37.9200   14.0600 C.ar      4 PHE5        0.0000 
     21 CZ         15.8600  -36.6700   13.4400 C.ar      4 PHE5        0.0000 
     22 CZ         15.9300  -39.1000   15.7600 C.ar      4 PHE5        0.0000 
     23 CZ         15.3700  -37.8500   15.1400 C.ar      4 PHE5        0.0000 
     24 CZ         14.8800  -39.0300   16.8300 C.ar      4 PHE5        0.0000 
     25 CZ         14.3300  -37.7800   16.2100 C.ar      4 PHE5        0.0000 
     26 CZ         19.9800  -38.4800   13.3700 C.ar      4 PHE5        0.0000 
     27 CZ         19.4300  -37.2300   12.7600 C.ar      4 PHE5        0.0000 
     28 CZ         18.8700  -35.9800   12.1400 C.ar      4 PHE5        0.0000 
     29 CZ         16.2300  -34.6000   13.6700 C.ar      4 PHE5        0.0000 
     30 CZ         15.7400  -35.7800   15.3600 C.ar      4 PHE5        0.0000 
     31 CZ         15.2500  -36.9600   17.0600 C.ar      4 PHE5        0.0000 
     32 CZ         14.7000  -35.7100   16.4400 C.ar      4 PHE5        0.0000 
     33 CZ         14.7600  -38.1400   18.7500 C.ar      4 PHE5        0.0000 
     34 CZ         14.2100  -36.8900   18.1300 C.ar      4 PHE5        0.0000 
     35 CZ         22.5000  -38.9700   13.7600 C.ar      4 PHE5        0.0000 
     36 CZ         20.9100  -37.6500   14.2200 C.ar      4 PHE5        0.0000 
     37 CZ         20.3500  -36.4000   13.6000 C.ar      4 PHE5        0.0000 
     38 CZ         18.7500  -35.0900   14.0600 C.ar      4 PHE5        0.0000 
     39 CZ         18.8200  -37.5100   16.3700 C.ar      4 PHE5        0.0000 
     40 CZ         18.2600  -36.2700   15.7500 C.ar      4 PHE5        0.0000 
     41 CZ         17.7100  -35.0200   15.1300 C.ar      4 PHE5        0.0000 
     42 CZ         17.2200  -36.2000   16.8200 C.ar      4 PHE5        0.0000 
     43 CZ         16.1800  -36.1300   17.9000 C.ar      4 PHE5        0.0000 
     44 CZ         20.7900  -36.7600   16.1400 C.ar      4 PHE5        0.0000 
     45 CZ         19.7400  -36.6900   17.2100 C.ar      4 PHE5        0.0000 
     46 CZ         19.1900  -35.4400   16.5900 C.ar      4 PHE5        0.0000 
     47 CA         15.3100  -35.4200   12.8300 C.3       5 GLY6        0.0000 
     48 CA         17.2800  -34.6600   12.5900 C.3       5 GLY6        0.0000 
     49 DU         16.6600  -39.7200   10.2200 H         6 CUB7        0.0000 
     50 DU         18.5700  -40.4900   14.2200 H         6 CUB7        0.0000 
     51 DU         18.0100  -39.2400   13.6100 H         6 CUB7        0.0000 
     52 DU         17.4600  -37.9900   12.9900 H         6 CUB7        0.0000 
     53 DU         17.5300  -40.4200   15.3000 H         6 CUB7        0.0000 
     54 DU         16.4800  -40.3500   16.3700 H         6 CUB7        0.0000 
     55 DU         15.4400  -40.2800   17.4500 H         6 CUB7        0.0000 
     56 DU         18.9400  -38.4100   14.4500 H         6 CUB7        0.0000 
     57 DU         18.3800  -37.1600   13.8300 H         6 CUB7        0.0000 
     58 DU         17.8300  -35.9100   13.2100 H         6 CUB7        0.0000 
     59 DU         17.8900  -38.3400   15.5200 H         6 CUB7        0.0000 
     60 DU         17.3400  -37.0900   14.9100 H         6 CUB7        0.0000 
     61 DU         16.7900  -35.8400   14.2900 H         6 CUB7        0.0000 
     62 DU         16.8500  -38.2700   16.6000 H         6 CUB7        0.0000 
     63 DU         16.3000  -37.0200   15.9800 H         6 CUB7        0.0000 
     64 DU         16.3600  -39.4500   18.2900 H         6 CUB7        0.0000 
     65 DU         19.8600  -37.5800   15.2900 H         6 CUB7        0.0000 
     66 DU         19.3100  -36.3400   14.6700 H         6 CUB7        0.0000 
     67 DU         20.2300  -35.5100   15.5200 H         6 CUB7        0.0000 
@<TRIPOS>BOND
@<TRIPOS>SUBSTRUCTURE
     1 SER1        1 GROUP   
     2 ALA2        3 GROUP   
     3 LYS4        7 GROUP   
     4 PHE5       10 GROUP   
     5 GLY6       47 GROUP   
     6 CUB7       49 GROUP   
@<TRIPOS>SET

