#    Name: 6ky6_1_EPR
#    Modification time : Fri May 22 19:28:07 2020

@<TRIPOS>MOLECULE
6ky6_1_EPR
   13    13     1     0     0
SMALL
NO_CHARGES


@<TRIPOS>ATOM
      1 N          25.9060  -33.7230   14.5780 N.am      1 EPR302      0.0000 
      2 O          27.4770  -35.4750   15.2240 O.2       1 EPR302      0.0000 
      3 S          24.0720  -31.8990   14.0420 S.2       1 EPR302      0.0000 
      4 C1         24.9100  -37.5890   16.9520 C.2       1 EPR302      0.0000 
      5 O1         26.3660  -33.0260   11.1220 O.co2     1 EPR302      0.0000 
      6 S1         24.0500  -34.0000   16.1770 S.3       1 EPR302      0.0000 
      7 O2         24.8950  -34.2420   12.2040 O.co2     1 EPR302      0.0000 
      8 C9         25.4850  -36.2460   17.4190 C.2       1 EPR302      0.0000 
      9 C10        25.3380  -35.1130   16.3880 C.2       1 EPR302      0.0000 
     10 C11        26.2730  -34.7750   15.3830 C.2       1 EPR302      0.0000 
     11 C12        24.7120  -33.1520   14.8430 C.2       1 EPR302      0.0000 
     12 C13        26.7400  -33.2600   13.4840 C.3       1 EPR302      0.0000 
     13 C14        25.9530  -33.5300   12.1960 C.2       1 EPR302      0.0000 
@<TRIPOS>BOND
     1    1   10 am   
     2    1   11 am   
     3    1   12 1    
     4    2   10 2    
     5    3   11 2    
     6    4    8 1    
     7    5   13 ar   
     8    6    9 1    
     9    6   11 1    
    10    7   13 ar   
    11    8    9 2    
    12    9   10 1    
    13   12   13 1    
@<TRIPOS>SUBSTRUCTURE
     1 EPR302      1 GROUP   
@<TRIPOS>SET

