#    Name: 6ky6_2_EPR_CAVITY_N1_8
#    Modification time : Fri May 22 19:28:16 2020

@<TRIPOS>MOLECULE
6ky6_2_EPR_CAVITY_N1_8
  112     0     6     0     0
SMALL
NO_CHARGES


@<TRIPOS>ATOM
      1 OG         15.8100  -38.2000   17.6700 O.3       1 SER1        0.0000 
      2 OG         16.7300  -37.3800   18.5200 O.3       1 SER1        0.0000 
      3 O          16.1700  -40.9000   11.9200 O.2       2 ALA2        0.0000 
      4 O          16.0500  -40.0000   13.8400 O.2       2 ALA2        0.0000 
      5 O          15.5600  -41.1800   15.5300 O.2       2 ALA2        0.0000 
      6 O          19.8000  -35.1600   12.9800 O.2       2 ALA2        0.0000 
      7 O          17.7800  -37.4500   17.4400 O.2       2 ALA2        0.0000 
      8 O          23.7300  -33.6400   12.5200 O.2       2 ALA2        0.0000 
      9 NZ         17.0300  -37.6400   10.4500 N.4       3 LYS4        0.0000 
     10 NZ         15.9800  -37.5700   11.5300 N.4       3 LYS4        0.0000 
     11 NZ         17.3900  -35.5600   10.6700 N.4       3 LYS4        0.0000 
     12 NZ         16.9100  -36.7400   12.3700 N.4       3 LYS4        0.0000 
     13 NZ         16.3500  -35.4900   11.7500 N.4       3 LYS4        0.0000 
     14 NZ         21.9600  -32.9500   19.1200 N.4       3 LYS4        0.0000 
     15 CZ         15.6100  -39.6500   11.3000 C.ar      4 PHE5        0.0000 
     16 CZ         18.6900  -41.3900   12.3100 C.ar      4 PHE5        0.0000 
     17 CZ         18.1300  -40.1400   11.6900 C.ar      4 PHE5        0.0000 
     18 CZ         17.5800  -38.8900   11.0700 C.ar      4 PHE5        0.0000 
     19 CZ         17.0900  -40.0700   12.7600 C.ar      4 PHE5        0.0000 
     20 CZ         16.5400  -38.8200   12.1400 C.ar      4 PHE5        0.0000 
     21 CZ         19.0600  -39.3100   12.5300 C.ar      4 PHE5        0.0000 
     22 CZ         18.5000  -38.0600   11.9100 C.ar      4 PHE5        0.0000 
     23 CZ         17.9500  -36.8100   11.2900 C.ar      4 PHE5        0.0000 
     24 CZ         16.9700  -39.1700   14.6800 C.ar      4 PHE5        0.0000 
     25 CZ         16.4200  -37.9200   14.0600 C.ar      4 PHE5        0.0000 
     26 CZ         15.8600  -36.6700   13.4400 C.ar      4 PHE5        0.0000 
     27 CZ         15.9300  -39.1000   15.7600 C.ar      4 PHE5        0.0000 
     28 CZ         15.3700  -37.8500   15.1400 C.ar      4 PHE5        0.0000 
     29 CZ         14.8800  -39.0300   16.8300 C.ar      4 PHE5        0.0000 
     30 CZ         14.3300  -37.7800   16.2100 C.ar      4 PHE5        0.0000 
     31 CZ         19.9800  -38.4800   13.3700 C.ar      4 PHE5        0.0000 
     32 CZ         19.4300  -37.2300   12.7600 C.ar      4 PHE5        0.0000 
     33 CZ         18.8700  -35.9800   12.1400 C.ar      4 PHE5        0.0000 
     34 CZ         18.3200  -34.7300   11.5200 C.ar      4 PHE5        0.0000 
     35 CZ         16.2300  -34.6000   13.6700 C.ar      4 PHE5        0.0000 
     36 CZ         15.7400  -35.7800   15.3600 C.ar      4 PHE5        0.0000 
     37 CZ         15.2500  -36.9600   17.0600 C.ar      4 PHE5        0.0000 
     38 CZ         14.7000  -35.7100   16.4400 C.ar      4 PHE5        0.0000 
     39 CZ         14.7600  -38.1400   18.7500 C.ar      4 PHE5        0.0000 
     40 CZ         14.2100  -36.8900   18.1300 C.ar      4 PHE5        0.0000 
     41 CZ         22.5000  -38.9700   13.7600 C.ar      4 PHE5        0.0000 
     42 CZ         20.9100  -37.6500   14.2200 C.ar      4 PHE5        0.0000 
     43 CZ         20.3500  -36.4000   13.6000 C.ar      4 PHE5        0.0000 
     44 CZ         18.7500  -35.0900   14.0600 C.ar      4 PHE5        0.0000 
     45 CZ         18.2000  -33.8400   13.4400 C.ar      4 PHE5        0.0000 
     46 CZ         18.8200  -37.5100   16.3700 C.ar      4 PHE5        0.0000 
     47 CZ         18.2600  -36.2700   15.7500 C.ar      4 PHE5        0.0000 
     48 CZ         17.7100  -35.0200   15.1300 C.ar      4 PHE5        0.0000 
     49 CZ         17.2200  -36.2000   16.8200 C.ar      4 PHE5        0.0000 
     50 CZ         16.1800  -36.1300   17.9000 C.ar      4 PHE5        0.0000 
     51 CZ         22.8700  -36.8900   13.9900 C.ar      4 PHE5        0.0000 
     52 CZ         21.8300  -36.8300   15.0600 C.ar      4 PHE5        0.0000 
     53 CZ         21.2800  -35.5800   14.4400 C.ar      4 PHE5        0.0000 
     54 CZ         20.7200  -34.3300   13.8200 C.ar      4 PHE5        0.0000 
     55 CZ         20.7900  -36.7600   16.1400 C.ar      4 PHE5        0.0000 
     56 CZ         19.6800  -34.2600   14.9000 C.ar      4 PHE5        0.0000 
     57 CZ         19.7400  -36.6900   17.2100 C.ar      4 PHE5        0.0000 
     58 CZ         19.1900  -35.4400   16.5900 C.ar      4 PHE5        0.0000 
     59 CZ         18.6300  -34.1900   15.9700 C.ar      4 PHE5        0.0000 
     60 CZ         24.2900  -34.8900   13.1400 C.ar      4 PHE5        0.0000 
     61 CZ         23.2400  -34.8200   14.2100 C.ar      4 PHE5        0.0000 
     62 CZ         22.6900  -33.5700   13.5900 C.ar      4 PHE5        0.0000 
     63 CZ         23.3100  -37.2500   16.5200 C.ar      4 PHE5        0.0000 
     64 CZ         21.6400  -33.5000   14.6700 C.ar      4 PHE5        0.0000 
     65 CZ         21.7100  -35.9300   16.9800 C.ar      4 PHE5        0.0000 
     66 CZ         20.6000  -33.4300   15.7400 C.ar      4 PHE5        0.0000 
     67 CZ         20.1100  -34.6100   17.4400 C.ar      4 PHE5        0.0000 
     68 CZ         19.5600  -33.3600   16.8200 C.ar      4 PHE5        0.0000 
     69 CZ         24.7900  -37.6700   17.9800 C.ar      4 PHE5        0.0000 
     70 CZ         24.2300  -36.4200   17.3700 C.ar      4 PHE5        0.0000 
     71 CZ         22.5700  -32.6700   15.5100 C.ar      4 PHE5        0.0000 
     72 CZ         23.1900  -36.3500   18.4400 C.ar      4 PHE5        0.0000 
     73 CZ         22.6300  -35.1000   17.8200 C.ar      4 PHE5        0.0000 
     74 CZ         20.9700  -31.3500   15.9700 C.ar      4 PHE5        0.0000 
     75 CZ         21.5900  -35.0300   18.9000 C.ar      4 PHE5        0.0000 
     76 CZ         21.0400  -33.7800   18.2800 C.ar      4 PHE5        0.0000 
     77 CZ         20.4800  -32.5300   17.6600 C.ar      4 PHE5        0.0000 
     78 CZ         24.1100  -35.5200   19.2800 C.ar      4 PHE5        0.0000 
     79 CZ         23.5600  -34.2700   18.6700 C.ar      4 PHE5        0.0000 
     80 CZ         22.5100  -34.2000   19.7400 C.ar      4 PHE5        0.0000 
     81 CA         15.3100  -35.4200   12.8300 C.3       5 GLY6        0.0000 
     82 CA         17.2800  -34.6600   12.5900 C.3       5 GLY6        0.0000 
     83 CA         16.7200  -33.4200   11.9700 C.3       5 GLY6        0.0000 
     84 DU         16.2900  -41.7900   10.0000 H         6 CUB7        0.0000 
     85 DU         16.6600  -39.7200   10.2200 H         6 CUB7        0.0000 
     86 DU         18.5700  -40.4900   14.2200 H         6 CUB7        0.0000 
     87 DU         18.0100  -39.2400   13.6100 H         6 CUB7        0.0000 
     88 DU         17.4600  -37.9900   12.9900 H         6 CUB7        0.0000 
     89 DU         17.5300  -40.4200   15.3000 H         6 CUB7        0.0000 
     90 DU         16.4800  -40.3500   16.3700 H         6 CUB7        0.0000 
     91 DU         15.4400  -40.2800   17.4500 H         6 CUB7        0.0000 
     92 DU         18.9400  -38.4100   14.4500 H         6 CUB7        0.0000 
     93 DU         18.3800  -37.1600   13.8300 H         6 CUB7        0.0000 
     94 DU         17.8300  -35.9100   13.2100 H         6 CUB7        0.0000 
     95 DU         17.8900  -38.3400   15.5200 H         6 CUB7        0.0000 
     96 DU         17.3400  -37.0900   14.9100 H         6 CUB7        0.0000 
     97 DU         16.7900  -35.8400   14.2900 H         6 CUB7        0.0000 
     98 DU         16.8500  -38.2700   16.6000 H         6 CUB7        0.0000 
     99 DU         16.3000  -37.0200   15.9800 H         6 CUB7        0.0000 
    100 DU         16.3600  -39.4500   18.2900 H         6 CUB7        0.0000 
    101 DU         19.8600  -37.5800   15.2900 H         6 CUB7        0.0000 
    102 DU         19.3100  -36.3400   14.6700 H         6 CUB7        0.0000 
    103 DU         20.2300  -35.5100   15.5200 H         6 CUB7        0.0000 
    104 DU         22.7500  -36.0000   15.9000 H         6 CUB7        0.0000 
    105 DU         22.2000  -34.7500   15.2900 H         6 CUB7        0.0000 
    106 DU         21.1600  -34.6800   16.3600 H         6 CUB7        0.0000 
    107 DU         24.7200  -35.2400   15.6700 H         6 CUB7        0.0000 
    108 DU         24.1700  -33.9900   15.0500 H         6 CUB7        0.0000 
    109 DU         23.6800  -35.1700   16.7500 H         6 CUB7        0.0000 
    110 DU         23.1200  -33.9200   16.1300 H         6 CUB7        0.0000 
    111 DU         22.0800  -33.8500   17.2000 H         6 CUB7        0.0000 
    112 DU         21.5200  -32.6000   16.5900 H         6 CUB7        0.0000 
@<TRIPOS>BOND
@<TRIPOS>SUBSTRUCTURE
     1 SER1        1 GROUP   
     2 ALA2        3 GROUP   
     3 LYS4        9 GROUP   
     4 PHE5       15 GROUP   
     5 GLY6       81 GROUP   
     6 CUB7       84 GROUP   
@<TRIPOS>SET

