#    Name: 5w4y_2_FMN
#    Modification time : Fri May 22 19:12:52 2020

@<TRIPOS>MOLECULE
5w4y_2_FMN
   50    52     1     0     1
SMALL
NO_CHARGES


@<TRIPOS>ATOM
      1 N1         22.2820   -9.4200  -18.7680 N.2       1 FMN501      0.0000 
      2 C2         22.7390   -8.2650  -18.1620 C.2       1 FMN501      0.0000 
      3 O2         22.3900   -7.1650  -18.5900 O.2       1 FMN501      0.0000 
      4 N3         23.5930   -8.3300  -17.0750 N.am      1 FMN501      0.0000 
      5 C4         24.0050   -9.5540  -16.5800 C.2       1 FMN501      0.0000 
      6 O4         24.7790   -9.5600  -15.6000 O.2       1 FMN501      0.0000 
      7 C4A        23.5440  -10.7380  -17.2050 C.2       1 FMN501      0.0000 
      8 N5         23.9290  -11.9910  -16.7530 N.2       1 FMN501      0.0000 
      9 C5A        23.4590  -13.1420  -17.3740 C.ar      1 FMN501      0.0000 
     10 C6         23.8500  -14.3920  -16.8980 C.ar      1 FMN501      0.0000 
     11 C7         23.3930  -15.5630  -17.4990 C.ar      1 FMN501      0.0000 
     12 C7M        23.8650  -16.8730  -16.9310 C.3       1 FMN501      0.0000 
     13 C8         22.5260  -15.4890  -18.5980 C.ar      1 FMN501      0.0000 
     14 C8M        22.0070  -16.7260  -19.2890 C.3       1 FMN501      0.0000 
     15 C9         22.1310  -14.2410  -19.0740 C.ar      1 FMN501      0.0000 
     16 C9A        22.5900  -13.0610  -18.4680 C.ar      1 FMN501      0.0000 
     17 N10        22.1960  -11.8110  -18.9370 N.pl3     1 FMN501      0.0000 
     18 C10        22.6730  -10.6620  -18.3040 C.2       1 FMN501      0.0000 
     19 C1'        21.2660  -11.6910  -20.1240 C.3       1 FMN501      0.0000 
     20 C2'        22.0610  -11.8690  -21.4150 C.3       1 FMN501      0.0000 
     21 O2'        23.2010  -11.0150  -21.4070 O.3       1 FMN501      0.0000 
     22 C3'        21.2550  -11.6450  -22.7130 C.3       1 FMN501      0.0000 
     23 O3'        20.9450  -10.2950  -22.9430 O.3       1 FMN501      0.0000 
     24 C4'        19.9970  -12.5200  -22.7990 C.3       1 FMN501      0.0000 
     25 O4'        20.4550  -13.8620  -22.7900 O.3       1 FMN501      0.0000 
     26 C5'        19.1220  -12.1980  -24.0290 C.3       1 FMN501      0.0000 
     27 O5'        19.8640  -12.2560  -25.2380 O.3       1 FMN501      0.0000 
     28 P          19.9960  -11.0200  -26.2870 P.3       1 FMN501      0.0000 
     29 O1P        20.7950   -9.9550  -25.5790 O.co2     1 FMN501      0.0000 
     30 O2P        20.8420  -11.4500  -27.4710 O.co2     1 FMN501      0.0000 
     31 O3P        18.6210  -10.5470  -26.6540 O.co2     1 FMN501      0.0000 
     32 HN3        23.9280   -7.4530  -16.6270 H         1 FMN501      0.0000 
     33 H6         24.5230  -14.4550  -16.0420 H         1 FMN501      0.0000 
     34 HM71       23.4320  -17.6940  -17.5010 H         1 FMN501      0.0000 
     35 HM72       23.5550  -16.9500  -15.8890 H         1 FMN501      0.0000 
     36 HM73       24.9530  -16.9240  -16.9910 H         1 FMN501      0.0000 
     37 HM81       21.3570  -16.4350  -20.1140 H         1 FMN501      0.0000 
     38 HM82       21.4440  -17.3310  -18.5790 H         1 FMN501      0.0000 
     39 HM83       22.8460  -17.3060  -19.6750 H         1 FMN501      0.0000 
     40 H9         21.4570  -14.1790  -19.9280 H         1 FMN501      0.0000 
     41 H1'1       20.7850  -10.7130  -20.1190 H         1 FMN501      0.0000 
     42 H1'2       20.4890  -12.4530  -20.0620 H         1 FMN501      0.0000 
     43 H2'        22.4110  -12.9010  -21.4330 H         1 FMN501      0.0000 
     44 HO2'       23.2140  -10.4800  -22.2280 H         1 FMN501      0.0000 
     45 H3'        21.9030  -11.9690  -23.5280 H         1 FMN501      0.0000 
     46 HO3'       19.9840  -10.2050  -23.1100 H         1 FMN501      0.0000 
     47 H4'        19.4000  -12.3400  -21.9050 H         1 FMN501      0.0000 
     48 HO4'       20.1170  -14.3280  -23.5830 H         1 FMN501      0.0000 
     49 H5'1       18.6950  -11.2020  -23.9170 H         1 FMN501      0.0000 
     50 H5'2       18.2970  -12.9090  -24.0800 H         1 FMN501      0.0000 
@<TRIPOS>BOND
     1    1    2 1    
     2    1   18 2    
     3    2    3 2    
     4    2    4 am   
     5    4    5 am   
     6    4   32 1    
     7    5    6 2    
     8    5    7 1    
     9    7    8 2    
    10    7   18 1    
    11    8    9 1    
    12    9   10 ar   
    13    9   16 ar   
    14   10   11 ar   
    15   10   33 1    
    16   11   12 1    
    17   11   13 ar   
    18   12   34 1    
    19   12   35 1    
    20   12   36 1    
    21   13   14 1    
    22   13   15 ar   
    23   14   37 1    
    24   14   38 1    
    25   14   39 1    
    26   15   16 ar   
    27   15   40 1    
    28   16   17 1    
    29   17   18 1    
    30   17   19 1    
    31   19   20 1    
    32   19   41 1    
    33   19   42 1    
    34   20   21 1    
    35   20   22 1    
    36   20   43 1    
    37   21   44 1    
    38   22   23 1    
    39   22   24 1    
    40   22   45 1    
    41   23   46 1    
    42   24   25 1    
    43   24   26 1    
    44   24   47 1    
    45   25   48 1    
    46   26   27 1    
    47   26   49 1    
    48   26   50 1    
    49   27   28 1    
    50   28   29 ar   
    51   28   30 ar   
    52   28   31 ar   
@<TRIPOS>SUBSTRUCTURE
     1 FMN501      1 GROUP   
@<TRIPOS>SET
ATOM$ORANGE STATIC     ATOMS   COLORGROUP SYSTEM 
34 2 2 5 5 7 7 9 9 10 10 11 11 12 12 13 13 14 \
14 15 15 16 16 18 18 19 19 20 20 22 22 24 24 26 26 

