#    Name: 5w4y_1_FMN
#    Modification time : Fri May 22 19:12:45 2020

@<TRIPOS>MOLECULE
5w4y_1_FMN
   50    52     1     0     1
SMALL
NO_CHARGES


@<TRIPOS>ATOM
      1 N1         45.1370   17.7540  -11.5090 N.2       1 FMN501      0.0000 
      2 C2         44.7120   16.5710  -12.0860 C.2       1 FMN501      0.0000 
      3 O2         44.2120   16.5620  -13.2020 O.2       1 FMN501      0.0000 
      4 N3         44.8690   15.3840  -11.4030 N.am      1 FMN501      0.0000 
      5 C4         45.4250   15.3680  -10.1360 C.2       1 FMN501      0.0000 
      6 O4         45.5050   14.2940   -9.5240 O.2       1 FMN501      0.0000 
      7 C4A        45.8390   16.5690   -9.5490 C.2       1 FMN501      0.0000 
      8 N5         46.4110   16.5770   -8.2940 N.2       1 FMN501      0.0000 
      9 C5A        46.8680   17.7700   -7.7490 C.ar      1 FMN501      0.0000 
     10 C6         47.4420   17.7720   -6.4840 C.ar      1 FMN501      0.0000 
     11 C7         47.9030   18.9630   -5.9120 C.ar      1 FMN501      0.0000 
     12 C7M        48.5240   18.8930   -4.5430 C.3       1 FMN501      0.0000 
     13 C8         47.7730   20.1690   -6.6140 C.ar      1 FMN501      0.0000 
     14 C8M        48.2430   21.4870   -6.0440 C.3       1 FMN501      0.0000 
     15 C9         47.1940   20.1640   -7.8790 C.ar      1 FMN501      0.0000 
     16 C9A        46.7330   18.9760   -8.4560 C.ar      1 FMN501      0.0000 
     17 N10        46.1530   18.9800   -9.7250 N.pl3     1 FMN501      0.0000 
     18 C10        45.7250   17.7700  -10.2650 C.2       1 FMN501      0.0000 
     19 C1'        45.9930   20.2580  -10.5300 C.3       1 FMN501      0.0000 
     20 C2'        44.8050   21.0680  -10.0070 C.3       1 FMN501      0.0000 
     21 O2'        43.6570   20.2510   -9.9270 O.3       1 FMN501      0.0000 
     22 C3'        44.4670   22.3260  -10.8340 C.3       1 FMN501      0.0000 
     23 O3'        43.9820   22.0220  -12.1170 O.3       1 FMN501      0.0000 
     24 C4'        45.6610   23.2810  -10.9100 C.3       1 FMN501      0.0000 
     25 O4'        45.9800   23.5750   -9.5650 O.3       1 FMN501      0.0000 
     26 C5'        45.3500   24.5590  -11.6930 C.3       1 FMN501      0.0000 
     27 O5'        44.2300   25.2240  -11.1230 O.3       1 FMN501      0.0000 
     28 P          42.9500   25.6290  -12.0160 P.3       1 FMN501      0.0000 
     29 O1P        43.4170   26.4540  -13.1840 O.co2     1 FMN501      0.0000 
     30 O2P        41.9590   26.4190  -11.2000 O.co2     1 FMN501      0.0000 
     31 O3P        42.3270   24.3320  -12.4900 O.co2     1 FMN501      0.0000 
     32 HN3        44.5670   14.4920  -11.8450 H         1 FMN501      0.0000 
     33 H6         47.5340   16.8360   -5.9310 H         1 FMN501      0.0000 
     34 HM71       48.8290   19.8920   -4.2310 H         1 FMN501      0.0000 
     35 HM72       49.3960   18.2390   -4.5730 H         1 FMN501      0.0000 
     36 HM73       47.7970   18.4980   -3.8340 H         1 FMN501      0.0000 
     37 HM81       48.0420   22.2850   -6.7590 H         1 FMN501      0.0000 
     38 HM82       49.3140   21.4370   -5.8470 H         1 FMN501      0.0000 
     39 HM83       47.7120   21.6910   -5.1140 H         1 FMN501      0.0000 
     40 H9         47.0980   21.1000   -8.4290 H         1 FMN501      0.0000 
     41 H1'1       45.8340   20.0120  -11.5800 H         1 FMN501      0.0000 
     42 H1'2       46.9030   20.8530  -10.4570 H         1 FMN501      0.0000 
     43 H2'        45.0610   21.4020   -9.0020 H         1 FMN501      0.0000 
     44 HO2'       42.9200   20.6740  -10.4130 H         1 FMN501      0.0000 
     45 H3'        43.6780   22.8510  -10.2950 H         1 FMN501      0.0000 
     46 HO3'       44.5190   22.4920  -12.7890 H         1 FMN501      0.0000 
     47 H4'        46.4950   22.7660  -11.3880 H         1 FMN501      0.0000 
     48 HO4'       45.9320   24.5430   -9.4230 H         1 FMN501      0.0000 
     49 H5'1       45.1380   24.3090  -12.7330 H         1 FMN501      0.0000 
     50 H5'2       46.2170   25.2200  -11.6750 H         1 FMN501      0.0000 
@<TRIPOS>BOND
     1    1    2 1    
     2    1   18 2    
     3    2    3 2    
     4    2    4 am   
     5    4    5 am   
     6    4   32 1    
     7    5    6 2    
     8    5    7 1    
     9    7    8 2    
    10    7   18 1    
    11    8    9 1    
    12    9   10 ar   
    13    9   16 ar   
    14   10   11 ar   
    15   10   33 1    
    16   11   12 1    
    17   11   13 ar   
    18   12   34 1    
    19   12   35 1    
    20   12   36 1    
    21   13   14 1    
    22   13   15 ar   
    23   14   37 1    
    24   14   38 1    
    25   14   39 1    
    26   15   16 ar   
    27   15   40 1    
    28   16   17 1    
    29   17   18 1    
    30   17   19 1    
    31   19   20 1    
    32   19   41 1    
    33   19   42 1    
    34   20   21 1    
    35   20   22 1    
    36   20   43 1    
    37   21   44 1    
    38   22   23 1    
    39   22   24 1    
    40   22   45 1    
    41   23   46 1    
    42   24   25 1    
    43   24   26 1    
    44   24   47 1    
    45   25   48 1    
    46   26   27 1    
    47   26   49 1    
    48   26   50 1    
    49   27   28 1    
    50   28   29 ar   
    51   28   30 ar   
    52   28   31 ar   
@<TRIPOS>SUBSTRUCTURE
     1 FMN501      1 GROUP   
@<TRIPOS>SET
ATOM$ORANGE STATIC     ATOMS   COLORGROUP SYSTEM 
34 2 2 5 5 7 7 9 9 10 10 11 11 12 12 13 13 14 \
14 15 15 16 16 18 18 19 19 20 20 22 22 24 24 26 26 

