#    Name: 5w4y_1_FMN_CAVITY_N1_4
#    Modification time : Fri May 22 19:12:47 2020

@<TRIPOS>MOLECULE
5w4y_1_FMN_CAVITY_N1_4
   86     0     4     0     0
SMALL
NO_CHARGES


@<TRIPOS>ATOM
      1 N          44.4700   16.0400  -12.0600 N.am      1 ALA2        0.0000 
      2 N          45.2000   15.9800  -13.3700 N.am      1 ALA2        0.0000 
      3 O          44.8600   16.0700   -8.4000 O.2       1 ALA2        0.0000 
      4 O          45.5900   16.0100   -9.7100 O.2       1 ALA2        0.0000 
      5 O          43.7400   19.2700  -12.6200 O.2       1 ALA2        0.0000 
      6 N          46.3200   15.9400  -11.0200 N.am      1 ALA2        0.0000 
      7 O          45.3300   18.0900  -13.4000 O.2       1 ALA2        0.0000 
      8 O          44.2600   18.2500   -7.1300 O.2       1 ALA2        0.0000 
      9 O          45.1100   17.1400   -6.5900 O.2       1 ALA2        0.0000 
     10 O          44.9900   18.1900   -8.4400 O.2       1 ALA2        0.0000 
     11 O          45.8500   17.0800   -7.9000 O.2       1 ALA2        0.0000 
     12 N          44.2600   21.4100   -9.0000 N.am      1 ALA2        0.0000 
     13 N          45.9800   22.3600   -9.8100 N.am      1 ALA2        0.0000 
     14 N          47.1000   22.3200   -7.4600 N.am      1 ALA2        0.0000 
     15 N          47.3500   23.4000   -5.6500 N.am      1 ALA2        0.0000 
     16 O          48.2100   22.2900   -5.1100 O.2       1 ALA2        0.0000 
     17 O          49.0700   21.1800   -4.5800 O.2       1 ALA2        0.0000 
     18 N          47.2300   24.4400   -7.4900 N.am      1 ALA2        0.0000 
     19 O          48.9400   22.2300   -6.4200 O.2       1 ALA2        0.0000 
     20 N          51.3900   19.9400   -6.6600 N.am      1 ALA2        0.0000 
     21 CZ         45.7100   14.9600   -7.8700 C.ar      2 PHE5        0.0000 
     22 CZ         46.7000   15.9700   -7.3700 C.ar      2 PHE5        0.0000 
     23 CZ         46.9600   17.0500   -5.5500 C.ar      2 PHE5        0.0000 
     24 CZ         47.6900   16.9800   -6.8600 C.ar      2 PHE5        0.0000 
     25 CZ         48.4200   16.9200   -8.1700 C.ar      2 PHE5        0.0000 
     26 CZ         50.0100   15.7400   -8.9400 C.ar      2 PHE5        0.0000 
     27 CZ         47.2200   18.1200   -3.7400 C.ar      2 PHE5        0.0000 
     28 CZ         47.9500   18.0600   -5.0500 C.ar      2 PHE5        0.0000 
     29 CZ         48.8100   16.9500   -4.5200 C.ar      2 PHE5        0.0000 
     30 CZ         48.6800   17.9900   -6.3600 C.ar      2 PHE5        0.0000 
     31 CZ         50.2700   16.8200   -7.1300 C.ar      2 PHE5        0.0000 
     32 CZ         50.5300   17.8900   -5.3200 C.ar      2 PHE5        0.0000 
     33 CZ         51.2600   17.8300   -6.6300 C.ar      2 PHE5        0.0000 
     34 CA         44.6000   15.0000  -10.2100 C.3       3 GLY6        0.0000 
     35 CA         43.6100   17.1500  -12.5900 C.3       3 GLY6        0.0000 
     36 CA         44.0000   17.1800   -8.9400 C.3       3 GLY6        0.0000 
     37 CA         43.8700   18.2200  -10.7800 C.3       3 GLY6        0.0000 
     38 CA         44.7300   17.1100  -10.2500 C.3       3 GLY6        0.0000 
     39 CA         46.4500   14.9000   -9.1800 C.3       3 GLY6        0.0000 
     40 CA         44.6000   18.1600  -12.0900 C.3       3 GLY6        0.0000 
     41 CA         44.1300   19.3000   -8.9700 C.3       3 GLY6        0.0000 
     42 CA         47.4400   15.9100   -8.6700 C.3       3 GLY6        0.0000 
     43 CA         48.2900   14.8000   -8.1400 C.3       3 GLY6        0.0000 
     44 CA         45.4600   20.2100  -13.4300 C.3       3 GLY6        0.0000 
     45 CA         46.1000   18.1500   -6.0900 C.3       3 GLY6        0.0000 
     46 CA         45.1200   20.3100   -8.4700 C.3       3 GLY6        0.0000 
     47 CA         45.9800   19.2000   -7.9300 C.3       3 GLY6        0.0000 
     48 CA         47.0900   19.1600   -5.5900 C.3       3 GLY6        0.0000 
     49 CA         46.1100   21.3100   -7.9600 C.3       3 GLY6        0.0000 
     50 CA         46.9600   20.2100   -7.4300 C.3       3 GLY6        0.0000 
     51 CA         48.2100   19.1300   -3.2400 C.3       3 GLY6        0.0000 
     52 CA         46.3600   22.3900   -6.1500 C.3       3 GLY6        0.0000 
     53 CA         47.2200   21.2800   -5.6200 C.3       3 GLY6        0.0000 
     54 CA         48.0800   20.1700   -5.0800 C.3       3 GLY6        0.0000 
     55 CA         49.8000   17.9600   -4.0100 C.3       3 GLY6        0.0000 
     56 CA         47.9500   21.2200   -6.9300 C.3       3 GLY6        0.0000 
     57 CA         49.9300   20.0700   -4.0400 C.3       3 GLY6        0.0000 
     58 CA         49.8000   21.1200   -5.8900 C.3       3 GLY6        0.0000 
     59 CA         50.6600   20.0100   -5.3500 C.3       3 GLY6        0.0000 
     60 CA         49.9300   23.2300   -5.9200 C.3       3 GLY6        0.0000 
     61 CA         51.6500   21.0200   -4.8500 C.3       3 GLY6        0.0000 
     62 CA         51.5200   22.0600   -6.6900 C.3       3 GLY6        0.0000 
     63 DU         45.4600   17.0500  -11.5500 H         4 CUB7        0.0000 
     64 DU         44.0000   20.3400  -10.8100 H         4 CUB7        0.0000 
     65 DU         44.8600   19.2300  -10.2800 H         4 CUB7        0.0000 
     66 DU         45.7200   18.1200   -9.7400 H         4 CUB7        0.0000 
     67 DU         46.5800   17.0200   -9.2100 H         4 CUB7        0.0000 
     68 DU         44.7300   20.2700  -12.1200 H         4 CUB7        0.0000 
     69 DU         45.5900   19.1700  -11.5900 H         4 CUB7        0.0000 
     70 DU         47.3100   16.9500  -10.5200 H         4 CUB7        0.0000 
     71 DU         48.1700   15.8400   -9.9800 H         4 CUB7        0.0000 
     72 DU         48.0400   16.8900  -11.8200 H         4 CUB7        0.0000 
     73 DU         46.8300   18.0900   -7.4000 H         4 CUB7        0.0000 
     74 DU         45.8500   20.2400   -9.7700 H         4 CUB7        0.0000 
     75 DU         46.7100   19.1300   -9.2400 H         4 CUB7        0.0000 
     76 DU         49.1600   16.8500   -9.4800 H         4 CUB7        0.0000 
     77 DU         47.8200   19.1000   -6.8900 H         4 CUB7        0.0000 
     78 DU         46.8400   21.2500   -9.2700 H         4 CUB7        0.0000 
     79 DU         47.7000   20.1400   -8.7400 H         4 CUB7        0.0000 
     80 DU         49.4100   17.9300   -7.6700 H         4 CUB7        0.0000 
     81 DU         50.1400   17.8600   -8.9800 H         4 CUB7        0.0000 
     82 DU         48.9400   19.0600   -4.5500 H         4 CUB7        0.0000 
     83 DU         48.8100   20.1100   -6.3900 H         4 CUB7        0.0000 
     84 DU         49.6700   19.0000   -5.8600 H         4 CUB7        0.0000 
     85 DU         50.4000   18.9400   -7.1600 H         4 CUB7        0.0000 
     86 DU         50.5300   21.0500   -7.2000 H         4 CUB7        0.0000 
@<TRIPOS>BOND
@<TRIPOS>SUBSTRUCTURE
     1 ALA2        1 GROUP   
     2 PHE5       21 GROUP   
     3 GLY6       34 GROUP   
     4 CUB7       63 GROUP   
@<TRIPOS>SET

