#    Name: 5wim_1_35R
#    Modification time : Fri May 22 19:13:10 2020

@<TRIPOS>MOLECULE
5wim_1_35R
   28    32     1     0     0
SMALL
NO_CHARGES


@<TRIPOS>ATOM
      1 O1         -5.5240   -6.8230   -1.0790           1 35R901      0.0000 
      2 C2         -4.4880   -6.2430   -1.0220           1 35R901      0.0000 
      3 N3         -4.0880   -5.2290   -2.0120           1 35R901      0.0000 
      4 C4         -4.8850   -4.7780   -3.1710           1 35R901      0.0000 
      5 C5         -6.1760   -5.5090   -3.5900           1 35R901      0.0000 
      6 C6         -6.2650   -4.2010   -2.8010           1 35R901      0.0000 
      7 N7         -3.6000   -6.5930    0.0910           1 35R901      0.0000 
      8 C8         -2.2820   -6.0070    0.3620           1 35R901      0.0000 
      9 C9         -1.5980   -5.0630   -0.3600           1 35R901      0.0000 
     10 N10        -0.3840   -4.8100    0.3120           1 35R901      0.0000 
     11 N12        -0.3440   -5.6190    1.4680           1 35R901      0.0000 
     12 C13        -1.5060   -6.3370    1.5170           1 35R901      0.0000 
     13 C14        -1.9350   -7.3890    2.5610           1 35R901      0.0000 
     14 N15        -2.9600   -8.2620    2.3430           1 35R901      0.0000 
     15 C16        -2.9650   -9.0930    3.6360           1 35R901      0.0000 
     16 C17        -3.7450  -10.1550    4.1050           1 35R901      0.0000 
     17 C18        -3.4550  -10.6910    5.3830           1 35R901      0.0000 
     18 C19        -2.4180  -10.1690    6.1910           1 35R901      0.0000 
     19 C20        -2.1220  -10.8070    7.5810           1 35R901      0.0000 
     20 N21        -2.8020  -10.2370    8.7450           1 35R901      0.0000 
     21 C23        -3.7660   -9.2100    8.4240           1 35R901      0.0000 
     22 C24        -4.3990   -8.6660    9.6870           1 35R901      0.0000 
     23 O25        -4.0090   -9.3440   10.8330           1 35R901      0.0000 
     24 C26        -4.2410  -10.7310   10.7150           1 35R901      0.0000 
     25 C27        -3.4810  -11.3300    9.4720           1 35R901      0.0000 
     26 C28        -1.6400   -9.1150    5.6980           1 35R901      0.0000 
     27 C29        -1.9030   -8.5790    4.4550           1 35R901      0.0000 
     28 N30        -1.4350   -7.6470    3.7100           1 35R901      0.0000 
@<TRIPOS>BOND
     1    1    2 du   
     2    2    3 du   
     3    2    7 du   
     4    3    4 du   
     5    4    5 du   
     6    4    6 du   
     7    5    6 du   
     8    7    8 du   
     9    8    9 du   
    10    8   12 du   
    11    9   10 du   
    12   10   11 du   
    13   11   12 du   
    14   12   13 du   
    15   13   14 du   
    16   13   28 du   
    17   14   15 du   
    18   15   16 du   
    19   15   27 du   
    20   16   17 du   
    21   17   18 du   
    22   18   19 du   
    23   18   26 du   
    24   19   20 du   
    25   20   21 du   
    26   20   25 du   
    27   21   22 du   
    28   22   23 du   
    29   23   24 du   
    30   24   25 du   
    31   26   27 du   
    32   27   28 du   
@<TRIPOS>SUBSTRUCTURE
     1 35R901      1 GROUP   
@<TRIPOS>SET

