#    Name: 5qii_4_NAP
#    Modification time : Fri May 22 19:12:43 2020

@<TRIPOS>MOLECULE
5qii_4_NAP
   76    80     1     0     1
SMALL
NO_CHARGES


@<TRIPOS>ATOM
      1 PA         12.9820   76.5270  113.8680 P.3       1 NAP301      0.0000 
      2 O1A        12.2030   77.0520  112.7230 O.co2     1 NAP301      0.0000 
      3 O2A        13.9460   77.5250  114.4870 O.co2     1 NAP301      0.0000 
      4 O5B        12.0000   76.0650  115.0480 O.3       1 NAP301      0.0000 
      5 C5B        12.4460   75.6720  116.3610 C.3       1 NAP301      0.0000 
      6 C4B        11.2390   75.2620  117.1650 C.3       1 NAP301      0.0000 
      7 O4B        11.6470   74.8330  118.4890 O.3       1 NAP301      0.0000 
      8 C3B        10.1980   76.3610  117.3740 C.3       1 NAP301      0.0000 
      9 O3B         8.8820   75.8320  117.3440 O.3       1 NAP301      0.0000 
     10 C2B        10.5260   76.8550  118.7730 C.3       1 NAP301      0.0000 
     11 O2B         9.3790   77.5030  119.3550 O.3       1 NAP301      0.0000 
     12 C1B        10.9430   75.5640  119.4690 C.3       1 NAP301      0.0000 
     13 N9A        11.8140   75.7270  120.6330 N.pl3     1 NAP301      0.0000 
     14 C8A        12.8870   76.5760  120.7410 C.2       1 NAP301      0.0000 
     15 N7A        13.4190   76.6170  121.9380 N.2       1 NAP301      0.0000 
     16 C5A        12.6390   75.7380  122.6750 C.ar      1 NAP301      0.0000 
     17 C6A        12.6180   75.4100  124.0470 C.ar      1 NAP301      0.0000 
     18 N6A        13.3730   76.0210  124.9690 N.pl3     1 NAP301      0.0000 
     19 N1A        11.6880   74.5210  124.4630 N.ar      1 NAP301      0.0000 
     20 C2A        10.8200   74.0290  123.5720 C.ar      1 NAP301      0.0000 
     21 N3A        10.7250   74.2840  122.2640 N.ar      1 NAP301      0.0000 
     22 C4A        11.6620   75.1620  121.8770 C.ar      1 NAP301      0.0000 
     23 O3         13.9240   75.2650  113.5910 O.3       1 NAP301      0.0000 
     24 PN         14.0640   74.2730  112.3470 P.3       1 NAP301      0.0000 
     25 O1N        15.0800   74.8540  111.4410 O.co2     1 NAP301      0.0000 
     26 O2N        12.7180   73.9890  111.8000 O.co2     1 NAP301      0.0000 
     27 O5D        14.7110   72.9900  113.0310 O.3       1 NAP301      0.0000 
     28 C5D        13.9290   71.8370  113.4030 C.3       1 NAP301      0.0000 
     29 C4D        14.8560   70.6510  113.5120 C.3       1 NAP301      0.0000 
     30 O4D        15.5780   70.4660  112.2720 O.3       1 NAP301      0.0000 
     31 C3D        15.9330   70.7410  114.5850 C.3       1 NAP301      0.0000 
     32 O3D        16.0620   69.5000  115.2720 O.3       1 NAP301      0.0000 
     33 C2D        17.1730   71.0800  113.7550 C.3       1 NAP301      0.0000 
     34 O2D        18.3940   70.6480  114.3410 O.3       1 NAP301      0.0000 
     35 C1D        16.9560   70.2040  112.5170 C.3       1 NAP301      0.0000 
     36 N1N        17.8200   70.7480  111.3620 N.pl3     1 NAP301      0.0000 
     37 C2N        17.4600   71.9540  110.7440 C.ar      1 NAP301      0.0000 
     38 C3N        18.2620   72.5170  109.7680 C.ar      1 NAP301      0.0000 
     39 C7N        17.8910   73.7990  109.0470 C.2       1 NAP301      0.0000 
     40 O7N        18.6790   74.2830  108.2350 O.2       1 NAP301      0.0000 
     41 N7N        16.7000   74.3690  109.3230 N.am      1 NAP301      0.0000 
     42 C4N        19.4310   71.8500  109.4070 C.ar      1 NAP301      0.0000 
     43 C5N        19.7650   70.6510  110.0090 C.ar      1 NAP301      0.0000 
     44 C6N        18.9480   70.1160  110.9920 C.ar      1 NAP301      0.0000 
     45 P2B         9.4520   78.6830  120.4290 P.3       1 NAP301      0.0000 
     46 O1X         9.7270   78.0100  121.7380 O.co2     1 NAP301      0.0000 
     47 O2X        10.4470   79.7890  120.0810 O.co2     1 NAP301      0.0000 
     48 O3X         8.0270   79.3070  120.2920 O.co2     1 NAP301      0.0000 
     49 HOA2       14.5720   77.4430  115.2540 H         1 NAP301      0.0000 
     50 H51A       13.0930   74.8140  116.1850 H         1 NAP301      0.0000 
     51 H52A       13.0350   76.4510  116.8430 H         1 NAP301      0.0000 
     52 H4B        10.8000   74.3610  116.7410 H         1 NAP301      0.0000 
     53 H3B        10.3180   77.1520  116.6360 H         1 NAP301      0.0000 
     54 HO3A        8.6880   75.6180  116.3940 H         1 NAP301      0.0000 
     55 H2B        11.3360   77.5770  118.6910 H         1 NAP301      0.0000 
     56 H1B        10.0950   74.9550  119.7780 H         1 NAP301      0.0000 
     57 H8A        13.2570   77.1770  119.9120 H         1 NAP301      0.0000 
     58 H61A       14.0070   76.7680  124.7080 H         1 NAP301      0.0000 
     59 H62A       13.3340   75.7600  125.9500 H         1 NAP301      0.0000 
     60 H2A        10.0660   73.3500  123.9650 H         1 NAP301      0.0000 
     61 H51N       13.0920   71.6120  112.7430 H         1 NAP301      0.0000 
     62 H52N       13.4960   72.1090  114.3650 H         1 NAP301      0.0000 
     63 H4D        14.2730   69.7440  113.6460 H         1 NAP301      0.0000 
     64 H3D        15.7480   71.5460  115.2930 H         1 NAP301      0.0000 
     65 HO3N       15.4360   69.5510  116.0400 H         1 NAP301      0.0000 
     66 H2D        17.2310   72.1410  113.5190 H         1 NAP301      0.0000 
     67 HO2N       18.6620   71.3120  115.0290 H         1 NAP301      0.0000 
     68 H1D        17.1460   69.1360  112.6080 H         1 NAP301      0.0000 
     69 H2N        16.5490   72.4370  111.0910 H         1 NAP301      0.0000 
     70 H71N       16.4240   75.2200  108.8440 H         1 NAP301      0.0000 
     71 H72N       16.0040   74.0260  109.9760 H         1 NAP301      0.0000 
     72 H4N        20.1170   72.2470  108.6600 H         1 NAP301      0.0000 
     73 H5N        20.6700   70.1200  109.7220 H         1 NAP301      0.0000 
     74 H6N        19.2240   69.1930  111.4950 H         1 NAP301      0.0000 
     75 HOP2       10.1060   80.5690  119.5700 H         1 NAP301      0.0000 
     76 HOP3        7.3850   79.0880  119.5660 H         1 NAP301      0.0000 
@<TRIPOS>BOND
     1    1    2 ar   
     2    1    3 ar   
     3    1    4 1    
     4    1   23 1    
     5    3   49 1    
     6    4    5 1    
     7    5    6 1    
     8    5   50 1    
     9    5   51 1    
    10    6    7 1    
    11    6    8 1    
    12    6   52 1    
    13    7   12 1    
    14    8    9 1    
    15    8   10 1    
    16    8   53 1    
    17    9   54 1    
    18   10   11 1    
    19   10   12 1    
    20   10   55 1    
    21   11   45 1    
    22   12   13 1    
    23   12   56 1    
    24   13   14 1    
    25   13   22 1    
    26   14   15 2    
    27   14   57 1    
    28   15   16 1    
    29   16   17 ar   
    30   16   22 ar   
    31   17   18 1    
    32   17   19 ar   
    33   18   58 1    
    34   18   59 1    
    35   19   20 ar   
    36   20   21 ar   
    37   20   60 1    
    38   21   22 ar   
    39   23   24 1    
    40   24   25 ar   
    41   24   26 ar   
    42   24   27 1    
    43   27   28 1    
    44   28   29 1    
    45   28   61 1    
    46   28   62 1    
    47   29   30 1    
    48   29   31 1    
    49   29   63 1    
    50   30   35 1    
    51   31   32 1    
    52   31   33 1    
    53   31   64 1    
    54   32   65 1    
    55   33   66 1    
    56   33   34 1    
    57   33   35 1    
    58   34   67 1    
    59   35   36 1    
    60   35   68 1    
    61   36   37 ar   
    62   36   44 ar   
    63   37   38 ar   
    64   37   69 1    
    65   38   39 1    
    66   38   42 ar   
    67   39   40 2    
    68   39   41 am   
    69   41   70 1    
    70   41   71 1    
    71   42   43 ar   
    72   42   72 1    
    73   43   44 ar   
    74   43   73 1    
    75   44   74 1    
    76   45   46 ar   
    77   45   47 ar   
    78   45   48 ar   
    79   47   75 1    
    80   48   76 1    
@<TRIPOS>SUBSTRUCTURE
     1 NAP301      1 GROUP   
@<TRIPOS>SET
ATOM$ORANGE STATIC     ATOMS   COLORGROUP SYSTEM 
42 5 5 6 6 8 8 10 10 12 12 14 14 16 16 17 17 20 \
20 22 22 28 28 29 29 31 31 33 33 35 35 37 37 38 38 39 \
39 42 42 43 43 44 44 

