#    Name: 5qii_1_NAP
#    Modification time : Fri May 22 19:12:31 2020

@<TRIPOS>MOLECULE
5qii_1_NAP
   76    80     1     0     1
SMALL
NO_CHARGES


@<TRIPOS>ATOM
      1 PA         54.0060   61.2060   74.9860 P.3       1 NAP301      0.0000 
      2 O1A        54.7730   62.4700   75.1160 O.co2     1 NAP301      0.0000 
      3 O2A        52.9370   61.2440   73.8990 O.co2     1 NAP301      0.0000 
      4 O5B        55.0310   60.0110   74.7280 O.3       1 NAP301      0.0000 
      5 C5B        54.6560   58.6950   74.2720 C.3       1 NAP301      0.0000 
      6 C4B        55.9330   57.8980   74.1820 C.3       1 NAP301      0.0000 
      7 O4B        55.6630   56.5550   73.7090 O.3       1 NAP301      0.0000 
      8 C3B        56.9610   58.4900   73.2180 C.3       1 NAP301      0.0000 
      9 O3B        58.2990   58.2530   73.6410 O.3       1 NAP301      0.0000 
     10 C2B        56.6460   57.7310   71.9360 C.3       1 NAP301      0.0000 
     11 O2B        57.7890   57.7920   71.0570 O.3       1 NAP301      0.0000 
     12 C1B        56.3380   56.3380   72.4830 C.3       1 NAP301      0.0000 
     13 N9A        55.5300   55.4580   71.6330 N.pl3     1 NAP301      0.0000 
     14 C8A        54.4350   55.8050   70.8870 C.2       1 NAP301      0.0000 
     15 N7A        53.9490   54.8270   70.1610 N.2       1 NAP301      0.0000 
     16 C5A        54.7840   53.7570   70.4520 C.ar      1 NAP301      0.0000 
     17 C6A        54.8450   52.4330   69.9560 C.ar      1 NAP301      0.0000 
     18 N6A        54.0140   51.9440   69.0290 N.pl3     1 NAP301      0.0000 
     19 N1A        55.8440   51.6360   70.4110 N.ar      1 NAP301      0.0000 
     20 C2A        56.7170   52.1360   71.2910 C.ar      1 NAP301      0.0000 
     21 N3A        56.7500   53.3580   71.8360 N.ar      1 NAP301      0.0000 
     22 C4A        55.7580   54.1300   71.3650 C.ar      1 NAP301      0.0000 
     23 O3         53.1500   60.7220   76.2500 O.3       1 NAP301      0.0000 
     24 PN         52.9710   61.2250   77.7620 P.3       1 NAP301      0.0000 
     25 O1N        51.9190   62.2650   77.8050 O.co2     1 NAP301      0.0000 
     26 O2N        54.3050   61.5300   78.3240 O.co2     1 NAP301      0.0000 
     27 O5D        52.3600   59.9230   78.4580 O.3       1 NAP301      0.0000 
     28 C5D        53.1790   58.9270   79.1020 C.3       1 NAP301      0.0000 
     29 C4D        52.2810   58.0480   79.9390 C.3       1 NAP301      0.0000 
     30 O4D        51.4840   58.8560   80.8450 O.3       1 NAP301      0.0000 
     31 C3D        51.2770   57.2080   79.1580 C.3       1 NAP301      0.0000 
     32 O3D        51.1480   55.9110   79.7390 O.3       1 NAP301      0.0000 
     33 C2D        50.0000   58.0340   79.3010 C.3       1 NAP301      0.0000 
     34 O2D        48.8330   57.2280   79.2010 O.3       1 NAP301      0.0000 
     35 C1D        50.1230   58.4850   80.7890 C.3       1 NAP301      0.0000 
     36 N1N        49.2010   59.7000   81.0470 N.pl3     1 NAP301      0.0000 
     37 C2N        49.5220   60.9160   80.4610 C.ar      1 NAP301      0.0000 
     38 C3N        48.6450   61.9840   80.5400 C.ar      1 NAP301      0.0000 
     39 C7N        48.9780   63.3400   79.9730 C.2       1 NAP301      0.0000 
     40 O7N        48.0850   64.2130   79.9090 O.2       1 NAP301      0.0000 
     41 N7N        50.2220   63.5530   79.5160 N.am      1 NAP301      0.0000 
     42 C4N        47.4440   61.8070   81.2270 C.ar      1 NAP301      0.0000 
     43 C5N        47.1590   60.5980   81.8340 C.ar      1 NAP301      0.0000 
     44 C6N        48.0540   59.5540   81.7350 C.ar      1 NAP301      0.0000 
     45 P2B        57.8070   57.3370   69.5260 P.3       1 NAP301      0.0000 
     46 O1X        57.7390   55.8400   69.4180 O.co2     1 NAP301      0.0000 
     47 O2X        56.6650   58.0440   68.8220 O.co2     1 NAP301      0.0000 
     48 O3X        59.1820   57.9540   69.1600 O.co2     1 NAP301      0.0000 
     49 HOA2       52.4220   60.5170   73.4620 H         1 NAP301      0.0000 
     50 H51A       54.0060   58.2990   75.0500 H         1 NAP301      0.0000 
     51 H52A       54.1070   58.7290   73.3330 H         1 NAP301      0.0000 
     52 H4B        56.3280   57.7400   75.1820 H         1 NAP301      0.0000 
     53 H3B        56.7900   59.5550   73.0830 H         1 NAP301      0.0000 
     54 HO3A       58.4520   58.8720   74.4020 H         1 NAP301      0.0000 
     55 H2B        55.7900   58.2020   71.4560 H         1 NAP301      0.0000 
     56 H1B        57.2470   55.7890   72.7250 H         1 NAP301      0.0000 
     57 H8A        53.9970   56.8030   70.8970 H         1 NAP301      0.0000 
     58 H61A       53.2820   52.5250   68.6330 H         1 NAP301      0.0000 
     59 H62A       54.0880   50.9890   68.6930 H         1 NAP301      0.0000 
     60 H2A        57.5330   51.4790   71.5870 H         1 NAP301      0.0000 
     61 H51N       53.9960   59.3270   79.7000 H         1 NAP301      0.0000 
     62 H52N       53.6380   58.3810   78.2790 H         1 NAP301      0.0000 
     63 H4D        52.8870   57.4090   80.5760 H         1 NAP301      0.0000 
     64 H3D        51.5250   57.1270   78.1010 H         1 NAP301      0.0000 
     65 HO3N       51.8080   55.3370   79.2700 H         1 NAP301      0.0000 
     66 H2D        49.9480   58.8640   78.5990 H         1 NAP301      0.0000 
     67 HO2N       48.4880   57.2890   78.2730 H         1 NAP301      0.0000 
     68 H1D        49.9050   57.7400   81.5530 H         1 NAP301      0.0000 
     69 H2N        50.4620   60.9790   79.9180 H         1 NAP301      0.0000 
     70 H71N       50.4670   64.4580   79.1300 H         1 NAP301      0.0000 
     71 H72N       50.9940   62.8970   79.5440 H         1 NAP301      0.0000 
     72 H4N        46.6870   62.5890   81.2720 H         1 NAP301      0.0000 
     73 H5N        46.2320   60.4530   82.3850 H         1 NAP301      0.0000 
     74 H6N        47.8180   58.5910   82.1820 H         1 NAP301      0.0000 
     75 HOP2       56.8790   58.8760   68.3230 H         1 NAP301      0.0000 
     76 HOP3       59.5440   58.7930   69.5500 H         1 NAP301      0.0000 
@<TRIPOS>BOND
     1    1    2 ar   
     2    1    3 ar   
     3    1    4 1    
     4    1   23 1    
     5    3   49 1    
     6    4    5 1    
     7    5    6 1    
     8    5   50 1    
     9    5   51 1    
    10    6    7 1    
    11    6    8 1    
    12    6   52 1    
    13    7   12 1    
    14    8    9 1    
    15    8   10 1    
    16    8   53 1    
    17    9   54 1    
    18   10   11 1    
    19   10   12 1    
    20   10   55 1    
    21   11   45 1    
    22   12   13 1    
    23   12   56 1    
    24   13   14 1    
    25   13   22 1    
    26   14   15 2    
    27   14   57 1    
    28   15   16 1    
    29   16   17 ar   
    30   16   22 ar   
    31   17   18 1    
    32   17   19 ar   
    33   18   58 1    
    34   18   59 1    
    35   19   20 ar   
    36   20   21 ar   
    37   20   60 1    
    38   21   22 ar   
    39   23   24 1    
    40   24   25 ar   
    41   24   26 ar   
    42   24   27 1    
    43   27   28 1    
    44   28   29 1    
    45   28   61 1    
    46   28   62 1    
    47   29   30 1    
    48   29   31 1    
    49   29   63 1    
    50   30   35 1    
    51   31   32 1    
    52   31   33 1    
    53   31   64 1    
    54   32   65 1    
    55   33   66 1    
    56   33   34 1    
    57   33   35 1    
    58   34   67 1    
    59   35   36 1    
    60   35   68 1    
    61   36   37 ar   
    62   36   44 ar   
    63   37   38 ar   
    64   37   69 1    
    65   38   39 1    
    66   38   42 ar   
    67   39   40 2    
    68   39   41 am   
    69   41   70 1    
    70   41   71 1    
    71   42   43 ar   
    72   42   72 1    
    73   43   44 ar   
    74   43   73 1    
    75   44   74 1    
    76   45   46 ar   
    77   45   47 ar   
    78   45   48 ar   
    79   47   75 1    
    80   48   76 1    
@<TRIPOS>SUBSTRUCTURE
     1 NAP301      1 GROUP   
@<TRIPOS>SET
ATOM$ORANGE STATIC     ATOMS   COLORGROUP SYSTEM 
42 5 5 6 6 8 8 10 10 12 12 14 14 16 16 17 17 20 \
20 22 22 28 28 29 29 31 31 33 33 35 35 37 37 38 38 39 \
39 42 42 43 43 44 44 

