#    Name: 5qii_2_NAP
#    Modification time : Fri May 22 19:12:37 2020

@<TRIPOS>MOLECULE
5qii_2_NAP
   76    80     1     0     1
SMALL
NO_CHARGES


@<TRIPOS>ATOM
      1 PA         28.9700   29.1110   81.2240 P.3       1 NAP301      0.0000 
      2 O1A        27.9200   28.2700   81.8560 O.co2     1 NAP301      0.0000 
      3 O2A        30.3390   28.4590   81.1910 O.co2     1 NAP301      0.0000 
      4 O5B        28.5990   29.4070   79.6960 O.3       1 NAP301      0.0000 
      5 C5B        29.4770   30.0460   78.7340 C.3       1 NAP301      0.0000 
      6 C4B        28.6750   30.3750   77.4960 C.3       1 NAP301      0.0000 
      7 O4B        29.5360   30.9610   76.4890 O.3       1 NAP301      0.0000 
      8 C3B        28.0410   29.1560   76.8280 C.3       1 NAP301      0.0000 
      9 O3B        26.8790   29.5400   76.0960 O.3       1 NAP301      0.0000 
     10 C2B        29.2010   28.6990   75.9480 C.3       1 NAP301      0.0000 
     11 O2B        28.7470   27.7380   74.9690 O.3       1 NAP301      0.0000 
     12 C1B        29.6670   30.0530   75.4060 C.3       1 NAP301      0.0000 
     13 N9A        31.0110   30.1780   74.8360 N.pl3     1 NAP301      0.0000 
     14 C8A        32.1660   29.5600   75.2430 C.2       1 NAP301      0.0000 
     15 N7A        33.2020   29.8020   74.4750 N.2       1 NAP301      0.0000 
     16 C5A        32.6920   30.6360   73.4880 C.ar      1 NAP301      0.0000 
     17 C6A        33.2610   31.1870   72.3170 C.ar      1 NAP301      0.0000 
     18 N6A        34.5220   30.9560   71.9130 N.pl3     1 NAP301      0.0000 
     19 N1A        32.4580   31.9260   71.5180 N.ar      1 NAP301      0.0000 
     20 C2A        31.1730   32.0790   71.8540 C.ar      1 NAP301      0.0000 
     21 N3A        30.5240   31.6060   72.9230 N.ar      1 NAP301      0.0000 
     22 C4A        31.3450   30.8840   73.7050 C.ar      1 NAP301      0.0000 
     23 O3         29.1110   30.6040   81.7830 O.3       1 NAP301      0.0000 
     24 PN         28.3100   31.4450   82.8830 P.3       1 NAP301      0.0000 
     25 O1N        28.7970   31.0000   84.2080 O.co2     1 NAP301      0.0000 
     26 O2N        26.8570   31.3820   82.6010 O.co2     1 NAP301      0.0000 
     27 O5D        28.8730   32.9170   82.6050 O.3       1 NAP301      0.0000 
     28 C5D        28.1100   33.8660   81.8150 C.3       1 NAP301      0.0000 
     29 C4D        28.6220   35.2650   82.0520 C.3       1 NAP301      0.0000 
     30 O4D        28.5420   35.5830   83.4610 O.3       1 NAP301      0.0000 
     31 C3D        30.0810   35.4760   81.6800 C.3       1 NAP301      0.0000 
     32 O3D        30.2510   36.7440   81.0490 O.3       1 NAP301      0.0000 
     33 C2D        30.7660   35.3710   83.0430 C.3       1 NAP301      0.0000 
     34 O2D        31.9760   36.1150   83.0950 O.3       1 NAP301      0.0000 
     35 C1D        29.7380   36.0940   83.9580 C.3       1 NAP301      0.0000 
     36 N1N        29.9130   35.6680   85.4420 N.pl3     1 NAP301      0.0000 
     37 C2N        29.6530   34.3400   85.8410 C.ar      1 NAP301      0.0000 
     38 C3N        30.0070   33.9080   87.1100 C.ar      1 NAP301      0.0000 
     39 C7N        29.7590   32.5050   87.6210 C.2       1 NAP301      0.0000 
     40 O7N        30.1970   32.1780   88.7170 O.2       1 NAP301      0.0000 
     41 N7N        29.0870   31.6470   86.8380 N.am      1 NAP301      0.0000 
     42 C4N        30.6110   34.8170   87.9750 C.ar      1 NAP301      0.0000 
     43 C5N        30.8250   36.1290   87.5800 C.ar      1 NAP301      0.0000 
     44 C6N        30.4570   36.5390   86.3120 C.ar      1 NAP301      0.0000 
     45 P2B        29.6010   27.1700   73.7400 P.3       1 NAP301      0.0000 
     46 O1X        29.8910   28.2170   72.7580 O.co2     1 NAP301      0.0000 
     47 O2X        30.8770   26.5380   74.3100 O.co2     1 NAP301      0.0000 
     48 O3X        28.6570   26.1170   73.1570 O.co2     1 NAP301      0.0000 
     49 HOA2       31.1200   28.5930   80.5930 H         1 NAP301      0.0000 
     50 H51A       29.7970   30.9650   79.2220 H         1 NAP301      0.0000 
     51 H52A       30.3650   29.4520   78.5230 H         1 NAP301      0.0000 
     52 H4B        27.9540   31.1680   77.6890 H         1 NAP301      0.0000 
     53 H3B        27.7820   28.4060   77.5700 H         1 NAP301      0.0000 
     54 HO3A       26.1040   29.2840   76.6620 H         1 NAP301      0.0000 
     55 H2B        29.9570   28.2280   76.5740 H         1 NAP301      0.0000 
     56 H1B        28.9850   30.4120   74.6390 H         1 NAP301      0.0000 
     57 H8A        32.2200   28.9240   76.1260 H         1 NAP301      0.0000 
     58 H61A       35.1370   30.3570   72.4530 H         1 NAP301      0.0000 
     59 H62A       34.8940   31.3660   71.0620 H         1 NAP301      0.0000 
     60 H2A        30.5530   32.6300   71.1490 H         1 NAP301      0.0000 
     61 H51N       27.0330   33.8330   81.9740 H         1 NAP301      0.0000 
     62 H52N       28.2710   33.5440   80.7880 H         1 NAP301      0.0000 
     63 H4D        27.9900   35.9920   81.5470 H         1 NAP301      0.0000 
     64 H3D        30.4620   34.6880   81.0330 H         1 NAP301      0.0000 
     65 HO3N       30.0060   36.6060   80.0970 H         1 NAP301      0.0000 
     66 H2D        30.9450   34.3400   83.3400 H         1 NAP301      0.0000 
     67 HO2N       32.7090   35.5510   82.7340 H         1 NAP301      0.0000 
     68 H1D        29.7220   37.1830   83.9240 H         1 NAP301      0.0000 
     69 H2N        29.1870   33.6790   85.1130 H         1 NAP301      0.0000 
     70 H71N       28.8900   30.7070   87.1620 H         1 NAP301      0.0000 
     71 H72N       28.7290   31.8420   85.9090 H         1 NAP301      0.0000 
     72 H4N        30.9610   34.5280   88.9650 H         1 NAP301      0.0000 
     73 H5N        31.3360   36.8320   88.2350 H         1 NAP301      0.0000 
     74 H6N        30.6340   37.5650   86.0020 H         1 NAP301      0.0000 
     75 HOP2       30.7790   25.6980   74.8290 H         1 NAP301      0.0000 
     76 HOP3       27.8960   25.7080   73.6460 H         1 NAP301      0.0000 
@<TRIPOS>BOND
     1    1    2 ar   
     2    1    3 ar   
     3    1    4 1    
     4    1   23 1    
     5    3   49 1    
     6    4    5 1    
     7    5    6 1    
     8    5   50 1    
     9    5   51 1    
    10    6    7 1    
    11    6    8 1    
    12    6   52 1    
    13    7   12 1    
    14    8    9 1    
    15    8   10 1    
    16    8   53 1    
    17    9   54 1    
    18   10   11 1    
    19   10   12 1    
    20   10   55 1    
    21   11   45 1    
    22   12   13 1    
    23   12   56 1    
    24   13   14 1    
    25   13   22 1    
    26   14   15 2    
    27   14   57 1    
    28   15   16 1    
    29   16   17 ar   
    30   16   22 ar   
    31   17   18 1    
    32   17   19 ar   
    33   18   58 1    
    34   18   59 1    
    35   19   20 ar   
    36   20   21 ar   
    37   20   60 1    
    38   21   22 ar   
    39   23   24 1    
    40   24   25 ar   
    41   24   26 ar   
    42   24   27 1    
    43   27   28 1    
    44   28   29 1    
    45   28   61 1    
    46   28   62 1    
    47   29   30 1    
    48   29   31 1    
    49   29   63 1    
    50   30   35 1    
    51   31   32 1    
    52   31   33 1    
    53   31   64 1    
    54   32   65 1    
    55   33   66 1    
    56   33   34 1    
    57   33   35 1    
    58   34   67 1    
    59   35   36 1    
    60   35   68 1    
    61   36   37 ar   
    62   36   44 ar   
    63   37   38 ar   
    64   37   69 1    
    65   38   39 1    
    66   38   42 ar   
    67   39   40 2    
    68   39   41 am   
    69   41   70 1    
    70   41   71 1    
    71   42   43 ar   
    72   42   72 1    
    73   43   44 ar   
    74   43   73 1    
    75   44   74 1    
    76   45   46 ar   
    77   45   47 ar   
    78   45   48 ar   
    79   47   75 1    
    80   48   76 1    
@<TRIPOS>SUBSTRUCTURE
     1 NAP301      1 GROUP   
@<TRIPOS>SET
ATOM$ORANGE STATIC     ATOMS   COLORGROUP SYSTEM 
42 5 5 6 6 8 8 10 10 12 12 14 14 16 16 17 17 20 \
20 22 22 28 28 29 29 31 31 33 33 35 35 37 37 38 38 39 \
39 42 42 43 43 44 44 

