#    Name: 6f3a_4_ADP
#    Modification time : Fri May 22 19:36:59 2020

@<TRIPOS>MOLECULE
6f3a_4_ADP
   27    29     1     0     1
SMALL
NO_CHARGES


@<TRIPOS>ATOM
      1 PB          1.0170  -30.0360   40.2770 P.3       1 ADP800      0.0000 
      2 O1B        -0.2990  -30.4120   39.6590 O.co2     1 ADP800      0.0000 
      3 O2B         1.9490  -31.1920   40.4520 O.co2     1 ADP800      0.0000 
      4 O3B         0.9150  -29.1470   41.4890 O.co2     1 ADP800      0.0000 
      5 PA          3.3260  -28.9080   39.3140 P.3       1 ADP800      0.0000 
      6 O1A         4.0520  -30.0670   38.7090 O.co2     1 ADP800      0.0000 
      7 O2A         3.5860  -28.4870   40.7280 O.co2     1 ADP800      0.0000 
      8 O3A         1.7650  -29.1880   39.1390 O.3       1 ADP800      0.0000 
      9 O5'         3.6010  -27.5780   38.4800 O.3       1 ADP800      0.0000 
     10 C5'         4.9360  -27.1010   38.4580 C.3       1 ADP800      0.0000 
     11 C4'         5.0030  -25.8390   39.2910 C.3       1 ADP800      0.0000 
     12 O4'         5.9420  -26.0120   40.3420 O.3       1 ADP800      0.0000 
     13 C3'         5.4580  -24.6200   38.5050 C.3       1 ADP800      0.0000 
     14 O3'         4.6960  -23.5110   38.9720 O.3       1 ADP800      0.0000 
     15 C2'         6.8370  -24.3150   38.9890 C.3       1 ADP800      0.0000 
     16 O2'         7.0900  -22.9090   38.9940 O.3       1 ADP800      0.0000 
     17 C1'         6.6500  -24.7820   40.4010 C.3       1 ADP800      0.0000 
     18 N9          7.9320  -24.8640   41.0990 N.pl3     1 ADP800      0.0000 
     19 C8          8.8280  -25.8570   41.1170 C.2       1 ADP800      0.0000 
     20 N7          9.8820  -25.5120   41.8980 N.2       1 ADP800      0.0000 
     21 C5          9.6400  -24.2820   42.3870 C.ar      1 ADP800      0.0000 
     22 C6         10.3200  -23.3070   43.2570 C.ar      1 ADP800      0.0000 
     23 N6         11.5200  -23.5810   43.8100 N.pl3     1 ADP800      0.0000 
     24 N1          9.7080  -22.1340   43.4980 N.ar      1 ADP800      0.0000 
     25 C2          8.5240  -21.8440   42.9590 C.ar      1 ADP800      0.0000 
     26 N3          7.8540  -22.6620   42.1490 N.ar      1 ADP800      0.0000 
     27 C4          8.3610  -23.8630   41.8340 C.ar      1 ADP800      0.0000 
@<TRIPOS>BOND
     1    1    2 ar   
     2    1    3 ar   
     3    1    4 ar   
     4    1    8 1    
     5    5    6 ar   
     6    5    7 ar   
     7    5    8 1    
     8    5    9 1    
     9    9   10 1    
    10   10   11 1    
    11   11   12 1    
    12   11   13 1    
    13   12   17 1    
    14   13   14 1    
    15   13   15 1    
    16   15   16 1    
    17   15   17 1    
    18   17   18 1    
    19   18   19 1    
    20   18   27 1    
    21   19   20 2    
    22   20   21 1    
    23   21   22 ar   
    24   21   27 ar   
    25   22   23 1    
    26   22   24 ar   
    27   24   25 ar   
    28   25   26 ar   
    29   26   27 ar   
@<TRIPOS>SUBSTRUCTURE
     1 ADP800      1 GROUP   
@<TRIPOS>SET
ATOM$ORANGE STATIC     ATOMS   COLORGROUP SYSTEM 
20 10 10 11 11 13 13 15 15 17 17 19 19 21 21 22 22 25 \
25 27 27 

