#    Name: 6f3a_6_ADP
#    Modification time : Fri May 22 19:37:23 2020

@<TRIPOS>MOLECULE
6f3a_6_ADP
   27    29     1     0     1
SMALL
NO_CHARGES


@<TRIPOS>ATOM
      1 PB         37.0380  -18.9930   -3.0890 P.3       1 ADP800      0.0000 
      2 O1B        37.6860  -20.1230   -3.8290 O.co2     1 ADP800      0.0000 
      3 O2B        35.5410  -18.9310   -3.0270 O.co2     1 ADP800      0.0000 
      4 O3B        37.6630  -17.6800   -3.4220 O.co2     1 ADP800      0.0000 
      5 PA         37.7760  -20.3790   -0.6530 P.3       1 ADP800      0.0000 
      6 O1A        38.2330  -21.5350   -1.5020 O.co2     1 ADP800      0.0000 
      7 O2A        36.7490  -20.5530    0.4320 O.co2     1 ADP800      0.0000 
      8 O3A        37.3520  -19.1290   -1.5360 O.3       1 ADP800      0.0000 
      9 O5'        39.0520  -19.5650   -0.1290 O.3       1 ADP800      0.0000 
     10 C5'        40.0260  -19.3270   -1.1380 C.3       1 ADP800      0.0000 
     11 C4'        40.2950  -17.8680   -1.3970 C.3       1 ADP800      0.0000 
     12 O4'        41.1170  -17.3100   -0.3940 O.3       1 ADP800      0.0000 
     13 C3'        41.0870  -17.9020   -2.6710 C.3       1 ADP800      0.0000 
     14 O3'        40.2980  -17.3840   -3.7380 O.3       1 ADP800      0.0000 
     15 C2'        42.3430  -17.1080   -2.4120 C.3       1 ADP800      0.0000 
     16 O2'        42.3870  -15.9740   -3.2740 O.3       1 ADP800      0.0000 
     17 C1'        42.2320  -16.6450   -0.9780 C.3       1 ADP800      0.0000 
     18 N9         43.4500  -16.9950   -0.2220 N.pl3     1 ADP800      0.0000 
     19 C8         44.0620  -18.1870   -0.2210 C.2       1 ADP800      0.0000 
     20 N7         45.1540  -18.1730    0.5830 N.2       1 ADP800      0.0000 
     21 C5         45.2560  -16.9470    1.1170 C.ar      1 ADP800      0.0000 
     22 C6         46.1660  -16.2500    2.0490 C.ar      1 ADP800      0.0000 
     23 N6         47.2380  -16.8670    2.5850 N.pl3     1 ADP800      0.0000 
     24 N1         45.9100  -14.9640    2.3370 N.ar      1 ADP800      0.0000 
     25 C2         44.8540  -14.3410    1.7980 C.ar      1 ADP800      0.0000 
     26 N3         43.9940  -14.9000    0.9480 N.ar      1 ADP800      0.0000 
     27 C4         44.1340  -16.1800    0.5720 C.ar      1 ADP800      0.0000 
@<TRIPOS>BOND
     1    1    2 ar   
     2    1    3 ar   
     3    1    4 ar   
     4    1    8 1    
     5    5    6 ar   
     6    5    7 ar   
     7    5    8 1    
     8    5    9 1    
     9    9   10 1    
    10   10   11 1    
    11   11   12 1    
    12   11   13 1    
    13   12   17 1    
    14   13   14 1    
    15   13   15 1    
    16   15   16 1    
    17   15   17 1    
    18   17   18 1    
    19   18   19 1    
    20   18   27 1    
    21   19   20 2    
    22   20   21 1    
    23   21   22 ar   
    24   21   27 ar   
    25   22   23 1    
    26   22   24 ar   
    27   24   25 ar   
    28   25   26 ar   
    29   26   27 ar   
@<TRIPOS>SUBSTRUCTURE
     1 ADP800      1 GROUP   
@<TRIPOS>SET
ATOM$ORANGE STATIC     ATOMS   COLORGROUP SYSTEM 
20 10 10 11 11 13 13 15 15 17 17 19 19 21 21 22 22 25 \
25 27 27 

