#    Name: 6f3a_5_ADP
#    Modification time : Fri May 22 19:37:12 2020

@<TRIPOS>MOLECULE
6f3a_5_ADP
   27    29     1     0     1
SMALL
NO_CHARGES


@<TRIPOS>ATOM
      1 PB          4.5890    5.3210   12.9850 P.3       1 ADP800      0.0000 
      2 O1B         4.6330    6.7630   12.5480 O.co2     1 ADP800      0.0000 
      3 O2B         3.9370    5.0120   14.3060 O.co2     1 ADP800      0.0000 
      4 O3B         5.7940    4.5010   12.6550 O.co2     1 ADP800      0.0000 
      5 PA          2.0590    4.7840   11.8810 P.3       1 ADP800      0.0000 
      6 O1A         1.9010    6.2300   11.5090 O.co2     1 ADP800      0.0000 
      7 O2A         1.3730    4.1780   13.0780 O.co2     1 ADP800      0.0000 
      8 O3A         3.6210    4.6080   11.9970 O.3       1 ADP800      0.0000 
      9 O5'         2.0950    3.7960   10.6150 O.3       1 ADP800      0.0000 
     10 C5'         2.7550    4.3380    9.4790 C.3       1 ADP800      0.0000 
     11 C4'         4.0370    3.6670    9.0420 C.3       1 ADP800      0.0000 
     12 O4'         3.8350    2.8910    7.8770 O.3       1 ADP800      0.0000 
     13 C3'         4.9430    4.8240    8.7130 C.3       1 ADP800      0.0000 
     14 O3'         5.9480    4.9980    9.7150 O.3       1 ADP800      0.0000 
     15 C2'         5.5090    4.5240    7.3480 C.3       1 ADP800      0.0000 
     16 O2'         6.8770    4.1470    7.4710 O.3       1 ADP800      0.0000 
     17 C1'         4.7120    3.3370    6.8490 C.3       1 ADP800      0.0000 
     18 N9          3.8460    3.7620    5.7410 N.pl3     1 ADP800      0.0000 
     19 C8          3.3630    4.9850    5.4770 C.2       1 ADP800      0.0000 
     20 N7          2.5870    4.9680    4.3600 N.2       1 ADP800      0.0000 
     21 C5          2.5780    3.7110    3.8950 C.ar      1 ADP800      0.0000 
     22 C6          1.9630    2.9650    2.7750 C.ar      1 ADP800      0.0000 
     23 N6          1.1790    3.5710    1.8610 N.pl3     1 ADP800      0.0000 
     24 N1          2.2160    1.6490    2.6860 N.ar      1 ADP800      0.0000 
     25 C2          2.9910    1.0300    3.5870 C.ar      1 ADP800      0.0000 
     26 N3          3.5840    1.6320    4.6100 N.ar      1 ADP800      0.0000 
     27 C4          3.4080    2.9380    4.8190 C.ar      1 ADP800      0.0000 
@<TRIPOS>BOND
     1    1    2 ar   
     2    1    3 ar   
     3    1    4 ar   
     4    1    8 1    
     5    5    6 ar   
     6    5    7 ar   
     7    5    8 1    
     8    5    9 1    
     9    9   10 1    
    10   10   11 1    
    11   11   12 1    
    12   11   13 1    
    13   12   17 1    
    14   13   14 1    
    15   13   15 1    
    16   15   16 1    
    17   15   17 1    
    18   17   18 1    
    19   18   19 1    
    20   18   27 1    
    21   19   20 2    
    22   20   21 1    
    23   21   22 ar   
    24   21   27 ar   
    25   22   23 1    
    26   22   24 ar   
    27   24   25 ar   
    28   25   26 ar   
    29   26   27 ar   
@<TRIPOS>SUBSTRUCTURE
     1 ADP800      1 GROUP   
@<TRIPOS>SET
ATOM$ORANGE STATIC     ATOMS   COLORGROUP SYSTEM 
20 10 10 11 11 13 13 15 15 17 17 19 19 21 21 22 22 25 \
25 27 27 

