#    Name: 6f3a_7_ADP
#    Modification time : Fri May 22 19:37:33 2020

@<TRIPOS>MOLECULE
6f3a_7_ADP
   27    29     1     0     1
SMALL
NO_CHARGES


@<TRIPOS>ATOM
      1 PB         48.3100   19.6390  -18.0770 P.3       1 ADP800      0.0000 
      2 O1B        49.4910   20.4930  -18.4490 O.co2     1 ADP800      0.0000 
      3 O2B        47.4440   20.1620  -16.9670 O.co2     1 ADP800      0.0000 
      4 O3B        48.5000   18.1530  -18.0340 O.co2     1 ADP800      0.0000 
      5 PA         46.4180   21.0200  -19.3930 P.3       1 ADP800      0.0000 
      6 O1A        47.2810   22.2320  -19.1890 O.co2     1 ADP800      0.0000 
      7 O2A        45.2010   20.7880  -18.5420 O.co2     1 ADP800      0.0000 
      8 O3A        47.3980   19.7720  -19.3670 O.3       1 ADP800      0.0000 
      9 O5'        45.9810   20.9400  -20.9200 O.3       1 ADP800      0.0000 
     10 C5'        46.8730   21.5270  -21.8440 C.3       1 ADP800      0.0000 
     11 C4'        47.3440   20.3700  -22.6810 C.3       1 ADP800      0.0000 
     12 O4'        46.2540   19.8860  -23.4490 O.3       1 ADP800      0.0000 
     13 C3'        48.4510   20.7530  -23.6310 C.3       1 ADP800      0.0000 
     14 O3'        49.7170   20.4010  -23.0790 O.3       1 ADP800      0.0000 
     15 C2'        48.1560   19.9450  -24.8690 C.3       1 ADP800      0.0000 
     16 O2'        48.9430   18.7560  -24.8790 O.3       1 ADP800      0.0000 
     17 C1'        46.7010   19.5580  -24.7540 C.3       1 ADP800      0.0000 
     18 N9         45.9880   20.3380  -25.7840 N.pl3     1 ADP800      0.0000 
     19 C8         45.8480   21.6710  -25.8490 C.2       1 ADP800      0.0000 
     20 N7         45.1520   22.0260  -26.9590 N.2       1 ADP800      0.0000 
     21 C5         44.8400   20.9000  -27.6210 C.ar      1 ADP800      0.0000 
     22 C6         44.1370   20.5400  -28.8720 C.ar      1 ADP800      0.0000 
     23 N6         43.5900   21.4610  -29.6880 N.pl3     1 ADP800      0.0000 
     24 N1         44.0590   19.2390  -29.1880 N.ar      1 ADP800      0.0000 
     25 C2         44.6010   18.3000  -28.4050 C.ar      1 ADP800      0.0000 
     26 N3         45.2640   18.5420  -27.2750 N.ar      1 ADP800      0.0000 
     27 C4         45.4140   19.8020  -26.8440 C.ar      1 ADP800      0.0000 
@<TRIPOS>BOND
     1    1    2 ar   
     2    1    3 ar   
     3    1    4 ar   
     4    1    8 1    
     5    5    6 ar   
     6    5    7 ar   
     7    5    8 1    
     8    5    9 1    
     9    9   10 1    
    10   10   11 1    
    11   11   12 1    
    12   11   13 1    
    13   12   17 1    
    14   13   14 1    
    15   13   15 1    
    16   15   16 1    
    17   15   17 1    
    18   17   18 1    
    19   18   19 1    
    20   18   27 1    
    21   19   20 2    
    22   20   21 1    
    23   21   22 ar   
    24   21   27 ar   
    25   22   23 1    
    26   22   24 ar   
    27   24   25 ar   
    28   25   26 ar   
    29   26   27 ar   
@<TRIPOS>SUBSTRUCTURE
     1 ADP800      1 GROUP   
@<TRIPOS>SET
ATOM$ORANGE STATIC     ATOMS   COLORGROUP SYSTEM 
20 10 10 11 11 13 13 15 15 17 17 19 19 21 21 22 22 25 \
25 27 27 

