#    Name: 6f3a_9_ADP
#    Modification time : Fri May 22 19:37:55 2020

@<TRIPOS>MOLECULE
6f3a_9_ADP
   27    29     1     0     1
SMALL
NO_CHARGES


@<TRIPOS>ATOM
      1 PB         92.1110   30.3670  -50.7200 P.3       1 ADP800      0.0000 
      2 O1B        92.0430   29.0580  -51.4520 O.co2     1 ADP800      0.0000 
      3 O2B        93.4130   31.0970  -50.8600 O.co2     1 ADP800      0.0000 
      4 O3B        91.4720   30.3860  -49.3580 O.co2     1 ADP800      0.0000 
      5 PA         90.6170   32.6490  -50.9520 P.3       1 ADP800      0.0000 
      6 O1A        91.7940   33.4850  -50.5320 O.co2     1 ADP800      0.0000 
      7 O2A        89.4850   32.3650  -50.0060 O.co2     1 ADP800      0.0000 
      8 O3A        91.1900   31.3050  -51.5770 O.3       1 ADP800      0.0000 
      9 O5'        90.0100   33.1810  -52.3320 O.3       1 ADP800      0.0000 
     10 C5'        90.9390   33.5630  -53.3290 C.3       1 ADP800      0.0000 
     11 C4'        90.7570   32.6130  -54.4900 C.3       1 ADP800      0.0000 
     12 O4'        89.4830   32.8000  -55.0890 O.3       1 ADP800      0.0000 
     13 C3'        91.8070   32.8310  -55.5530 C.3       1 ADP800      0.0000 
     14 O3'        92.9100   31.9520  -55.3530 O.3       1 ADP800      0.0000 
     15 C2'        91.0690   32.5500  -56.8380 C.3       1 ADP800      0.0000 
     16 O2'        91.1370   31.1660  -57.1600 O.3       1 ADP800      0.0000 
     17 C1'        89.6280   32.8310  -56.5030 C.3       1 ADP800      0.0000 
     18 N9         89.2530   34.1600  -57.0190 N.pl3     1 ADP800      0.0000 
     19 C8         89.5920   35.3770  -56.5620 C.2       1 ADP800      0.0000 
     20 N7         89.0250   36.3480  -57.3200 N.2       1 ADP800      0.0000 
     21 C5         88.3200   35.7470  -58.2890 C.ar      1 ADP800      0.0000 
     22 C6         87.4900   36.1540  -59.4430 C.ar      1 ADP800      0.0000 
     23 N6         87.2700   37.4480  -59.7530 N.pl3     1 ADP800      0.0000 
     24 N1         86.9610   35.1790  -60.2000 N.ar      1 ADP800      0.0000 
     25 C2         87.1820   33.8890  -59.9180 C.ar      1 ADP800      0.0000 
     26 N3         87.9050   33.4350  -58.9020 N.ar      1 ADP800      0.0000 
     27 C4         88.4930   34.3110  -58.0790 C.ar      1 ADP800      0.0000 
@<TRIPOS>BOND
     1    1    2 ar   
     2    1    3 ar   
     3    1    4 ar   
     4    1    8 1    
     5    5    6 ar   
     6    5    7 ar   
     7    5    8 1    
     8    5    9 1    
     9    9   10 1    
    10   10   11 1    
    11   11   12 1    
    12   11   13 1    
    13   12   17 1    
    14   13   14 1    
    15   13   15 1    
    16   15   16 1    
    17   15   17 1    
    18   17   18 1    
    19   18   19 1    
    20   18   27 1    
    21   19   20 2    
    22   20   21 1    
    23   21   22 ar   
    24   21   27 ar   
    25   22   23 1    
    26   22   24 ar   
    27   24   25 ar   
    28   25   26 ar   
    29   26   27 ar   
@<TRIPOS>SUBSTRUCTURE
     1 ADP800      1 GROUP   
@<TRIPOS>SET
ATOM$ORANGE STATIC     ATOMS   COLORGROUP SYSTEM 
20 10 10 11 11 13 13 15 15 17 17 19 19 21 21 22 22 25 \
25 27 27 

