#    Name: 6f3a_1_ADP
#    Modification time : Fri May 22 19:36:27 2020

@<TRIPOS>MOLECULE
6f3a_1_ADP
   27    29     1     0     1
SMALL
NO_CHARGES


@<TRIPOS>ATOM
      1 PB        -79.4510  -32.7100   77.6130 P.3       1 ADP800      0.0000 
      2 O1B       -80.5100  -32.5640   76.5480 O.co2     1 ADP800      0.0000 
      3 O2B       -79.3680  -34.0910   78.2100 O.co2     1 ADP800      0.0000 
      4 O3B       -79.3640  -31.5630   78.5890 O.co2     1 ADP800      0.0000 
      5 PA        -78.0680  -33.1210   75.3120 P.3       1 ADP800      0.0000 
      6 O1A       -78.6540  -32.1240   74.3670 O.co2     1 ADP800      0.0000 
      7 O2A       -78.6350  -34.5060   75.4030 O.co2     1 ADP800      0.0000 
      8 O3A       -78.0850  -32.5350   76.7930 O.3       1 ADP800      0.0000 
      9 O5'       -76.5340  -33.3020   74.9440 O.3       1 ADP800      0.0000 
     10 C5'       -76.2580  -33.9920   73.7410 C.3       1 ADP800      0.0000 
     11 C4'       -75.2170  -35.0280   74.0850 C.3       1 ADP800      0.0000 
     12 O4'       -75.7180  -36.3330   73.8220 O.3       1 ADP800      0.0000 
     13 C3'       -73.9440  -34.8560   73.2890 C.3       1 ADP800      0.0000 
     14 O3'       -72.9710  -34.1830   74.0790 O.3       1 ADP800      0.0000 
     15 C2'       -73.4810  -36.2630   72.9900 C.3       1 ADP800      0.0000 
     16 O2'       -72.3630  -36.6350   73.8020 O.3       1 ADP800      0.0000 
     17 C1'       -74.6700  -37.1490   73.3070 C.3       1 ADP800      0.0000 
     18 N9        -75.0940  -37.7510   72.0330 N.pl3     1 ADP800      0.0000 
     19 C8        -75.7850  -37.1130   71.0780 C.2       1 ADP800      0.0000 
     20 N7        -76.0130  -37.9300   70.0210 N.2       1 ADP800      0.0000 
     21 C5        -75.4580  -39.1190   70.3030 C.ar      1 ADP800      0.0000 
     22 C6        -75.3100  -40.4200   69.6160 C.ar      1 ADP800      0.0000 
     23 N6        -75.8340  -40.6320   68.3910 N.pl3     1 ADP800      0.0000 
     24 N1        -74.6550  -41.4080   70.2500 N.ar      1 ADP800      0.0000 
     25 C2        -74.1290  -41.2130   71.4610 C.ar      1 ADP800      0.0000 
     26 N3        -74.1980  -40.0620   72.1420 N.ar      1 ADP800      0.0000 
     27 C4        -74.8350  -38.9910   71.6250 C.ar      1 ADP800      0.0000 
@<TRIPOS>BOND
     1    1    2 ar   
     2    1    3 ar   
     3    1    4 ar   
     4    1    8 1    
     5    5    6 ar   
     6    5    7 ar   
     7    5    8 1    
     8    5    9 1    
     9    9   10 1    
    10   10   11 1    
    11   11   12 1    
    12   11   13 1    
    13   12   17 1    
    14   13   14 1    
    15   13   15 1    
    16   15   16 1    
    17   15   17 1    
    18   17   18 1    
    19   18   19 1    
    20   18   27 1    
    21   19   20 2    
    22   20   21 1    
    23   21   22 ar   
    24   21   27 ar   
    25   22   23 1    
    26   22   24 ar   
    27   24   25 ar   
    28   25   26 ar   
    29   26   27 ar   
@<TRIPOS>SUBSTRUCTURE
     1 ADP800      1 GROUP   
@<TRIPOS>SET
ATOM$ORANGE STATIC     ATOMS   COLORGROUP SYSTEM 
20 10 10 11 11 13 13 15 15 17 17 19 19 21 21 22 22 25 \
25 27 27 

