#    Name: 6f3a_2_ADP
#    Modification time : Fri May 22 19:36:37 2020

@<TRIPOS>MOLECULE
6f3a_2_ADP
   27    29     1     0     1
SMALL
NO_CHARGES


@<TRIPOS>ATOM
      1 PB        -36.1960  -36.0800   81.9360 P.3       1 ADP800      0.0000 
      2 O1B       -36.8210  -36.1490   80.5700 O.co2     1 ADP800      0.0000 
      3 O2B       -35.8220  -37.4130   82.5270 O.co2     1 ADP800      0.0000 
      4 O3B       -36.8420  -35.0720   82.8430 O.co2     1 ADP800      0.0000 
      5 PA        -33.6900  -35.7710   80.6880 P.3       1 ADP800      0.0000 
      6 O1A       -34.3050  -35.7890   79.3240 O.co2     1 ADP800      0.0000 
      7 O2A       -32.8190  -36.8810   81.1980 O.co2     1 ADP800      0.0000 
      8 O3A       -34.7850  -35.3620   81.7670 O.3       1 ADP800      0.0000 
      9 O5'       -32.8440  -34.4320   80.7560 O.3       1 ADP800      0.0000 
     10 C5'       -31.9610  -34.1820   79.6910 C.3       1 ADP800      0.0000 
     11 C4'       -32.5160  -32.9060   79.1340 C.3       1 ADP800      0.0000 
     12 O4'       -32.7490  -32.0610   80.2550 O.3       1 ADP800      0.0000 
     13 C3'       -31.5440  -32.1820   78.2340 C.3       1 ADP800      0.0000 
     14 O3'       -31.7240  -32.5010   76.8620 O.3       1 ADP800      0.0000 
     15 C2'       -31.8970  -30.7390   78.4680 C.3       1 ADP800      0.0000 
     16 O2'       -32.8820  -30.2770   77.5490 O.3       1 ADP800      0.0000 
     17 C1'       -32.4760  -30.7250   79.8590 C.3       1 ADP800      0.0000 
     18 N9        -31.4060  -30.0760   80.6290 N.pl3     1 ADP800      0.0000 
     19 C8        -30.3470  -30.5860   81.2760 C.2       1 ADP800      0.0000 
     20 N7        -29.6100  -29.5870   81.8350 N.2       1 ADP800      0.0000 
     21 C5        -30.1880  -28.4160   81.5070 C.ar      1 ADP800      0.0000 
     22 C6        -29.9710  -26.9740   81.7510 C.ar      1 ADP800      0.0000 
     23 N6        -28.9170  -26.5080   82.4490 N.pl3     1 ADP800      0.0000 
     24 N1        -30.8490  -26.1210   81.1980 N.ar      1 ADP800      0.0000 
     25 C2        -31.8850  -26.5600   80.4690 C.ar      1 ADP800      0.0000 
     26 N3        -32.1630  -27.8270   80.2200 N.ar      1 ADP800      0.0000 
     27 C4        -31.3600  -28.7720   80.7110 C.ar      1 ADP800      0.0000 
@<TRIPOS>BOND
     1    1    2 ar   
     2    1    3 ar   
     3    1    4 ar   
     4    1    8 1    
     5    5    6 ar   
     6    5    7 ar   
     7    5    8 1    
     8    5    9 1    
     9    9   10 1    
    10   10   11 1    
    11   11   12 1    
    12   11   13 1    
    13   12   17 1    
    14   13   14 1    
    15   13   15 1    
    16   15   16 1    
    17   15   17 1    
    18   17   18 1    
    19   18   19 1    
    20   18   27 1    
    21   19   20 2    
    22   20   21 1    
    23   21   22 ar   
    24   21   27 ar   
    25   22   23 1    
    26   22   24 ar   
    27   24   25 ar   
    28   25   26 ar   
    29   26   27 ar   
@<TRIPOS>SUBSTRUCTURE
     1 ADP800      1 GROUP   
@<TRIPOS>SET
ATOM$ORANGE STATIC     ATOMS   COLORGROUP SYSTEM 
20 10 10 11 11 13 13 15 15 17 17 19 19 21 21 22 22 25 \
25 27 27 

