#    Name: 6f3a_8_ATP
#    Modification time : Fri May 22 19:37:45 2020

@<TRIPOS>MOLECULE
6f3a_8_ATP
   31    33     1     0     1
SMALL
NO_CHARGES


@<TRIPOS>ATOM
      1 PG         69.0670   -7.2820  -44.9700 P.3       1 ATP401      0.0000 
      2 O1G        68.3520   -8.4170  -45.6490 O.co2     1 ATP401      0.0000 
      3 O2G        69.1460   -7.3400  -43.4680 O.co2     1 ATP401      0.0000 
      4 O3G        68.6600   -5.9380  -45.5290 O.co2     1 ATP401      0.0000 
      5 PB         71.6070   -6.3120  -45.4490 P.3       1 ATP401      0.0000 
      6 O1B        71.7680   -5.9230  -46.8890 O.co2     1 ATP401      0.0000 
      7 O2B        71.1440   -5.3050  -44.4360 O.co2     1 ATP401      0.0000 
      8 O3B        70.5980   -7.5440  -45.3850 O.3       1 ATP401      0.0000 
      9 PA         73.2170   -7.5530  -43.5250 P.3       1 ATP401      0.0000 
     10 O1A        72.6350   -8.9410  -43.5720 O.co2     1 ATP401      0.0000 
     11 O2A        72.7240   -6.5930  -42.4830 O.co2     1 ATP401      0.0000 
     12 O3A        73.0230   -6.9040  -44.9800 O.3       1 ATP401      0.0000 
     13 O5'        74.8180   -7.6600  -43.3840 O.3       1 ATP401      0.0000 
     14 C5'        75.6990   -6.6610  -43.9040 C.3       1 ATP401      0.0000 
     15 C4'        76.4720   -6.1110  -42.7150 C.3       1 ATP401      0.0000 
     16 O4'        77.1130   -7.1660  -42.0120 O.3       1 ATP401      0.0000 
     17 C3'        77.5610   -5.0940  -42.9910 C.3       1 ATP401      0.0000 
     18 O3'        77.1120   -3.7700  -42.7270 O.3       1 ATP401      0.0000 
     19 C2'        78.6350   -5.3890  -41.9750 C.3       1 ATP401      0.0000 
     20 O2'        78.7090   -4.3200  -41.0360 O.3       1 ATP401      0.0000 
     21 C1'        78.1790   -6.6280  -41.2420 C.3       1 ATP401      0.0000 
     22 N9         79.2880   -7.5880  -41.1840 N.pl3     1 ATP401      0.0000 
     23 C8         79.3030   -8.7820  -41.7800 C.2       1 ATP401      0.0000 
     24 N7         80.4640   -9.4300  -41.5370 N.2       1 ATP401      0.0000 
     25 C5         81.2180   -8.6260  -40.7760 C.ar      1 ATP401      0.0000 
     26 C6         82.5580   -8.6970  -40.1530 C.ar      1 ATP401      0.0000 
     27 N6         83.3450   -9.7810  -40.3140 N.pl3     1 ATP401      0.0000 
     28 N1         82.9730   -7.6490  -39.4160 N.ar      1 ATP401      0.0000 
     29 C2         82.2040   -6.5670  -39.2600 C.ar      1 ATP401      0.0000 
     30 N3         80.9720   -6.4360  -39.7830 N.ar      1 ATP401      0.0000 
     31 C4         80.4320   -7.4140  -40.5380 C.ar      1 ATP401      0.0000 
@<TRIPOS>BOND
     1    1    2 ar   
     2    1    3 ar   
     3    1    4 ar   
     4    1    8 1    
     5    5    6 ar   
     6    5    7 ar   
     7    5    8 1    
     8    5   12 1    
     9    9   10 ar   
    10    9   11 ar   
    11    9   12 1    
    12    9   13 1    
    13   13   14 1    
    14   14   15 1    
    15   15   16 1    
    16   15   17 1    
    17   16   21 1    
    18   17   18 1    
    19   17   19 1    
    20   19   20 1    
    21   19   21 1    
    22   21   22 1    
    23   22   23 1    
    24   22   31 1    
    25   23   24 2    
    26   24   25 1    
    27   25   26 ar   
    28   25   31 ar   
    29   26   27 1    
    30   26   28 ar   
    31   28   29 ar   
    32   29   30 ar   
    33   30   31 ar   
@<TRIPOS>SUBSTRUCTURE
     1 ATP401      1 GROUP   
@<TRIPOS>SET
ATOM$ORANGE STATIC     ATOMS   COLORGROUP SYSTEM 
20 14 14 15 15 17 17 19 19 21 21 23 23 25 25 26 26 29 \
29 31 31 

