#    Name: 6f3a_3_ADP
#    Modification time : Fri May 22 19:36:48 2020

@<TRIPOS>MOLECULE
6f3a_3_ADP
   27    29     1     0     1
SMALL
NO_CHARGES


@<TRIPOS>ATOM
      1 PB        -38.9240  -11.6540   44.6540 P.3       1 ADP800      0.0000 
      2 O1B       -37.5060  -11.3530   44.2550 O.co2     1 ADP800      0.0000 
      3 O2B       -39.9640  -10.6000   44.3820 O.co2     1 ADP800      0.0000 
      4 O3B       -39.0260  -12.3420   45.9860 O.co2     1 ADP800      0.0000 
      5 PA        -39.3300  -12.4670   42.0560 P.3       1 ADP800      0.0000 
      6 O1A       -40.6420  -12.9360   41.4960 O.co2     1 ADP800      0.0000 
      7 O2A       -38.8100  -11.0830   41.7740 O.co2     1 ADP800      0.0000 
      8 O3A       -39.3460  -12.7860   43.6180 O.3       1 ADP800      0.0000 
      9 O5'       -38.1590  -13.4420   41.6030 O.3       1 ADP800      0.0000 
     10 C5'       -37.3830  -13.0500   40.5000 C.3       1 ADP800      0.0000 
     11 C4'       -36.7460  -14.3030   39.9940 C.3       1 ADP800      0.0000 
     12 O4'       -37.2060  -14.5620   38.6940 O.3       1 ADP800      0.0000 
     13 C3'       -35.2390  -14.2430   39.8590 C.3       1 ADP800      0.0000 
     14 O3'       -34.7460  -14.9650   40.9710 O.3       1 ADP800      0.0000 
     15 C2'       -34.9210  -15.0260   38.6040 C.3       1 ADP800      0.0000 
     16 O2'       -34.0640  -16.1160   38.9320 O.3       1 ADP800      0.0000 
     17 C1'       -36.2920  -15.5780   38.3360 C.3       1 ADP800      0.0000 
     18 N9        -36.7260  -16.1830   37.0660 N.pl3     1 ADP800      0.0000 
     19 C8        -37.4350  -15.6040   36.0880 C.2       1 ADP800      0.0000 
     20 N7        -37.6970  -16.5000   35.1060 N.2       1 ADP800      0.0000 
     21 C5        -37.2030  -17.6830   35.5010 C.ar      1 ADP800      0.0000 
     22 C6        -37.0910  -19.0410   34.9430 C.ar      1 ADP800      0.0000 
     23 N6        -37.6230  -19.3700   33.7460 N.pl3     1 ADP800      0.0000 
     24 N1        -36.4470  -19.9710   35.6720 N.ar      1 ADP800      0.0000 
     25 C2        -35.9100  -19.6970   36.8660 C.ar      1 ADP800      0.0000 
     26 N3        -35.9460  -18.4820   37.4200 N.ar      1 ADP800      0.0000 
     27 C4        -36.5580  -17.4620   36.7910 C.ar      1 ADP800      0.0000 
@<TRIPOS>BOND
     1    1    2 ar   
     2    1    3 ar   
     3    1    4 ar   
     4    1    8 1    
     5    5    6 ar   
     6    5    7 ar   
     7    5    8 1    
     8    5    9 1    
     9    9   10 1    
    10   10   11 1    
    11   11   12 1    
    12   11   13 1    
    13   12   17 1    
    14   13   14 1    
    15   13   15 1    
    16   15   16 1    
    17   15   17 1    
    18   17   18 1    
    19   18   19 1    
    20   18   27 1    
    21   19   20 2    
    22   20   21 1    
    23   21   22 ar   
    24   21   27 ar   
    25   22   23 1    
    26   22   24 ar   
    27   24   25 ar   
    28   25   26 ar   
    29   26   27 ar   
@<TRIPOS>SUBSTRUCTURE
     1 ADP800      1 GROUP   
@<TRIPOS>SET
ATOM$ORANGE STATIC     ATOMS   COLORGROUP SYSTEM 
20 10 10 11 11 13 13 15 15 17 17 19 19 21 21 22 22 25 \
25 27 27 

