#    Name: 6f3a_10_ADP
#    Modification time : Fri May 22 19:38:08 2020

@<TRIPOS>MOLECULE
6f3a_10_ADP
   27    29     1     0     1
SMALL
NO_CHARGES


@<TRIPOS>ATOM
      1 PB         99.9050   13.9540  -85.7210 P.3       1 ADP800      0.0000 
      2 O1B       100.0200   14.5860  -87.0540 O.co2     1 ADP800      0.0000 
      3 O2B        98.6100   13.2650  -85.4010 O.co2     1 ADP800      0.0000 
      4 O3B       100.4800   14.7990  -84.6290 O.co2     1 ADP800      0.0000 
      5 PA        100.6050   11.7920  -87.2890 P.3       1 ADP800      0.0000 
      6 O1A       100.6360   12.4510  -88.6500 O.co2     1 ADP800      0.0000 
      7 O2A        99.4900   10.8500  -86.9330 O.co2     1 ADP800      0.0000 
      8 O3A       100.8850   12.7610  -86.0350 O.3       1 ADP800      0.0000 
      9 O5'       101.9930   11.0260  -87.1680 O.3       1 ADP800      0.0000 
     10 C5'       102.5830   10.8440  -85.8880 C.3       1 ADP800      0.0000 
     11 C4'       103.8920   11.6150  -85.8430 C.3       1 ADP800      0.0000 
     12 O4'       104.9990   10.7500  -85.6510 O.3       1 ADP800      0.0000 
     13 C3'       104.1780   12.3610  -87.1200 C.3       1 ADP800      0.0000 
     14 O3'       104.9150   13.5000  -86.7520 O.3       1 ADP800      0.0000 
     15 C2'       105.1880   11.5460  -87.8550 C.3       1 ADP800      0.0000 
     16 O2'       106.0810   12.3990  -88.5560 O.3       1 ADP800      0.0000 
     17 C1'       105.9130   10.8660  -86.7350 C.3       1 ADP800      0.0000 
     18 N9        106.2040    9.5210  -87.2080 N.pl3     1 ADP800      0.0000 
     19 C8        105.4310    8.7770  -88.0080 C.2       1 ADP800      0.0000 
     20 N7        106.0060    7.5800  -88.2400 N.2       1 ADP800      0.0000 
     21 C5        107.1750    7.5770  -87.5830 C.ar      1 ADP800      0.0000 
     22 C6        108.2880    6.6380  -87.3970 C.ar      1 ADP800      0.0000 
     23 N6        108.2780    5.4180  -87.9800 N.pl3     1 ADP800      0.0000 
     24 N1        109.3170    7.0460  -86.6350 N.ar      1 ADP800      0.0000 
     25 C2        109.3530    8.2460  -86.0390 C.ar      1 ADP800      0.0000 
     26 N3        108.3800    9.1490  -86.1650 N.ar      1 ADP800      0.0000 
     27 C4        107.3120    8.8780  -86.9340 C.ar      1 ADP800      0.0000 
@<TRIPOS>BOND
     1    1    2 ar   
     2    1    3 ar   
     3    1    4 ar   
     4    1    8 1    
     5    5    6 ar   
     6    5    7 ar   
     7    5    8 1    
     8    5    9 1    
     9    9   10 1    
    10   10   11 1    
    11   11   12 1    
    12   11   13 1    
    13   12   17 1    
    14   13   14 1    
    15   13   15 1    
    16   15   16 1    
    17   15   17 1    
    18   17   18 1    
    19   18   19 1    
    20   18   27 1    
    21   19   20 2    
    22   20   21 1    
    23   21   22 ar   
    24   21   27 ar   
    25   22   23 1    
    26   22   24 ar   
    27   24   25 ar   
    28   25   26 ar   
    29   26   27 ar   
@<TRIPOS>SUBSTRUCTURE
     1 ADP800      1 GROUP   
@<TRIPOS>SET
ATOM$ORANGE STATIC     ATOMS   COLORGROUP SYSTEM 
20 10 10 11 11 13 13 15 15 17 17 19 19 21 21 22 22 25 \
25 27 27 

