#    Name: 6fjk_2_ADP
#    Modification time : Fri May 22 19:25:44 2020

@<TRIPOS>MOLECULE
6fjk_2_ADP
   39    41     1     0     1
SMALL
NO_CHARGES


@<TRIPOS>ATOM
      1 PB        -14.6740  -15.5620  -18.5160 P.3       1 ADP502      0.0000 
      2 O1B       -15.1760  -14.1340  -18.4570 O.co2     1 ADP502      0.0000 
      3 O2B       -13.4330  -15.8340  -17.6920 O.co2     1 ADP502      0.0000 
      4 O3B       -15.7820  -16.5740  -18.3360 O.co2     1 ADP502      0.0000 
      5 PA        -13.3430  -14.5460  -20.7880 P.3       1 ADP502      0.0000 
      6 O1A       -14.3200  -13.4310  -21.1220 O.co2     1 ADP502      0.0000 
      7 O2A       -12.1190  -14.2380  -19.9500 O.co2     1 ADP502      0.0000 
      8 O3A       -14.1490  -15.7370  -20.0410 O.3       1 ADP502      0.0000 
      9 O5'       -12.8180  -15.2070  -22.1770 O.3       1 ADP502      0.0000 
     10 C5'       -12.4890  -16.5840  -22.3400 C.3       1 ADP502      0.0000 
     11 C4'       -11.3490  -16.7390  -23.3420 C.3       1 ADP502      0.0000 
     12 O4'       -11.7260  -16.3080  -24.6590 O.3       1 ADP502      0.0000 
     13 C3'       -10.1300  -15.9240  -22.9410 C.3       1 ADP502      0.0000 
     14 O3'        -9.2460  -16.7240  -22.1490 O.3       1 ADP502      0.0000 
     15 C2'        -9.5300  -15.4820  -24.2560 C.3       1 ADP502      0.0000 
     16 O2'        -8.5220  -16.3920  -24.7000 O.3       1 ADP502      0.0000 
     17 C1'       -10.6720  -15.5520  -25.2480 C.3       1 ADP502      0.0000 
     18 N9        -11.1990  -14.2120  -25.5460 N.pl3     1 ADP502      0.0000 
     19 C8        -12.1060  -13.5520  -24.8020 C.2       1 ADP502      0.0000 
     20 N7        -12.4100  -12.3550  -25.3610 N.2       1 ADP502      0.0000 
     21 C5        -11.6940  -12.2490  -26.4910 C.ar      1 ADP502      0.0000 
     22 C6        -11.5400  -11.2390  -27.5490 C.ar      1 ADP502      0.0000 
     23 N6        -12.2430  -10.0980  -27.4650 N.pl3     1 ADP502      0.0000 
     24 N1        -10.6780  -11.4980  -28.5630 N.ar      1 ADP502      0.0000 
     25 C2         -9.9870  -12.6490  -28.6230 C.ar      1 ADP502      0.0000 
     26 N3        -10.0900  -13.6180  -27.6960 N.ar      1 ADP502      0.0000 
     27 C4        -10.9010  -13.4760  -26.6220 C.ar      1 ADP502      0.0000 
     28 H5'1      -13.3660  -17.1310  -22.6940 H         1 ADP502      0.0000 
     29 H5'2      -12.1920  -17.0060  -21.3780 H         1 ADP502      0.0000 
     30 H4'       -11.0600  -17.7990  -23.3740 H         1 ADP502      0.0000 
     31 H3'       -10.4560  -15.0390  -22.3770 H         1 ADP502      0.0000 
     32 HO3'       -8.4740  -16.1990  -21.8970 H         1 ADP502      0.0000 
     33 H2'        -9.1480  -14.4550  -24.1810 H         1 ADP502      0.0000 
     34 HO2'       -7.8050  -16.4200  -24.0510 H         1 ADP502      0.0000 
     35 H1'       -10.3220  -16.0390  -26.1690 H         1 ADP502      0.0000 
     36 H8        -12.5330  -13.9250  -23.8790 H         1 ADP502      0.0000 
     37 HN61      -12.1490   -9.3930  -28.1830 H         1 ADP502      0.0000 
     38 HN62      -12.8660   -9.9450  -26.6850 H         1 ADP502      0.0000 
     39 H2         -9.3220  -12.8080  -29.4620 H         1 ADP502      0.0000 
@<TRIPOS>BOND
     1    1    2 ar   
     2    1    3 ar   
     3    1    4 ar   
     4    1    8 1    
     5    5    6 ar   
     6    5    7 ar   
     7    5    8 1    
     8    5    9 1    
     9    9   10 1    
    10   10   11 1    
    11   10   28 1    
    12   10   29 1    
    13   11   12 1    
    14   11   13 1    
    15   11   30 1    
    16   12   17 1    
    17   13   14 1    
    18   13   15 1    
    19   13   31 1    
    20   14   32 1    
    21   15   16 1    
    22   15   17 1    
    23   15   33 1    
    24   16   34 1    
    25   17   18 1    
    26   17   35 1    
    27   18   19 1    
    28   18   27 1    
    29   19   20 2    
    30   19   36 1    
    31   20   21 1    
    32   21   22 ar   
    33   21   27 ar   
    34   22   23 1    
    35   22   24 ar   
    36   23   37 1    
    37   23   38 1    
    38   24   25 ar   
    39   25   26 ar   
    40   25   39 1    
    41   26   27 ar   
@<TRIPOS>SUBSTRUCTURE
     1 ADP502      1 GROUP   
@<TRIPOS>SET
ATOM$ORANGE STATIC     ATOMS   COLORGROUP SYSTEM 
20 10 10 11 11 13 13 15 15 17 17 19 19 21 21 22 22 25 \
25 27 27 

