#    Name: 5yij_1_NAI
#    Modification time : Fri May 22 19:25:53 2020

@<TRIPOS>MOLECULE
5yij_1_NAI
   44    48     1     0     1
SMALL
NO_CHARGES


@<TRIPOS>ATOM
      1 PA        377.8580  -17.5370  337.1620 P.3       1 NAI1201     0.0000 
      2 O1A       378.3400  -18.7540  336.5360 O.co2     1 NAI1201     0.0000 
      3 O2A       376.9290  -17.4510  338.2860 O.co2     1 NAI1201     0.0000 
      4 O5B       377.1040  -17.1010  335.9230 O.3       1 NAI1201     0.0000 
      5 C5B       377.8060  -16.5590  334.8550 C.3       1 NAI1201     0.0000 
      6 C4B       377.6040  -17.1680  333.4710 C.3       1 NAI1201     0.0000 
      7 O4B       376.7410  -18.2540  333.3310 O.3       1 NAI1201     0.0000 
      8 C3B       377.0230  -16.1570  332.5660 C.3       1 NAI1201     0.0000 
      9 O3B       378.0670  -15.4500  331.9910 O.3       1 NAI1201     0.0000 
     10 C2B       376.3390  -16.9230  331.5250 C.3       1 NAI1201     0.0000 
     11 O2B       377.0520  -16.6470  330.3490 O.3       1 NAI1201     0.0000 
     12 C1B       376.4720  -18.3360  331.9540 C.3       1 NAI1201     0.0000 
     13 N9A       375.2240  -19.0590  331.6560 N.pl3     1 NAI1201     0.0000 
     14 C8A       375.0210  -19.9520  330.6920 C.2       1 NAI1201     0.0000 
     15 N7A       373.7700  -20.4170  330.7010 N.2       1 NAI1201     0.0000 
     16 C5A       373.1620  -19.8120  331.6790 C.ar      1 NAI1201     0.0000 
     17 C6A       371.8410  -19.8580  332.2180 C.ar      1 NAI1201     0.0000 
     18 N6A       370.9160  -20.6450  331.7050 N.pl3     1 NAI1201     0.0000 
     19 N1A       371.6030  -19.0830  333.2450 N.ar      1 NAI1201     0.0000 
     20 C2A       372.5260  -18.2700  333.7590 C.ar      1 NAI1201     0.0000 
     21 N3A       373.7550  -18.1880  333.3090 N.ar      1 NAI1201     0.0000 
     22 C4A       374.1150  -18.9330  332.2960 C.ar      1 NAI1201     0.0000 
     23 O3        378.9000  -16.4000  337.3230 O.3       1 NAI1201     0.0000 
     24 PN        378.4260  -14.9310  337.2200 P.3       1 NAI1201     0.0000 
     25 O1N       379.0230  -14.2810  336.0640 O.co2     1 NAI1201     0.0000 
     26 O2N       376.9730  -14.9110  337.3490 O.co2     1 NAI1201     0.0000 
     27 O5D       379.1300  -14.2050  338.4150 O.3       1 NAI1201     0.0000 
     28 C5D       380.5230  -14.3870  338.4390 C.3       1 NAI1201     0.0000 
     29 C4D       381.4040  -13.4870  339.3130 C.3       1 NAI1201     0.0000 
     30 O4D       381.2220  -12.1110  339.1470 O.3       1 NAI1201     0.0000 
     31 C3D       381.2430  -13.6510  340.7720 C.3       1 NAI1201     0.0000 
     32 O3D       382.4850  -13.3310  341.3280 O.3       1 NAI1201     0.0000 
     33 C2D       380.3690  -12.5730  341.2620 C.3       1 NAI1201     0.0000 
     34 O2D       380.7130  -12.2560  342.6070 O.3       1 NAI1201     0.0000 
     35 C1D       380.7320  -11.4880  340.3190 C.3       1 NAI1201     0.0000 
     36 N1N       379.5920  -10.6450  340.0290 N.pl3     1 NAI1201     0.0000 
     37 C2N       378.8160  -10.9060  339.0080 C.2       1 NAI1201     0.0000 
     38 C3N       377.7600  -10.1330  338.6970 C.2       1 NAI1201     0.0000 
     39 C7N       376.9440  -10.4780  337.5640 C.2       1 NAI1201     0.0000 
     40 O7N       376.2760   -9.6420  337.0800 O.2       1 NAI1201     0.0000 
     41 N7N       376.9710  -11.6950  337.1180 N.am      1 NAI1201     0.0000 
     42 C4N       377.4670   -9.0600  339.4370 C.3       1 NAI1201     0.0000 
     43 C5N       378.2710   -8.7920  340.5010 C.2       1 NAI1201     0.0000 
     44 C6N       379.3350   -9.6080  340.7740 C.2       1 NAI1201     0.0000 
@<TRIPOS>BOND
     1    1    2 ar   
     2    1    3 ar   
     3    1    4 1    
     4    1   23 1    
     5    4    5 1    
     6    5    6 1    
     7    6    7 1    
     8    6    8 1    
     9    7   12 1    
    10    8    9 1    
    11    8   10 1    
    12   10   11 1    
    13   10   12 1    
    14   12   13 1    
    15   13   14 1    
    16   13   22 1    
    17   14   15 2    
    18   15   16 1    
    19   16   17 ar   
    20   16   22 ar   
    21   17   18 1    
    22   17   19 ar   
    23   19   20 ar   
    24   20   21 ar   
    25   21   22 ar   
    26   23   24 1    
    27   24   25 ar   
    28   24   26 ar   
    29   24   27 1    
    30   27   28 1    
    31   28   29 1    
    32   29   30 1    
    33   29   31 1    
    34   30   35 1    
    35   31   32 1    
    36   31   33 1    
    37   33   34 1    
    38   33   35 1    
    39   35   36 1    
    40   36   37 1    
    41   36   44 1    
    42   37   38 2    
    43   38   39 1    
    44   38   42 1    
    45   39   40 2    
    46   39   41 am   
    47   42   43 1    
    48   43   44 2    
@<TRIPOS>SUBSTRUCTURE
     1 NAI1201     1 GROUP   
@<TRIPOS>SET
ATOM$ORANGE STATIC     ATOMS   COLORGROUP SYSTEM 
42 5 5 6 6 8 8 10 10 12 12 14 14 16 16 17 17 20 \
20 22 22 28 28 29 29 31 31 33 33 35 35 37 37 38 38 39 \
39 42 42 43 43 44 44 

