#    Name: 5yij_1_NAI_CAVITY_N1_6
#    Modification time : Fri May 22 19:25:54 2020

@<TRIPOS>MOLECULE
5yij_1_NAI_CAVITY_N1_6
  184     0     7     0     0
SMALL
NO_CHARGES


@<TRIPOS>ATOM
      1 OG        380.4300  -19.1500  332.1600 O.3       1 SER1        0.0000 
      2 OG        379.0100  -19.0300  332.6100 O.3       1 SER1        0.0000 
      3 OG        379.2400  -20.1300  333.6100 O.3       1 SER1        0.0000 
      4 OG        382.2700  -18.2500  332.7200 O.3       1 SER1        0.0000 
      5 OG        380.8500  -18.1300  333.1800 O.3       1 SER1        0.0000 
      6 OG        382.5000  -19.3500  333.7200 O.3       1 SER1        0.0000 
      7 OG        381.0800  -19.2300  334.1800 O.3       1 SER1        0.0000 
      8 OG        379.6500  -19.1200  334.6300 O.3       1 SER1        0.0000 
      9 OG        379.8900  -20.2100  335.6300 O.3       1 SER1        0.0000 
     10 OG        382.9100  -18.3300  334.7400 O.3       1 SER1        0.0000 
     11 OG        378.3000  -10.4700  333.1900 O.3       1 SER1        0.0000 
     12 OG        377.8100  -14.7400  337.6300 O.3       1 SER1        0.0000 
     13 OG        378.0400  -15.8400  338.6200 O.3       1 SER1        0.0000 
     14 OG        376.6200  -15.7300  339.0800 O.3       1 SER1        0.0000 
     15 OG        377.9900  -12.6300  337.6600 O.3       1 SER1        0.0000 
     16 OG        379.6400  -13.8400  338.1900 O.3       1 SER1        0.0000 
     17 OG        378.2200  -13.7300  338.6500 O.3       1 SER1        0.0000 
     18 OG        379.8800  -14.9400  339.1900 O.3       1 SER1        0.0000 
     19 OG        378.6800  -15.9200  340.6400 O.3       1 SER1        0.0000 
     20 OG        378.4000  -11.6100  338.6800 O.3       1 SER1        0.0000 
     21 OG        380.0500  -12.8300  339.2200 O.3       1 SER1        0.0000 
     22 OG        380.2900  -13.9200  340.2100 O.3       1 SER1        0.0000 
     23 OG        380.5200  -15.0200  341.2100 O.3       1 SER1        0.0000 
     24 OG        380.4700  -11.8100  340.2400 O.3       1 SER1        0.0000 
     25 OG        379.0400  -11.7000  340.7000 O.3       1 SER1        0.0000 
     26 OG        380.7000  -12.9100  341.2400 O.3       1 SER1        0.0000 
     27 N         377.1200  -16.7200  331.0800 N.am      2 ALA2        0.0000 
     28 O         378.9600  -15.8200  331.6500 O.2       2 ALA2        0.0000 
     29 O         377.5300  -15.7100  332.1100 O.2       2 ALA2        0.0000 
     30 N         383.4100  -14.0500  330.3000 N.am      2 ALA2        0.0000 
     31 O         381.9800  -13.9400  330.7600 O.2       2 ALA2        0.0000 
     32 N         380.5600  -13.8200  331.2200 N.am      2 ALA2        0.0000 
     33 N         379.1400  -13.7100  331.6800 N.am      2 ALA2        0.0000 
     34 O         377.7100  -13.5900  332.1400 O.2       2 ALA2        0.0000 
     35 O         377.2200  -17.8700  336.5700 O.2       2 ALA2        0.0000 
     36 N         382.4000  -12.9200  331.7800 N.am      2 ALA2        0.0000 
     37 N         380.9700  -12.8100  332.2400 N.am      2 ALA2        0.0000 
     38 N         379.5500  -12.6900  332.7000 N.am      2 ALA2        0.0000 
     39 N         378.1200  -12.5800  333.1600 N.am      2 ALA2        0.0000 
     40 N         382.6300  -14.0200  332.7800 N.am      2 ALA2        0.0000 
     41 N         378.3600  -13.6800  334.1600 N.am      2 ALA2        0.0000 
     42 O         377.6300  -16.8600  337.6000 O.2       2 ALA2        0.0000 
     43 N         382.8100  -11.9100  332.8100 N.am      2 ALA2        0.0000 
     44 N         381.3800  -11.7900  333.2700 N.am      2 ALA2        0.0000 
     45 N         378.5400  -11.5600  334.1800 N.am      2 ALA2        0.0000 
     46 N         383.0400  -13.0000  333.8000 N.am      2 ALA2        0.0000 
     47 N         378.7700  -12.6600  335.1800 N.am      2 ALA2        0.0000 
     48 N         377.5200  -10.4300  335.6700 N.am      2 ALA2        0.0000 
     49 N         377.7600  -11.5300  336.6600 N.am      2 ALA2        0.0000 
     50 O         378.9200  -17.0200  341.6400 O.2       2 ALA2        0.0000 
     51 O         383.8600  -10.9700  335.8500 O.2       2 ALA2        0.0000 
     52 N         376.7400  -10.4000  338.1500 N.am      2 ALA2        0.0000 
     53 N         385.5200  -12.1900  336.3900 N.am      2 ALA2        0.0000 
     54 O         384.0900  -12.0700  336.8500 O.2       2 ALA2        0.0000 
     55 N         376.9800  -11.5000  339.1400 N.am      2 ALA2        0.0000 
     56 N         384.3300  -13.1700  337.8400 N.am      2 ALA2        0.0000 
     57 N         380.7500  -16.1200  342.2000 N.am      2 ALA2        0.0000 
     58 N         379.3300  -16.0100  342.6600 N.am      2 ALA2        0.0000 
     59 N         377.3900  -10.4800  340.1600 N.am      2 ALA2        0.0000 
     60 O         377.8000   -9.4700  341.1900 O.2       2 ALA2        0.0000 
     61 OD1       378.6000  -20.0500  331.5900 O.co2     3 ASP3        0.0000 
     62 OD1       377.1700  -19.9400  332.0500 O.co2     3 ASP3        0.0000 
     63 OD1       375.9300  -17.7100  332.5400 O.co2     3 ASP3        0.0000 
     64 OD1       377.5900  -18.9200  333.0700 O.co2     3 ASP3        0.0000 
     65 OD1       376.5700  -17.7900  334.5600 O.co2     3 ASP3        0.0000 
     66 OD1       378.2300  -19.0000  335.0900 O.co2     3 ASP3        0.0000 
     67 OD1       378.4600  -20.1000  336.0900 O.co2     3 ASP3        0.0000 
     68 OD1       376.9900  -16.7700  335.5800 O.co2     3 ASP3        0.0000 
     69 OD1       375.7900  -17.7600  337.0300 O.co2     3 ASP3        0.0000 
     70 OD1       377.1600  -14.6600  335.6100 O.co2     3 ASP3        0.0000 
     71 OD1       377.4000  -15.7600  336.6000 O.co2     3 ASP3        0.0000 
     72 OD1       376.2100  -16.7400  338.0600 O.co2     3 ASP3        0.0000 
     73 OD1       377.5800  -13.6400  336.6300 O.co2     3 ASP3        0.0000 
     74 OD1       376.3300  -11.4200  337.1200 O.co2     3 ASP3        0.0000 
     75 OD1       384.5100  -11.0600  337.8700 O.co2     3 ASP3        0.0000 
     76 OD1       384.7400  -12.1500  338.8700 O.co2     3 ASP3        0.0000 
     77 OD1       383.3100  -12.0400  339.3300 O.co2     3 ASP3        0.0000 
     78 OD1       383.5500  -13.1400  340.3200 O.co2     3 ASP3        0.0000 
     79 OD1       382.1200  -13.0200  340.7800 O.co2     3 ASP3        0.0000 
     80 OD1       382.3000  -10.9100  340.8100 O.co2     3 ASP3        0.0000 
     81 NZ        379.5100  -13.8900  342.6900 N.4       4 LYS4        0.0000 
     82 NZ        380.8800  -10.8000  341.2700 N.4       4 LYS4        0.0000 
     83 NZ        379.4500  -10.6800  341.7300 N.4       4 LYS4        0.0000 
     84 NZ        381.1100  -11.8900  342.2600 N.4       4 LYS4        0.0000 
     85 CZ        381.2600  -17.1200  334.2000 C.ar      5 PHE5        0.0000 
     86 CZ        381.4900  -18.2200  335.2000 C.ar      5 PHE5        0.0000 
     87 CZ        380.0600  -18.1000  335.6600 C.ar      5 PHE5        0.0000 
     88 CZ        378.6400  -17.9900  336.1200 C.ar      5 PHE5        0.0000 
     89 CZ        380.3000  -19.2000  336.6500 C.ar      5 PHE5        0.0000 
     90 CZ        378.8700  -19.0800  337.1100 C.ar      5 PHE5        0.0000 
     91 CZ        383.0900  -16.2200  334.7700 C.ar      5 PHE5        0.0000 
     92 CZ        381.6700  -16.1000  335.2300 C.ar      5 PHE5        0.0000 
     93 CZ        380.2400  -15.9900  335.6900 C.ar      5 PHE5        0.0000 
     94 CZ        383.3200  -17.3100  335.7700 C.ar      5 PHE5        0.0000 
     95 CZ        379.0500  -16.9700  337.1400 C.ar      5 PHE5        0.0000 
     96 CZ        384.9300  -15.3200  335.3400 C.ar      5 PHE5        0.0000 
     97 CZ        383.5000  -15.2000  335.8000 C.ar      5 PHE5        0.0000 
     98 CZ        382.0800  -15.0900  336.2500 C.ar      5 PHE5        0.0000 
     99 CZ        380.6600  -14.9700  336.7100 C.ar      5 PHE5        0.0000 
    100 CZ        379.2300  -14.8600  337.1700 C.ar      5 PHE5        0.0000 
    101 CZ        379.4600  -15.9600  338.1700 C.ar      5 PHE5        0.0000 
    102 CZ        378.7100   -9.4500  334.2100 C.ar      5 PHE5        0.0000 
    103 CZ        383.2200  -10.8900  333.8300 C.ar      5 PHE5        0.0000 
    104 CZ        381.7900  -10.7800  334.2900 C.ar      5 PHE5        0.0000 
    105 CZ        380.3700  -10.6600  334.7500 C.ar      5 PHE5        0.0000 
    106 CZ        378.9500  -10.5500  335.2100 C.ar      5 PHE5        0.0000 
    107 CZ        383.4500  -11.9900  334.8300 C.ar      5 PHE5        0.0000 
    108 CZ        382.0300  -11.8700  335.2900 C.ar      5 PHE5        0.0000 
    109 CZ        380.6000  -11.7600  335.7500 C.ar      5 PHE5        0.0000 
    110 CZ        379.1800  -11.6500  336.2000 C.ar      5 PHE5        0.0000 
    111 CZ        383.9100  -14.1900  336.8200 C.ar      5 PHE5        0.0000 
    112 CZ        382.4900  -14.0700  337.2800 C.ar      5 PHE5        0.0000 
    113 CZ        381.0700  -13.9600  337.7400 C.ar      5 PHE5        0.0000 
    114 CZ        381.3000  -15.0500  338.7300 C.ar      5 PHE5        0.0000 
    115 CZ        380.1100  -16.0400  340.1900 C.ar      5 PHE5        0.0000 
    116 CZ        377.9300   -9.4200  336.6900 C.ar      5 PHE5        0.0000 
    117 CZ        382.4400  -10.8600  336.3100 C.ar      5 PHE5        0.0000 
    118 CZ        381.0100  -10.7400  336.7700 C.ar      5 PHE5        0.0000 
    119 CZ        379.5900  -10.6300  337.2300 C.ar      5 PHE5        0.0000 
    120 CZ        378.1700  -10.5200  337.6900 C.ar      5 PHE5        0.0000 
    121 CZ        382.6700  -11.9600  337.3100 C.ar      5 PHE5        0.0000 
    122 CZ        381.2500  -11.8400  337.7700 C.ar      5 PHE5        0.0000 
    123 CZ        379.8200  -11.7300  338.2200 C.ar      5 PHE5        0.0000 
    124 CZ        382.9000  -13.0600  338.3000 C.ar      5 PHE5        0.0000 
    125 CZ        384.5600  -14.2700  338.8400 C.ar      5 PHE5        0.0000 
    126 CZ        383.1300  -14.1500  339.3000 C.ar      5 PHE5        0.0000 
    127 CZ        381.7100  -14.0400  339.7600 C.ar      5 PHE5        0.0000 
    128 CZ        381.9400  -15.1400  340.7500 C.ar      5 PHE5        0.0000 
    129 CZ        377.1500   -9.3900  339.1700 C.ar      5 PHE5        0.0000 
    130 CZ        383.0800  -10.9400  338.3300 C.ar      5 PHE5        0.0000 
    131 CZ        381.6600  -10.8300  338.7900 C.ar      5 PHE5        0.0000 
    132 CZ        380.2300  -10.7100  339.2500 C.ar      5 PHE5        0.0000 
    133 CZ        378.8100  -10.6000  339.7100 C.ar      5 PHE5        0.0000 
    134 CZ        381.8900  -11.9300  339.7800 C.ar      5 PHE5        0.0000 
    135 CZ        379.2200   -9.5800  340.7300 C.ar      5 PHE5        0.0000 
    136 CA        375.2900  -17.6200  330.5200 C.3       6 GLY6        0.0000 
    137 CA        375.7000  -16.6100  331.5400 C.3       6 GLY6        0.0000 
    138 CA        374.2700  -16.4900  332.0000 C.3       6 GLY6        0.0000 
    139 CA        380.1500  -14.8400  330.1900 C.3       6 GLY6        0.0000 
    140 CA        376.1100  -15.5900  332.5600 C.3       6 GLY6        0.0000 
    141 CA        376.3400  -16.6900  333.5600 C.3       6 GLY6        0.0000 
    142 CA        377.9400  -14.6900  333.1300 C.3       6 GLY6        0.0000 
    143 CA        376.5200  -14.5800  333.5900 C.3       6 GLY6        0.0000 
    144 CA        376.7500  -15.6800  334.5800 C.3       6 GLY6        0.0000 
    145 CA        381.1500  -10.6900  332.2700 C.3       6 GLY6        0.0000 
    146 CA        379.7300  -10.5800  332.7300 C.3       6 GLY6        0.0000 
    147 CA        385.1100  -13.2000  335.3700 C.3       6 GLY6        0.0000 
    148 CA        380.9300  -14.0100  342.2300 C.3       6 GLY6        0.0000 
    149 DU        378.7800  -17.9400  331.6200 H         7 CUB7        0.0000 
    150 DU        377.3500  -17.8200  332.0800 H         7 CUB7        0.0000 
    151 DU        380.3800  -15.9400  331.1900 H         7 CUB7        0.0000 
    152 DU        383.4600  -17.2600  331.2700 H         7 CUB7        0.0000 
    153 DU        377.7700  -16.8100  333.1000 H         7 CUB7        0.0000 
    154 DU        379.4200  -18.0200  333.6400 H         7 CUB7        0.0000 
    155 DU        378.0000  -17.9000  334.1000 H         7 CUB7        0.0000 
    156 DU        383.6400  -15.1500  331.3000 H         7 CUB7        0.0000 
    157 DU        382.2200  -15.0400  331.7600 H         7 CUB7        0.0000 
    158 DU        380.7900  -14.9200  332.2100 H         7 CUB7        0.0000 
    159 DU        379.3700  -14.8100  332.6700 H         7 CUB7        0.0000 
    160 DU        383.8700  -16.2500  332.2900 H         7 CUB7        0.0000 
    161 DU        378.1800  -15.7900  334.1300 H         7 CUB7        0.0000 
    162 DU        382.6800  -17.2300  333.7500 H         7 CUB7        0.0000 
    163 DU        379.8300  -17.0000  334.6600 H         7 CUB7        0.0000 
    164 DU        378.4100  -16.8900  335.1200 H         7 CUB7        0.0000 
    165 DU        381.2000  -13.9100  333.2400 H         7 CUB7        0.0000 
    166 DU        379.7800  -13.7900  333.7000 H         7 CUB7        0.0000 
    167 DU        382.8600  -15.1200  333.7800 H         7 CUB7        0.0000 
    168 DU        381.4400  -15.0000  334.2300 H         7 CUB7        0.0000 
    169 DU        380.0100  -14.8900  334.6900 H         7 CUB7        0.0000 
    170 DU        378.5900  -14.7700  335.1500 H         7 CUB7        0.0000 
    171 DU        378.8200  -15.8700  336.1500 H         7 CUB7        0.0000 
    172 DU        379.9600  -11.6800  333.7300 H         7 CUB7        0.0000 
    173 DU        381.6200  -12.8900  334.2600 H         7 CUB7        0.0000 
    174 DU        380.1900  -12.7800  334.7200 H         7 CUB7        0.0000 
    175 DU        384.6900  -14.2200  334.3400 H         7 CUB7        0.0000 
    176 DU        383.2700  -14.1000  334.8000 H         7 CUB7        0.0000 
    177 DU        381.8500  -13.9900  335.2600 H         7 CUB7        0.0000 
    178 DU        380.4200  -13.8700  335.7200 H         7 CUB7        0.0000 
    179 DU        379.0000  -13.7600  336.1700 H         7 CUB7        0.0000 
    180 DU        383.6800  -13.0900  335.8200 H         7 CUB7        0.0000 
    181 DU        382.2600  -12.9700  336.2800 H         7 CUB7        0.0000 
    182 DU        380.8400  -12.8600  336.7400 H         7 CUB7        0.0000 
    183 DU        379.4100  -12.7400  337.2000 H         7 CUB7        0.0000 
    184 DU        381.4800  -12.9400  338.7600 H         7 CUB7        0.0000 
@<TRIPOS>BOND
@<TRIPOS>SUBSTRUCTURE
     1 SER1        1 GROUP   
     2 ALA2       27 GROUP   
     3 ASP3       61 GROUP   
     4 LYS4       81 GROUP   
     5 PHE5       85 GROUP   
     6 GLY6      136 GROUP   
     7 CUB7      149 GROUP   
@<TRIPOS>SET

