#    Name: 6isj_1_3NG
#    Modification time : Fri May 22 19:25:01 2020

@<TRIPOS>MOLECULE
6isj_1_3NG
   25    28     1     0     0
SMALL
NO_CHARGES


@<TRIPOS>ATOM
      1 C1         33.3030    6.1040   14.1310 C.ar      1 3NG401      0.0000 
      2 C2         32.3040    5.1860   13.7690 C.ar      1 3NG401      0.0000 
      3 C3         31.2870    4.8580   14.6590 C.ar      1 3NG401      0.0000 
      4 C4         31.2740    5.4180   15.9090 C.ar      1 3NG401      0.0000 
      5 C5         32.2460    6.2960   16.2320 C.ar      1 3NG401      0.0000 
      6 C6         33.2370    6.6570   15.3840 C.ar      1 3NG401      0.0000 
      7 C7         33.3700    5.0470   11.6580 C.ar      1 3NG401      0.0000 
      8 C8         32.3550    4.6340   12.4990 C.ar      1 3NG401      0.0000 
      9 N9         34.2760    6.4670   13.3190 N.ar      1 3NG401      0.0000 
     10 C10        34.3130    5.9620   12.0860 C.ar      1 3NG401      0.0000 
     11 C11        32.5290    3.4880   10.0360 C.ar      1 3NG401      0.0000 
     12 N12        31.4830    3.2340   10.8170 N.ar      1 3NG401      0.0000 
     13 C13        31.4120    3.7230   12.0510 C.ar      1 3NG401      0.0000 
     14 C14        33.4470    4.4760   10.3900 C.ar      1 3NG401      0.0000 
     15 N15        35.3660    6.2990   11.1480 N.pl3     1 3NG401      0.0000 
     16 C16        36.3500    7.3010   11.3660 C.ar      1 3NG401      0.0000 
     17 C17        36.8800    7.4320   12.5420 C.ar      1 3NG401      0.0000 
     18 C18        37.9630    8.4720   12.7680 C.ar      1 3NG401      0.0000 
     19 C19        38.4260    9.2450   11.7970 C.ar      1 3NG401      0.0000 
     20 C20        37.8040    9.0540   10.3990 C.ar      1 3NG401      0.0000 
     21 C21        36.8410    8.1450   10.2010 C.ar      1 3NG401      0.0000 
     22 CL22       38.5980    8.5610   14.4120 Cl        1 3NG401      0.0000 
     23 C23        32.1930    6.9300   17.5920 C.2       1 3NG401      0.0000 
     24 O24        33.1240    7.6570   17.9830 O.co2     1 3NG401      0.0000 
     25 O25        31.1840    6.7420   18.3210 O.co2     1 3NG401      0.0000 
@<TRIPOS>BOND
     1    1    2 ar   
     2    1    6 ar   
     3    1    9 ar   
     4    2    3 ar   
     5    2    8 ar   
     6    3    4 ar   
     7    4    5 ar   
     8    5    6 ar   
     9    5   23 1    
    10    7    8 ar   
    11    7   10 ar   
    12    7   14 ar   
    13    8   13 ar   
    14    9   10 ar   
    15   10   15 1    
    16   11   12 ar   
    17   11   14 ar   
    18   12   13 ar   
    19   15   16 1    
    20   16   17 ar   
    21   16   21 ar   
    22   17   18 ar   
    23   18   19 ar   
    24   18   22 1    
    25   19   20 ar   
    26   20   21 ar   
    27   23   24 ar   
    28   23   25 ar   
@<TRIPOS>SUBSTRUCTURE
     1 3NG401      1 GROUP   
@<TRIPOS>SET

