#    Name: 6evz_10_GTP
#    Modification time : Fri May 22 19:36:52 2020

@<TRIPOS>MOLECULE
6evz_10_GTP
   32    34     1     0     1
SMALL
NO_CHARGES


@<TRIPOS>ATOM
      1 PG         44.4680  148.7420   80.4820 P.3       1 GTP501      0.0000 
      2 O1G        43.3950  147.7370   80.6460 O.co2     1 GTP501      0.0000 
      3 O2G        45.8000  148.3180   81.0810 O.co2     1 GTP501      0.0000 
      4 O3G        44.1070  150.1120   81.0400 O.co2     1 GTP501      0.0000 
      5 O3B        44.7410  148.9510   78.9300 O.3       1 GTP501      0.0000 
      6 PB         45.0570  147.9110   77.7700 P.3       1 GTP501      0.0000 
      7 O1B        44.2550  148.2870   76.5380 O.co2     1 GTP501      0.0000 
      8 O2B        46.5000  147.9100   77.4690 O.co2     1 GTP501      0.0000 
      9 O3A        44.6120  146.4560   78.2340 O.3       1 GTP501      0.0000 
     10 PA         45.0650  145.0420   77.6630 P.3       1 GTP501      0.0000 
     11 O1A        45.4060  145.2500   76.2020 O.co2     1 GTP501      0.0000 
     12 O2A        46.2570  144.5810   78.3930 O.co2     1 GTP501      0.0000 
     13 O5'        43.8430  144.0430   77.7250 O.3       1 GTP501      0.0000 
     14 C5'        43.9400  142.6380   78.0310 C.3       1 GTP501      0.0000 
     15 C4'        43.7580  141.8480   76.7610 C.3       1 GTP501      0.0000 
     16 O4'        44.9740  141.8920   75.9800 O.3       1 GTP501      0.0000 
     17 C3'        43.4250  140.3690   76.9540 C.3       1 GTP501      0.0000 
     18 O3'        42.4620  139.9430   75.9990 O.3       1 GTP501      0.0000 
     19 C2'        44.7760  139.6890   76.7400 C.3       1 GTP501      0.0000 
     20 O2'        44.6290  138.3570   76.2630 O.3       1 GTP501      0.0000 
     21 C1'        45.3700  140.5750   75.6550 C.3       1 GTP501      0.0000 
     22 N9         46.8360  140.5290   75.5930 N.pl3     1 GTP501      0.0000 
     23 C8         47.7190  140.8680   76.5790 C.2       1 GTP501      0.0000 
     24 N7         48.9720  140.7200   76.2240 N.2       1 GTP501      0.0000 
     25 C5         48.9050  140.2530   74.9230 C.2       1 GTP501      0.0000 
     26 C6         49.9330  139.8970   74.0020 C.2       1 GTP501      0.0000 
     27 O6         51.1440  139.9310   74.1920 O.2       1 GTP501      0.0000 
     28 N1         49.4280  139.4670   72.7940 N.am      1 GTP501      0.0000 
     29 C2         48.1010  139.3740   72.4890 C.2       1 GTP501      0.0000 
     30 N2         47.7880  138.9180   71.2760 N.pl3     1 GTP501      0.0000 
     31 N3         47.1310  139.7040   73.3380 N.2       1 GTP501      0.0000 
     32 C4         47.5990  140.1300   74.5230 C.2       1 GTP501      0.0000 
@<TRIPOS>BOND
     1    1    2 ar   
     2    1    3 ar   
     3    1    4 ar   
     4    1    5 1    
     5    5    6 1    
     6    6    7 ar   
     7    6    8 ar   
     8    6    9 1    
     9    9   10 1    
    10   10   11 ar   
    11   10   12 ar   
    12   10   13 1    
    13   13   14 1    
    14   14   15 1    
    15   15   16 1    
    16   15   17 1    
    17   16   21 1    
    18   17   18 1    
    19   17   19 1    
    20   19   20 1    
    21   19   21 1    
    22   21   22 1    
    23   22   23 1    
    24   22   32 1    
    25   23   24 2    
    26   24   25 1    
    27   25   26 1    
    28   25   32 2    
    29   26   27 2    
    30   26   28 am   
    31   28   29 1    
    32   29   30 1    
    33   29   31 2    
    34   31   32 1    
@<TRIPOS>SUBSTRUCTURE
     1 GTP501      1 GROUP   
@<TRIPOS>SET
ATOM$ORANGE STATIC     ATOMS   COLORGROUP SYSTEM 
20 14 14 15 15 17 17 19 19 21 21 23 23 25 25 26 26 29 \
29 32 32 

