#    Name: 6evz_6_GDP
#    Modification time : Fri May 22 19:36:28 2020

@<TRIPOS>MOLECULE
6evz_6_GDP
   28    30     1     0     1
SMALL
NO_CHARGES


@<TRIPOS>ATOM
      1 PB         44.3570  147.9460  119.9500 P.3       1 GDP501      0.0000 
      2 O1B        43.7780  148.2190  118.6170 O.co2     1 GDP501      0.0000 
      3 O2B        43.5840  148.5960  121.0870 O.co2     1 GDP501      0.0000 
      4 O3B        45.8160  148.3620  120.0660 O.co2     1 GDP501      0.0000 
      5 O3A        44.3360  146.3790  120.2210 O.3       1 GDP501      0.0000 
      6 PA         45.0540  145.2000  119.4300 P.3       1 GDP501      0.0000 
      7 O1A        45.5030  145.7940  118.1070 O.co2     1 GDP501      0.0000 
      8 O2A        46.2220  144.7270  120.1990 O.co2     1 GDP501      0.0000 
      9 O5'        43.9920  144.0730  119.1130 O.3       1 GDP501      0.0000 
     10 C5'        44.1030  142.6720  119.4340 C.3       1 GDP501      0.0000 
     11 C4'        43.9070  141.8760  118.1680 C.3       1 GDP501      0.0000 
     12 O4'        45.0950  141.9660  117.3490 O.3       1 GDP501      0.0000 
     13 C3'        43.6330  140.3870  118.3590 C.3       1 GDP501      0.0000 
     14 O3'        42.6860  139.9140  117.4080 O.3       1 GDP501      0.0000 
     15 C2'        45.0080  139.7580  118.1420 C.3       1 GDP501      0.0000 
     16 O2'        44.8950  138.4310  117.6450 O.3       1 GDP501      0.0000 
     17 C1'        45.5810  140.6690  117.0650 C.3       1 GDP501      0.0000 
     18 N9         47.0480  140.7180  117.0610 N.pl3     1 GDP501      0.0000 
     19 C8         47.8570  141.3610  117.9560 C.2       1 GDP501      0.0000 
     20 N7         49.1330  141.2480  117.6770 N.2       1 GDP501      0.0000 
     21 C5         49.1630  140.4840  116.5230 C.2       1 GDP501      0.0000 
     22 C6         50.2520  140.0440  115.7210 C.2       1 GDP501      0.0000 
     23 O6         51.4470  140.2400  115.9210 O.2       1 GDP501      0.0000 
     24 N1         49.8360  139.3120  114.6290 N.am      1 GDP501      0.0000 
     25 C2         48.5360  139.0160  114.3310 C.2       1 GDP501      0.0000 
     26 N2         48.3170  138.2730  113.2460 N.pl3     1 GDP501      0.0000 
     27 N3         47.5070  139.4210  115.0710 N.2       1 GDP501      0.0000 
     28 C4         47.8870  140.1450  116.1380 C.2       1 GDP501      0.0000 
@<TRIPOS>BOND
     1    1    2 ar   
     2    1    3 ar   
     3    1    4 ar   
     4    1    5 1    
     5    5    6 1    
     6    6    7 ar   
     7    6    8 ar   
     8    6    9 1    
     9    9   10 1    
    10   10   11 1    
    11   11   12 1    
    12   11   13 1    
    13   12   17 1    
    14   13   14 1    
    15   13   15 1    
    16   15   16 1    
    17   15   17 1    
    18   17   18 1    
    19   18   19 1    
    20   18   28 1    
    21   19   20 2    
    22   20   21 1    
    23   21   22 1    
    24   21   28 2    
    25   22   23 2    
    26   22   24 am   
    27   24   25 1    
    28   25   26 1    
    29   25   27 2    
    30   27   28 1    
@<TRIPOS>SUBSTRUCTURE
     1 GDP501      1 GROUP   
@<TRIPOS>SET
ATOM$ORANGE STATIC     ATOMS   COLORGROUP SYSTEM 
20 10 10 11 11 13 13 15 15 17 17 19 19 21 21 22 22 25 \
25 28 28 

