#    Name: 6evz_1_GTP
#    Modification time : Fri May 22 19:35:32 2020

@<TRIPOS>MOLECULE
6evz_1_GTP
   32    34     1     0     1
SMALL
NO_CHARGES


@<TRIPOS>ATOM
      1 PG         47.4820   94.6230  153.0400 P.3       1 GTP501      0.0000 
      2 O1G        46.9890   93.2320  153.1660 O.co2     1 GTP501      0.0000 
      3 O2G        48.8530   94.8470  153.6610 O.co2     1 GTP501      0.0000 
      4 O3G        46.5200   95.6590  153.6110 O.co2     1 GTP501      0.0000 
      5 O3B        47.6500   94.9670  151.4970 O.3       1 GTP501      0.0000 
      6 PB         48.3840   94.1820  150.3240 P.3       1 GTP501      0.0000 
      7 O1B        47.4760   94.1430  149.1100 O.co2     1 GTP501      0.0000 
      8 O2B        49.6620   94.8410  149.9980 O.co2     1 GTP501      0.0000 
      9 O3A        48.6640   92.6840  150.7800 O.3       1 GTP501      0.0000 
     10 PA         49.7190   91.6380  150.2110 P.3       1 GTP501      0.0000 
     11 O1A        49.8220   91.8790  148.7190 O.co2     1 GTP501      0.0000 
     12 O2A        51.0240   91.8800  150.8470 O.co2     1 GTP501      0.0000 
     13 O5'        49.1540   90.1750  150.4200 O.3       1 GTP501      0.0000 
     14 C5'        49.9560   88.9950  150.6270 C.3       1 GTP501      0.0000 
     15 C4'        50.0810   88.2550  149.3200 C.3       1 GTP501      0.0000 
     16 O4'        51.1100   88.8670  148.5090 O.3       1 GTP501      0.0000 
     17 C3'        50.4550   86.7790  149.4410 C.3       1 GTP501      0.0000 
     18 O3'        49.7660   86.0050  148.4670 O.3       1 GTP501      0.0000 
     19 C2'        51.9620   86.7920  149.1870 C.3       1 GTP501      0.0000 
     20 O2'        52.4160   85.5560  148.6510 O.3       1 GTP501      0.0000 
     21 C1'        52.0640   87.8920  148.1390 C.3       1 GTP501      0.0000 
     22 N9         53.3860   88.5300  148.0850 N.pl3     1 GTP501      0.0000 
     23 C8         54.0090   89.2280  149.0810 C.2       1 GTP501      0.0000 
     24 N7         55.1910   89.6760  148.7360 N.2       1 GTP501      0.0000 
     25 C5         55.3520   89.2430  147.4310 C.2       1 GTP501      0.0000 
     26 C6         56.4340   89.4040  146.5190 C.2       1 GTP501      0.0000 
     27 O6         57.4930   89.9910  146.7200 O.2       1 GTP501      0.0000 
     28 N1         56.1920   88.7960  145.3070 N.am      1 GTP501      0.0000 
     29 C2         55.0550   88.1090  144.9880 C.2       1 GTP501      0.0000 
     30 N2         54.9950   87.5670  143.7720 N.pl3     1 GTP501      0.0000 
     31 N3         54.0360   87.9540  145.8290 N.2       1 GTP501      0.0000 
     32 C4         54.2500   88.5380  147.0200 C.2       1 GTP501      0.0000 
@<TRIPOS>BOND
     1    1    2 ar   
     2    1    3 ar   
     3    1    4 ar   
     4    1    5 1    
     5    5    6 1    
     6    6    7 ar   
     7    6    8 ar   
     8    6    9 1    
     9    9   10 1    
    10   10   11 ar   
    11   10   12 ar   
    12   10   13 1    
    13   13   14 1    
    14   14   15 1    
    15   15   16 1    
    16   15   17 1    
    17   16   21 1    
    18   17   18 1    
    19   17   19 1    
    20   19   20 1    
    21   19   21 1    
    22   21   22 1    
    23   22   23 1    
    24   22   32 1    
    25   23   24 2    
    26   24   25 1    
    27   25   26 1    
    28   25   32 2    
    29   26   27 2    
    30   26   28 am   
    31   28   29 1    
    32   29   30 1    
    33   29   31 2    
    34   31   32 1    
@<TRIPOS>SUBSTRUCTURE
     1 GTP501      1 GROUP   
@<TRIPOS>SET
ATOM$ORANGE STATIC     ATOMS   COLORGROUP SYSTEM 
20 14 14 15 15 17 17 19 19 21 21 23 23 25 25 26 26 29 \
29 32 32 

