#    Name: 6evz_4_GDP
#    Modification time : Fri May 22 19:36:05 2020

@<TRIPOS>MOLECULE
6evz_4_GDP
   28    30     1     0     1
SMALL
NO_CHARGES


@<TRIPOS>ATOM
      1 PB         75.9620   47.6110  101.0760 P.3       1 GDP501      0.0000 
      2 O1B        75.7800   47.3980   99.5800 O.co2     1 GDP501      0.0000 
      3 O2B        76.3530   49.0610  101.3080 O.co2     1 GDP501      0.0000 
      4 O3B        74.7970   47.1910  101.8800 O.co2     1 GDP501      0.0000 
      5 O3A        77.2450   46.7500  101.4560 O.3       1 GDP501      0.0000 
      6 PA         78.6670   46.7090  100.7460 P.3       1 GDP501      0.0000 
      7 O1A        78.5280   47.5420   99.4840 O.co2     1 GDP501      0.0000 
      8 O2A        79.6810   47.3080  101.6360 O.co2     1 GDP501      0.0000 
      9 O5'        78.9830   45.2220  100.3080 O.3       1 GDP501      0.0000 
     10 C5'        80.1670   44.4630  100.6270 C.3       1 GDP501      0.0000 
     11 C4'        80.6440   43.7780   99.3720 C.3       1 GDP501      0.0000 
     12 O4'        81.2580   44.7470   98.4930 O.3       1 GDP501      0.0000 
     13 C3'        81.6840   42.6820   99.5760 C.3       1 GDP501      0.0000 
     14 O3'        81.5200   41.6430   98.6190 O.3       1 GDP501      0.0000 
     15 C2'        83.0000   43.4310   99.3710 C.3       1 GDP501      0.0000 
     16 O2'        84.0230   42.5560   98.9120 O.3       1 GDP501      0.0000 
     17 C1'        82.6120   44.4070   98.2660 C.3       1 GDP501      0.0000 
     18 N9         83.4030   45.6460   98.2690 N.pl3     1 GDP501      0.0000 
     19 C8         83.3470   46.6630   99.1830 C.2       1 GDP501      0.0000 
     20 N7         84.1420   47.6650   98.8930 N.2       1 GDP501      0.0000 
     21 C5         84.7580   47.2810   97.7140 C.2       1 GDP501      0.0000 
     22 C6         85.7040   47.9560   96.8850 C.2       1 GDP501      0.0000 
     23 O6         86.2000   49.0630   97.0720 O.2       1 GDP501      0.0000 
     24 N1         86.0470   47.2150   95.7740 N.am      1 GDP501      0.0000 
     25 C2         85.5610   45.9730   95.4760 C.2       1 GDP501      0.0000 
     26 N2         86.0210   45.3920   94.3680 N.pl3     1 GDP501      0.0000 
     27 N3         84.6770   45.3320   96.2370 N.2       1 GDP501      0.0000 
     28 C4         84.3190   46.0360   97.3250 C.2       1 GDP501      0.0000 
@<TRIPOS>BOND
     1    1    2 ar   
     2    1    3 ar   
     3    1    4 ar   
     4    1    5 1    
     5    5    6 1    
     6    6    7 ar   
     7    6    8 ar   
     8    6    9 1    
     9    9   10 1    
    10   10   11 1    
    11   11   12 1    
    12   11   13 1    
    13   12   17 1    
    14   13   14 1    
    15   13   15 1    
    16   15   16 1    
    17   15   17 1    
    18   17   18 1    
    19   18   19 1    
    20   18   28 1    
    21   19   20 2    
    22   20   21 1    
    23   21   22 1    
    24   21   28 2    
    25   22   23 2    
    26   22   24 am   
    27   24   25 1    
    28   25   26 1    
    29   25   27 2    
    30   27   28 1    
@<TRIPOS>SUBSTRUCTURE
     1 GDP501      1 GROUP   
@<TRIPOS>SET
ATOM$ORANGE STATIC     ATOMS   COLORGROUP SYSTEM 
20 10 10 11 11 13 13 15 15 17 17 19 19 21 21 22 22 25 \
25 28 28 

