#    Name: 6evz_11_GTP
#    Modification time : Fri May 22 19:37:03 2020

@<TRIPOS>MOLECULE
6evz_11_GTP
   32    34     1     0     1
SMALL
NO_CHARGES


@<TRIPOS>ATOM
      1 PG         47.4660   94.6110   71.0620 P.3       1 GTP501      0.0000 
      2 O1G        46.9970   93.2120   71.1990 O.co2     1 GTP501      0.0000 
      3 O2G        48.8370   94.8570   71.6740 O.co2     1 GTP501      0.0000 
      4 O3G        46.4920   95.6310   71.6390 O.co2     1 GTP501      0.0000 
      5 O3B        47.6170   94.9620   69.5180 O.3       1 GTP501      0.0000 
      6 PB         48.3350   94.1810   68.3330 P.3       1 GTP501      0.0000 
      7 O1B        47.4100   94.1610   67.1280 O.co2     1 GTP501      0.0000 
      8 O2B        49.6130   94.8370   67.9970 O.co2     1 GTP501      0.0000 
      9 O3A        48.6120   92.6800   68.7820 O.3       1 GTP501      0.0000 
     10 PA         49.7030   91.6410   68.2730 P.3       1 GTP501      0.0000 
     11 O1A        49.8390   91.8320   66.7760 O.co2     1 GTP501      0.0000 
     12 O2A        50.9890   91.9300   68.9300 O.co2     1 GTP501      0.0000 
     13 O5'        49.1630   90.1740   68.5200 O.3       1 GTP501      0.0000 
     14 C5'        49.9810   89.0040   68.7180 C.3       1 GTP501      0.0000 
     15 C4'        50.1100   88.2670   67.4090 C.3       1 GTP501      0.0000 
     16 O4'        51.1450   88.8780   66.6060 O.3       1 GTP501      0.0000 
     17 C3'        50.4760   86.7880   67.5240 C.3       1 GTP501      0.0000 
     18 O3'        49.7730   86.0240   66.5510 O.3       1 GTP501      0.0000 
     19 C2'        51.9810   86.7910   67.2600 C.3       1 GTP501      0.0000 
     20 O2'        52.4200   85.5560   66.7080 O.3       1 GTP501      0.0000 
     21 C1'        52.0850   87.8970   66.2180 C.3       1 GTP501      0.0000 
     22 N9         53.4120   88.5260   66.1500 N.pl3     1 GTP501      0.0000 
     23 C8         54.0470   89.2320   67.1320 C.2       1 GTP501      0.0000 
     24 N7         55.2170   89.6930   66.7620 N.2       1 GTP501      0.0000 
     25 C5         55.3570   89.2590   65.4550 C.2       1 GTP501      0.0000 
     26 C6         56.4160   89.4350   64.5170 C.2       1 GTP501      0.0000 
     27 O6         57.4690   90.0380   64.6920 O.2       1 GTP501      0.0000 
     28 N1         56.1540   88.8230   63.3110 N.am      1 GTP501      0.0000 
     29 C2         55.0230   88.1170   63.0200 C.2       1 GTP501      0.0000 
     30 N2         54.9460   87.5670   61.8090 N.pl3     1 GTP501      0.0000 
     31 N3         54.0260   87.9470   63.8840 N.2       1 GTP501      0.0000 
     32 C4         54.2560   88.5380   65.0680 C.2       1 GTP501      0.0000 
@<TRIPOS>BOND
     1    1    2 ar   
     2    1    3 ar   
     3    1    4 ar   
     4    1    5 1    
     5    5    6 1    
     6    6    7 ar   
     7    6    8 ar   
     8    6    9 1    
     9    9   10 1    
    10   10   11 ar   
    11   10   12 ar   
    12   10   13 1    
    13   13   14 1    
    14   14   15 1    
    15   15   16 1    
    16   15   17 1    
    17   16   21 1    
    18   17   18 1    
    19   17   19 1    
    20   19   20 1    
    21   19   21 1    
    22   21   22 1    
    23   22   23 1    
    24   22   32 1    
    25   23   24 2    
    26   24   25 1    
    27   25   26 1    
    28   25   32 2    
    29   26   27 2    
    30   26   28 am   
    31   28   29 1    
    32   29   30 1    
    33   29   31 2    
    34   31   32 1    
@<TRIPOS>SUBSTRUCTURE
     1 GTP501      1 GROUP   
@<TRIPOS>SET
ATOM$ORANGE STATIC     ATOMS   COLORGROUP SYSTEM 
20 14 14 15 15 17 17 19 19 21 21 23 23 25 25 26 26 29 \
29 32 32 

