#    Name: 6evz_5_GTP
#    Modification time : Fri May 22 19:36:17 2020

@<TRIPOS>MOLECULE
6evz_5_GTP
   32    34     1     0     1
SMALL
NO_CHARGES


@<TRIPOS>ATOM
      1 PG         44.4050  148.7820  162.4280 P.3       1 GTP501      0.0000 
      2 O1G        43.4200  147.7190  162.7240 O.co2     1 GTP501      0.0000 
      3 O2G        45.8150  148.4520  162.8900 O.co2     1 GTP501      0.0000 
      4 O3G        44.0210  150.1430  162.9910 O.co2     1 GTP501      0.0000 
      5 O3B        44.5000  148.9560  160.8510 O.3       1 GTP501      0.0000 
      6 PB         44.9700  147.9320  159.7290 P.3       1 GTP501      0.0000 
      7 O1B        44.2170  148.2230  158.4450 O.co2     1 GTP501      0.0000 
      8 O2B        46.4250  148.0440  159.5160 O.co2     1 GTP501      0.0000 
      9 O3A        44.6170  146.4540  160.1990 O.3       1 GTP501      0.0000 
     10 PA         45.0880  145.0700  159.5740 P.3       1 GTP501      0.0000 
     11 O1A        45.4740  145.3500  158.1380 O.co2     1 GTP501      0.0000 
     12 O2A        46.2580  144.5690  160.3140 O.co2     1 GTP501      0.0000 
     13 O5'        43.8580  144.0780  159.5510 O.3       1 GTP501      0.0000 
     14 C5'        43.9200  142.6830  159.9050 C.3       1 GTP501      0.0000 
     15 C4'        43.7330  141.8570  158.6580 C.3       1 GTP501      0.0000 
     16 O4'        44.9410  141.8940  157.8640 O.3       1 GTP501      0.0000 
     17 C3'        43.4210  140.3800  158.8950 C.3       1 GTP501      0.0000 
     18 O3'        42.4570  139.9140  157.9600 O.3       1 GTP501      0.0000 
     19 C2'        44.7790  139.7110  158.6900 C.3       1 GTP501      0.0000 
     20 O2'        44.6450  138.3650  158.2520 O.3       1 GTP501      0.0000 
     21 C1'        45.3540  140.5740  157.5760 C.3       1 GTP501      0.0000 
     22 N9         46.8200  140.5470  157.5060 N.pl3     1 GTP501      0.0000 
     23 C8         47.7040  140.9090  158.4840 C.2       1 GTP501      0.0000 
     24 N7         48.9560  140.7730  158.1230 N.2       1 GTP501      0.0000 
     25 C5         48.8880  140.2900  156.8280 C.2       1 GTP501      0.0000 
     26 C6         49.9150  139.9340  155.9070 C.2       1 GTP501      0.0000 
     27 O6         51.1270  139.9880  156.0900 O.2       1 GTP501      0.0000 
     28 N1         49.4100  139.4790  154.7090 N.am      1 GTP501      0.0000 
     29 C2         48.0820  139.3670  154.4110 C.2       1 GTP501      0.0000 
     30 N2         47.7700  138.8910  153.2070 N.pl3     1 GTP501      0.0000 
     31 N3         47.1130  139.6980  155.2600 N.2       1 GTP501      0.0000 
     32 C4         47.5820  140.1460  156.4370 C.2       1 GTP501      0.0000 
@<TRIPOS>BOND
     1    1    2 ar   
     2    1    3 ar   
     3    1    4 ar   
     4    1    5 1    
     5    5    6 1    
     6    6    7 ar   
     7    6    8 ar   
     8    6    9 1    
     9    9   10 1    
    10   10   11 ar   
    11   10   12 ar   
    12   10   13 1    
    13   13   14 1    
    14   14   15 1    
    15   15   16 1    
    16   15   17 1    
    17   16   21 1    
    18   17   18 1    
    19   17   19 1    
    20   19   20 1    
    21   19   21 1    
    22   21   22 1    
    23   22   23 1    
    24   22   32 1    
    25   23   24 2    
    26   24   25 1    
    27   25   26 1    
    28   25   32 2    
    29   26   27 2    
    30   26   28 am   
    31   28   29 1    
    32   29   30 1    
    33   29   31 2    
    34   31   32 1    
@<TRIPOS>SUBSTRUCTURE
     1 GTP501      1 GROUP   
@<TRIPOS>SET
ATOM$ORANGE STATIC     ATOMS   COLORGROUP SYSTEM 
20 14 14 15 15 17 17 19 19 21 21 23 23 25 25 26 26 29 \
29 32 32 

