#    Name: 6evz_7_GDP
#    Modification time : Fri May 22 19:36:33 2020

@<TRIPOS>MOLECULE
6evz_7_GDP
   28    30     1     0     1
SMALL
NO_CHARGES


@<TRIPOS>ATOM
      1 PB         44.2940  147.9580  201.9510 P.3       1 GDP501      0.0000 
      2 O1B        43.8440  148.2730  200.5780 O.co2     1 GDP501      0.0000 
      3 O2B        43.3950  148.5400  203.0300 O.co2     1 GDP501      0.0000 
      4 O3B        45.7240  148.4040  202.2300 O.co2     1 GDP501      0.0000 
      5 O3A        44.2830  146.3810  202.1560 O.3       1 GDP501      0.0000 
      6 PA         45.0800  145.2480  201.3750 P.3       1 GDP501      0.0000 
      7 O1A        45.6460  145.9040  200.1270 O.co2     1 GDP501      0.0000 
      8 O2A        46.1710  144.7280  202.2230 O.co2     1 GDP501      0.0000 
      9 O5'        44.0550  144.1390  200.9170 O.3       1 GDP501      0.0000 
     10 C5'        44.0650  142.7520  201.3110 C.3       1 GDP501      0.0000 
     11 C4'        43.8740  141.9090  200.0760 C.3       1 GDP501      0.0000 
     12 O4'        45.0730  141.9510  199.2700 O.3       1 GDP501      0.0000 
     13 C3'        43.5770  140.4330  200.3240 C.3       1 GDP501      0.0000 
     14 O3'        42.6360  139.9350  199.3800 O.3       1 GDP501      0.0000 
     15 C2'        44.9470  139.7780  200.1500 C.3       1 GDP501      0.0000 
     16 O2'        44.8220  138.4340  199.7020 O.3       1 GDP501      0.0000 
     17 C1'        45.5460  140.6380  199.0440 C.3       1 GDP501      0.0000 
     18 N9         47.0140  140.6700  199.0550 N.pl3     1 GDP501      0.0000 
     19 C8         47.8240  141.2750  199.9770 C.2       1 GDP501      0.0000 
     20 N7         49.1010  141.1590  199.7020 N.2       1 GDP501      0.0000 
     21 C5         49.1300  140.4320  198.5240 C.2       1 GDP501      0.0000 
     22 C6         50.2210  140.0010  197.7160 C.2       1 GDP501      0.0000 
     23 O6         51.4170  140.1800  197.9260 O.2       1 GDP501      0.0000 
     24 N1         49.8040  139.2990  196.6050 N.am      1 GDP501      0.0000 
     25 C2         48.5030  139.0230  196.2920 C.2       1 GDP501      0.0000 
     26 N2         48.2840  138.2950  195.1970 N.pl3     1 GDP501      0.0000 
     27 N3         47.4730  139.4250  197.0320 N.2       1 GDP501      0.0000 
     28 C4         47.8530  140.1180  198.1200 C.2       1 GDP501      0.0000 
@<TRIPOS>BOND
     1    1    2 ar   
     2    1    3 ar   
     3    1    4 ar   
     4    1    5 1    
     5    5    6 1    
     6    6    7 ar   
     7    6    8 ar   
     8    6    9 1    
     9    9   10 1    
    10   10   11 1    
    11   11   12 1    
    12   11   13 1    
    13   12   17 1    
    14   13   14 1    
    15   13   15 1    
    16   15   16 1    
    17   15   17 1    
    18   17   18 1    
    19   18   19 1    
    20   18   28 1    
    21   19   20 2    
    22   20   21 1    
    23   21   22 1    
    24   21   28 2    
    25   22   23 2    
    26   22   24 am   
    27   24   25 1    
    28   25   26 1    
    29   25   27 2    
    30   27   28 1    
@<TRIPOS>SUBSTRUCTURE
     1 GDP501      1 GROUP   
@<TRIPOS>SET
ATOM$ORANGE STATIC     ATOMS   COLORGROUP SYSTEM 
20 10 10 11 11 13 13 15 15 17 17 19 19 21 21 22 22 25 \
25 28 28 

