#    Name: 6evz_9_GDP
#    Modification time : Fri May 22 19:36:42 2020

@<TRIPOS>MOLECULE
6evz_9_GDP
   28    30     1     0     1
SMALL
NO_CHARGES


@<TRIPOS>ATOM
      1 PB         75.9170   47.5540  183.0990 P.3       1 GDP501      0.0000 
      2 O1B        75.6700   47.4580  181.6000 O.co2     1 GDP501      0.0000 
      3 O2B        76.2850   48.9910  183.4330 O.co2     1 GDP501      0.0000 
      4 O3B        74.8000   47.0450  183.9180 O.co2     1 GDP501      0.0000 
      5 O3A        77.2320   46.6960  183.3540 O.3       1 GDP501      0.0000 
      6 PA         78.6340   46.7590  182.6060 P.3       1 GDP501      0.0000 
      7 O1A        78.4340   47.6650  181.4020 O.co2     1 GDP501      0.0000 
      8 O2A        79.6510   47.3320  183.5080 O.co2     1 GDP501      0.0000 
      9 O5'        78.9950   45.3180  182.0720 O.3       1 GDP501      0.0000 
     10 C5'        80.1140   44.5080  182.4850 C.3       1 GDP501      0.0000 
     11 C4'        80.5980   43.7290  181.2890 C.3       1 GDP501      0.0000 
     12 O4'        81.2540   44.6220  180.3630 O.3       1 GDP501      0.0000 
     13 C3'        81.6100   42.6310  181.5860 C.3       1 GDP501      0.0000 
     14 O3'        81.4800   41.5600  180.6600 O.3       1 GDP501      0.0000 
     15 C2'        82.9420   43.3590  181.4200 C.3       1 GDP501      0.0000 
     16 O2'        83.9770   42.4580  181.0480 O.3       1 GDP501      0.0000 
     17 C1'        82.6270   44.2990  180.2610 C.3       1 GDP501      0.0000 
     18 N9         83.3950   45.5510  180.2920 N.pl3     1 GDP501      0.0000 
     19 C8         83.3200   46.5500  181.2230 C.2       1 GDP501      0.0000 
     20 N7         84.0920   47.5750  180.9490 N.2       1 GDP501      0.0000 
     21 C5         84.7130   47.2250  179.7620 C.2       1 GDP501      0.0000 
     22 C6         85.6360   47.9360  178.9400 C.2       1 GDP501      0.0000 
     23 O6         86.1070   49.0520  179.1440 O.2       1 GDP501      0.0000 
     24 N1         85.9890   47.2240  177.8130 N.am      1 GDP501      0.0000 
     25 C2         85.5320   45.9750  177.4960 C.2       1 GDP501      0.0000 
     26 N2         86.0030   45.4230  176.3780 N.pl3     1 GDP501      0.0000 
     27 N3         84.6690   45.3010  178.2510 N.2       1 GDP501      0.0000 
     28 C4         84.3010   45.9770  179.3540 C.2       1 GDP501      0.0000 
@<TRIPOS>BOND
     1    1    2 ar   
     2    1    3 ar   
     3    1    4 ar   
     4    1    5 1    
     5    5    6 1    
     6    6    7 ar   
     7    6    8 ar   
     8    6    9 1    
     9    9   10 1    
    10   10   11 1    
    11   11   12 1    
    12   11   13 1    
    13   12   17 1    
    14   13   14 1    
    15   13   15 1    
    16   15   16 1    
    17   15   17 1    
    18   17   18 1    
    19   18   19 1    
    20   18   28 1    
    21   19   20 2    
    22   20   21 1    
    23   21   22 1    
    24   21   28 2    
    25   22   23 2    
    26   22   24 am   
    27   24   25 1    
    28   25   26 1    
    29   25   27 2    
    30   27   28 1    
@<TRIPOS>SUBSTRUCTURE
     1 GDP501      1 GROUP   
@<TRIPOS>SET
ATOM$ORANGE STATIC     ATOMS   COLORGROUP SYSTEM 
20 10 10 11 11 13 13 15 15 17 17 19 19 21 21 22 22 25 \
25 28 28 

