#    Name: 6evz_8_GDP
#    Modification time : Fri May 22 19:36:37 2020

@<TRIPOS>MOLECULE
6evz_8_GDP
   28    30     1     0     1
SMALL
NO_CHARGES


@<TRIPOS>ATOM
      1 PB         47.7010   93.8630  192.5750 P.3       1 GDP501      0.0000 
      2 O1B        47.1030   93.8230  191.1770 O.co2     1 GDP501      0.0000 
      3 O2B        48.7850   94.9300  192.6010 O.co2     1 GDP501      0.0000 
      4 O3B        46.6840   94.0400  193.6380 O.co2     1 GDP501      0.0000 
      5 O3A        48.4640   92.4780  192.7480 O.3       1 GDP501      0.0000 
      6 PA         49.7350   91.8980  191.9860 P.3       1 GDP501      0.0000 
      7 O1A        49.9620   92.7940  190.7810 O.co2     1 GDP501      0.0000 
      8 O2A        50.9080   91.9390  192.8810 O.co2     1 GDP501      0.0000 
      9 O5'        49.4060   90.4490  191.4530 O.3       1 GDP501      0.0000 
     10 C5'        50.0230   89.2200  191.8870 C.3       1 GDP501      0.0000 
     11 C4'        50.1150   88.2950  190.7010 C.3       1 GDP501      0.0000 
     12 O4'        51.1170   88.7830  189.7820 O.3       1 GDP501      0.0000 
     13 C3'        50.5070   86.8570  191.0150 C.3       1 GDP501      0.0000 
     14 O3'        49.8930   85.9540  190.1040 O.3       1 GDP501      0.0000 
     15 C2'        52.0250   86.8830  190.8440 C.3       1 GDP501      0.0000 
     16 O2'        52.5200   85.6030  190.4750 O.3       1 GDP501      0.0000 
     17 C1'        52.1800   87.8560  189.6790 C.3       1 GDP501      0.0000 
     18 N9         53.4430   88.6040  189.7000 N.pl3     1 GDP501      0.0000 
     19 C8         53.8360   89.5460  190.6120 C.2       1 GDP501      0.0000 
     20 N7         54.9960   90.0900  190.3290 N.2       1 GDP501      0.0000 
     21 C5         55.3870   89.4670  189.1560 C.2       1 GDP501      0.0000 
     22 C6         56.5340   89.6550  188.3330 C.2       1 GDP501      0.0000 
     23 O6         57.4630   90.4340  188.5220 O.2       1 GDP501      0.0000 
     24 N1         56.5210   88.8380  187.2220 N.am      1 GDP501      0.0000 
     25 C2         55.5390   87.9370  186.9210 C.2       1 GDP501      0.0000 
     26 N2         55.6980   87.2130  185.8120 N.pl3     1 GDP501      0.0000 
     27 N3         54.4610   87.7500  187.6790 N.2       1 GDP501      0.0000 
     28 C4         54.4460   88.5420  188.7660 C.2       1 GDP501      0.0000 
@<TRIPOS>BOND
     1    1    2 ar   
     2    1    3 ar   
     3    1    4 ar   
     4    1    5 1    
     5    5    6 1    
     6    6    7 ar   
     7    6    8 ar   
     8    6    9 1    
     9    9   10 1    
    10   10   11 1    
    11   11   12 1    
    12   11   13 1    
    13   12   17 1    
    14   13   14 1    
    15   13   15 1    
    16   15   16 1    
    17   15   17 1    
    18   17   18 1    
    19   18   19 1    
    20   18   28 1    
    21   19   20 2    
    22   20   21 1    
    23   21   22 1    
    24   21   28 2    
    25   22   23 2    
    26   22   24 am   
    27   24   25 1    
    28   25   26 1    
    29   25   27 2    
    30   27   28 1    
@<TRIPOS>SUBSTRUCTURE
     1 GDP501      1 GROUP   
@<TRIPOS>SET
ATOM$ORANGE STATIC     ATOMS   COLORGROUP SYSTEM 
20 10 10 11 11 13 13 15 15 17 17 19 19 21 21 22 22 25 \
25 28 28 

