#    Name: 6evz_2_GDP
#    Modification time : Fri May 22 19:35:44 2020

@<TRIPOS>MOLECULE
6evz_2_GDP
   28    30     1     0     1
SMALL
NO_CHARGES


@<TRIPOS>ATOM
      1 PB         47.7780   93.8790  110.5400 P.3       1 GDP501      0.0000 
      2 O1B        47.2610   93.7390  109.1170 O.co2     1 GDP501      0.0000 
      3 O2B        48.8670   94.9410  110.5470 O.co2     1 GDP501      0.0000 
      4 O3B        46.7050   94.1390  111.5270 O.co2     1 GDP501      0.0000 
      5 O3A        48.5190   92.5060  110.8520 O.3       1 GDP501      0.0000 
      6 PA         49.7600   91.8240  110.1290 P.3       1 GDP501      0.0000 
      7 O1A        50.0110   92.6230  108.8640 O.co2     1 GDP501      0.0000 
      8 O2A        50.9440   91.8910  111.0080 O.co2     1 GDP501      0.0000 
      9 O5'        49.3570   90.3600  109.6930 O.3       1 GDP501      0.0000 
     10 C5'        50.0580   89.1410  110.0130 C.3       1 GDP501      0.0000 
     11 C4'        50.1800   88.3210  108.7540 C.3       1 GDP501      0.0000 
     12 O4'        51.1780   88.9060  107.8880 O.3       1 GDP501      0.0000 
     13 C3'        50.5950   86.8670  108.9520 C.3       1 GDP501      0.0000 
     14 O3'        49.9600   86.0240  107.9990 O.3       1 GDP501      0.0000 
     15 C2'        52.1080   86.9200  108.7400 C.3       1 GDP501      0.0000 
     16 O2'        52.6030   85.6760  108.2630 O.3       1 GDP501      0.0000 
     17 C1'        52.2170   87.9770  107.6480 C.3       1 GDP501      0.0000 
     18 N9         53.4940   88.7040  107.6520 N.pl3     1 GDP501      0.0000 
     19 C8         53.9090   89.6470  108.5510 C.2       1 GDP501      0.0000 
     20 N7         55.0780   90.1640  108.2590 N.2       1 GDP501      0.0000 
     21 C5         55.4540   89.5180  107.0930 C.2       1 GDP501      0.0000 
     22 C6         56.6070   89.6660  106.2690 C.2       1 GDP501      0.0000 
     23 O6         57.5540   90.4260  106.4480 O.2       1 GDP501      0.0000 
     24 N1         56.5780   88.8310  105.1710 N.am      1 GDP501      0.0000 
     25 C2         55.5750   87.9480  104.8830 C.2       1 GDP501      0.0000 
     26 N2         55.7210   87.2000  103.7890 N.pl3     1 GDP501      0.0000 
     27 N3         54.4910   87.8010  105.6410 N.2       1 GDP501      0.0000 
     28 C4         54.4930   88.6100  106.7150 C.2       1 GDP501      0.0000 
@<TRIPOS>BOND
     1    1    2 ar   
     2    1    3 ar   
     3    1    4 ar   
     4    1    5 1    
     5    5    6 1    
     6    6    7 ar   
     7    6    8 ar   
     8    6    9 1    
     9    9   10 1    
    10   10   11 1    
    11   11   12 1    
    12   11   13 1    
    13   12   17 1    
    14   13   14 1    
    15   13   15 1    
    16   15   16 1    
    17   15   17 1    
    18   17   18 1    
    19   18   19 1    
    20   18   28 1    
    21   19   20 2    
    22   20   21 1    
    23   21   22 1    
    24   21   28 2    
    25   22   23 2    
    26   22   24 am   
    27   24   25 1    
    28   25   26 1    
    29   25   27 2    
    30   27   28 1    
@<TRIPOS>SUBSTRUCTURE
     1 GDP501      1 GROUP   
@<TRIPOS>SET
ATOM$ORANGE STATIC     ATOMS   COLORGROUP SYSTEM 
20 10 10 11 11 13 13 15 15 17 17 19 19 21 21 22 22 25 \
25 28 28 

