#    Name: 6evz_3_GTP
#    Modification time : Fri May 22 19:35:55 2020

@<TRIPOS>MOLECULE
6evz_3_GTP
   32    34     1     0     1
SMALL
NO_CHARGES


@<TRIPOS>ATOM
      1 PG         75.3510   48.1310  143.7640 P.3       1 GTP501      0.0000 
      2 O1G        75.6910   46.7130  144.0120 O.co2     1 GTP501      0.0000 
      3 O2G        76.3800   49.1150  144.3010 O.co2     1 GTP501      0.0000 
      4 O3G        73.9820   48.5310  144.2960 O.co2     1 GTP501      0.0000 
      5 O3B        75.2970   48.3770  142.1950 O.3       1 GTP501      0.0000 
      6 PB         76.3810   48.1830  141.0470 P.3       1 GTP501      0.0000 
      7 O1B        75.6880   47.7610  139.7680 O.co2     1 GTP501      0.0000 
      8 O2B        77.1320   49.4350  140.8340 O.co2     1 GTP501      0.0000 
      9 O3A        77.3820   47.0230  141.4700 O.3       1 GTP501      0.0000 
     10 PA         78.7440   46.5960  140.7710 P.3       1 GTP501      0.0000 
     11 O1A        78.5960   46.9280  139.3000 O.co2     1 GTP501      0.0000 
     12 O2A        79.8500   47.3780  141.3470 O.co2     1 GTP501      0.0000 
     13 O5'        78.9170   45.0300  140.8930 O.3       1 GTP501      0.0000 
     14 C5'        80.1590   44.3480  141.1500 C.3       1 GTP501      0.0000 
     15 C4'        80.6440   43.7220  139.8680 C.3       1 GTP501      0.0000 
     16 O4'        81.2780   44.7280  139.0440 O.3       1 GTP501      0.0000 
     17 C3'        81.6690   42.6030  140.0380 C.3       1 GTP501      0.0000 
     18 O3'        81.4410   41.5660  139.0920 O.3       1 GTP501      0.0000 
     19 C2'        82.9950   43.3210  139.7890 C.3       1 GTP501      0.0000 
     20 O2'        83.9910   42.4330  139.2990 O.3       1 GTP501      0.0000 
     21 C1'        82.5830   44.3070  138.7040 C.3       1 GTP501      0.0000 
     22 N9         83.4500   45.4910  138.6230 N.pl3     1 GTP501      0.0000 
     23 C8         83.6580   46.4360  139.5890 C.2       1 GTP501      0.0000 
     24 N7         84.4960   47.3750  139.2220 N.2       1 GTP501      0.0000 
     25 C5         84.8610   47.0220  137.9340 C.2       1 GTP501      0.0000 
     26 C6         85.7520   47.6430  137.0090 C.2       1 GTP501      0.0000 
     27 O6         86.4090   48.6660  137.1810 O.2       1 GTP501      0.0000 
     28 N1         85.8360   46.9500  135.8210 N.am      1 GTP501      0.0000 
     29 C2         85.1620   45.7980  135.5350 C.2       1 GTP501      0.0000 
     30 N2         85.3770   45.2500  134.3390 N.pl3     1 GTP501      0.0000 
     31 N3         84.3270   45.2090  136.3870 N.2       1 GTP501      0.0000 
     32 C4         84.2250   45.8670  137.5540 C.2       1 GTP501      0.0000 
@<TRIPOS>BOND
     1    1    2 ar   
     2    1    3 ar   
     3    1    4 ar   
     4    1    5 1    
     5    5    6 1    
     6    6    7 ar   
     7    6    8 ar   
     8    6    9 1    
     9    9   10 1    
    10   10   11 ar   
    11   10   12 ar   
    12   10   13 1    
    13   13   14 1    
    14   14   15 1    
    15   15   16 1    
    16   15   17 1    
    17   16   21 1    
    18   17   18 1    
    19   17   19 1    
    20   19   20 1    
    21   19   21 1    
    22   21   22 1    
    23   22   23 1    
    24   22   32 1    
    25   23   24 2    
    26   24   25 1    
    27   25   26 1    
    28   25   32 2    
    29   26   27 2    
    30   26   28 am   
    31   28   29 1    
    32   29   30 1    
    33   29   31 2    
    34   31   32 1    
@<TRIPOS>SUBSTRUCTURE
     1 GTP501      1 GROUP   
@<TRIPOS>SET
ATOM$ORANGE STATIC     ATOMS   COLORGROUP SYSTEM 
20 14 14 15 15 17 17 19 19 21 21 23 23 25 25 26 26 29 \
29 32 32 

