#    Name: 6evz_12_GTP
#    Modification time : Fri May 22 19:37:15 2020

@<TRIPOS>MOLECULE
6evz_12_GTP
   32    34     1     0     1
SMALL
NO_CHARGES


@<TRIPOS>ATOM
      1 PG         75.2820   48.1320   61.7360 P.3       1 GTP501      0.0000 
      2 O1G        75.6600   46.7240   61.9860 O.co2     1 GTP501      0.0000 
      3 O2G        76.2900   49.1420   62.2660 O.co2     1 GTP501      0.0000 
      4 O3G        73.9060   48.4980   62.2810 O.co2     1 GTP501      0.0000 
      5 O3B        75.2150   48.3690   60.1650 O.3       1 GTP501      0.0000 
      6 PB         76.3100   48.1790   59.0280 P.3       1 GTP501      0.0000 
      7 O1B        75.6270   47.7960   57.7260 O.co2     1 GTP501      0.0000 
      8 O2B        77.0910   49.4200   58.8580 O.co2     1 GTP501      0.0000 
      9 O3A        77.2820   46.9920   59.4460 O.3       1 GTP501      0.0000 
     10 PA         78.6900   46.5900   58.8260 P.3       1 GTP501      0.0000 
     11 O1A        78.6130   46.8830   57.3420 O.co2     1 GTP501      0.0000 
     12 O2A        79.7410   47.4170   59.4410 O.co2     1 GTP501      0.0000 
     13 O5'        78.8990   45.0310   58.9940 O.3       1 GTP501      0.0000 
     14 C5'        80.1630   44.3850   59.2450 C.3       1 GTP501      0.0000 
     15 C4'        80.6520   43.7520   57.9670 C.3       1 GTP501      0.0000 
     16 O4'        81.2850   44.7540   57.1380 O.3       1 GTP501      0.0000 
     17 C3'        81.6770   42.6340   58.1460 C.3       1 GTP501      0.0000 
     18 O3'        81.4450   41.5870   57.2130 O.3       1 GTP501      0.0000 
     19 C2'        83.0030   43.3480   57.8820 C.3       1 GTP501      0.0000 
     20 O2'        83.9960   42.4550   57.3950 O.3       1 GTP501      0.0000 
     21 C1'        82.5870   44.3260   56.7920 C.3       1 GTP501      0.0000 
     22 N9         83.4570   45.5060   56.6940 N.pl3     1 GTP501      0.0000 
     23 C8         83.6900   46.4490   57.6570 C.2       1 GTP501      0.0000 
     24 N7         84.5260   47.3840   57.2730 N.2       1 GTP501      0.0000 
     25 C5         84.8630   47.0300   55.9780 C.2       1 GTP501      0.0000 
     26 C6         85.7370   47.6470   55.0360 C.2       1 GTP501      0.0000 
     27 O6         86.4040   48.6660   55.1950 O.2       1 GTP501      0.0000 
     28 N1         85.7930   46.9560   53.8450 N.am      1 GTP501      0.0000 
     29 C2         85.1070   45.8070   53.5710 C.2       1 GTP501      0.0000 
     30 N2         85.2900   45.2640   52.3690 N.pl3     1 GTP501      0.0000 
     31 N3         84.2870   45.2220   54.4410 N.2       1 GTP501      0.0000 
     32 C4         84.2130   45.8780   55.6110 C.2       1 GTP501      0.0000 
@<TRIPOS>BOND
     1    1    2 ar   
     2    1    3 ar   
     3    1    4 ar   
     4    1    5 1    
     5    5    6 1    
     6    6    7 ar   
     7    6    8 ar   
     8    6    9 1    
     9    9   10 1    
    10   10   11 ar   
    11   10   12 ar   
    12   10   13 1    
    13   13   14 1    
    14   14   15 1    
    15   15   16 1    
    16   15   17 1    
    17   16   21 1    
    18   17   18 1    
    19   17   19 1    
    20   19   20 1    
    21   19   21 1    
    22   21   22 1    
    23   22   23 1    
    24   22   32 1    
    25   23   24 2    
    26   24   25 1    
    27   25   26 1    
    28   25   32 2    
    29   26   27 2    
    30   26   28 am   
    31   28   29 1    
    32   29   30 1    
    33   29   31 2    
    34   31   32 1    
@<TRIPOS>SUBSTRUCTURE
     1 GTP501      1 GROUP   
@<TRIPOS>SET
ATOM$ORANGE STATIC     ATOMS   COLORGROUP SYSTEM 
20 14 14 15 15 17 17 19 19 21 21 23 23 25 25 26 26 29 \
29 32 32 

