#    Name: 6kpr_1_UMP_CAVITY_N1_8
#    Modification time : Fri May 22 19:26:02 2020

@<TRIPOS>MOLECULE
6kpr_1_UMP_CAVITY_N1_8
  103     0     7     0     0
SMALL
NO_CHARGES


@<TRIPOS>ATOM
      1 OG         15.8500  -25.5700   19.2000 O.3       1 SER1        0.0000 
      2 OG          9.5300  -20.0300   17.3200 O.3       1 SER1        0.0000 
      3 OG         12.2500  -19.1500   15.5600 O.3       1 SER1        0.0000 
      4 OG          9.8300  -18.9400   18.3200 O.3       1 SER1        0.0000 
      5 OG         11.0900  -17.9900   16.9000 O.3       1 SER1        0.0000 
      6 OG         12.5400  -18.0700   16.5500 O.3       1 SER1        0.0000 
      7 OG         12.7400  -19.1000   17.6200 O.3       1 SER1        0.0000 
      8 N           9.3300  -24.2600   17.4700 N.am      2 ALA2        0.0000 
      9 O          10.9900  -25.3800   18.1800 O.2       2 ALA2        0.0000 
     10 N          12.1500  -21.2700   15.6300 N.am      2 ALA2        0.0000 
     11 N          12.3500  -22.3000   16.7000 N.am      2 ALA2        0.0000 
     12 N          14.0000  -23.4200   17.4100 N.am      2 ALA2        0.0000 
     13 N          10.5200  -25.2000   22.6600 N.am      2 ALA2        0.0000 
     14 N          12.4400  -20.1900   16.6200 N.am      2 ALA2        0.0000 
     15 N          12.6400  -21.2200   17.6900 N.am      2 ALA2        0.0000 
     16 N          12.8400  -22.2600   18.7600 N.am      2 ALA2        0.0000 
     17 N          14.3000  -22.3400   18.4100 N.am      2 ALA2        0.0000 
     18 N          14.5000  -23.3700   19.4800 N.am      2 ALA2        0.0000 
     19 N          12.9400  -20.1400   18.6900 N.am      2 ALA2        0.0000 
     20 N          14.2000  -19.1800   17.2700 N.am      2 ALA2        0.0000 
     21 N          14.4000  -20.2200   18.3400 N.am      2 ALA2        0.0000 
     22 N          14.6000  -21.2500   19.4000 N.am      2 ALA2        0.0000 
     23 O          14.9900  -23.3300   21.5400 O.2       2 ALA2        0.0000 
     24 O          13.0400  -18.0200   18.6100 O.2       2 ALA2        0.0000 
     25 O          14.0300  -23.2000   23.9500 O.2       2 ALA2        0.0000 
     26 N          14.7000  -19.1400   19.3300 N.am      2 ALA2        0.0000 
     27 N          14.8900  -20.1700   20.4000 N.am      2 ALA2        0.0000 
     28 N          11.2200  -20.9200   24.5700 N.am      2 ALA2        0.0000 
     29 N          11.4200  -21.9600   25.6400 N.am      2 ALA2        0.0000 
     30 OD1        10.0900  -23.3500   13.9900 O.co2     3 ASP3        0.0000 
     31 OD1         7.4800  -22.1100   15.6800 O.co2     3 ASP3        0.0000 
     32 OD1        11.6500  -21.3100   13.5700 O.co2     3 ASP3        0.0000 
     33 OD1        11.8500  -22.3500   14.6300 O.co2     3 ASP3        0.0000 
     34 OD1        13.1100  -21.3900   13.2200 O.co2     3 ASP3        0.0000 
     35 OD1        13.3100  -22.4300   14.2800 O.co2     3 ASP3        0.0000 
     36 OD1         7.7800  -21.0300   16.6800 O.co2     3 ASP3        0.0000 
     37 OD1         9.2300  -21.1100   16.3300 O.co2     3 ASP3        0.0000 
     38 OD1         9.4300  -22.1400   17.3900 O.co2     3 ASP3        0.0000 
     39 OD1        10.6900  -21.1900   15.9800 O.co2     3 ASP3        0.0000 
     40 OD1        11.9500  -20.2300   14.5600 O.co2     3 ASP3        0.0000 
     41 OD1        10.7900  -19.0700   15.9100 O.co2     3 ASP3        0.0000 
     42 OD1        10.9900  -20.1100   16.9700 O.co2     3 ASP3        0.0000 
     43 NZ         14.8900  -25.4400   21.6100 N.4       4 LYS4        0.0000 
     44 NZ         10.0300  -19.9800   19.3800 N.4       4 LYS4        0.0000 
     45 NZ         10.2300  -21.0100   20.4500 N.4       4 LYS4        0.0000 
     46 CZ         16.1500  -24.4900   20.1900 C.ar      5 PHE5        0.0000 
     47 CZ         16.3500  -25.5200   21.2600 C.ar      5 PHE5        0.0000 
     48 CZ         11.3200  -24.0700   25.7100 C.ar      5 PHE5        0.0000 
     49 CZ         12.7700  -24.1500   25.3600 C.ar      5 PHE5        0.0000 
     50 CZ         12.8700  -22.0400   25.2900 C.ar      5 PHE5        0.0000 
     51 CA         11.5500  -23.4300   13.6400 C.3       6 GLY6        0.0000 
     52 CA         10.5900  -23.3100   16.0500 C.3       6 GLY6        0.0000 
     53 CA         10.7900  -24.3400   17.1200 C.3       6 GLY6        0.0000 
     54 CA         12.0500  -23.3900   15.7000 C.3       6 GLY6        0.0000 
     55 CA         12.2500  -24.4200   16.7700 C.3       6 GLY6        0.0000 
     56 CA         13.5000  -23.4700   15.3500 C.3       6 GLY6        0.0000 
     57 CA         13.7000  -24.5000   16.4200 C.3       6 GLY6        0.0000 
     58 CA         10.7200  -26.2400   23.7200 C.3       6 GLY6        0.0000 
     59 CA         11.9800  -25.2800   22.3100 C.3       6 GLY6        0.0000 
     60 CA         13.4400  -25.3600   21.9600 C.3       6 GLY6        0.0000 
     61 CA         15.9500  -23.4500   19.1300 C.3       6 GLY6        0.0000 
     62 CA         11.0200  -25.1600   24.7200 C.3       6 GLY6        0.0000 
     63 CA         11.2200  -26.1900   25.7800 C.3       6 GLY6        0.0000 
     64 CA         11.2900  -19.0200   17.9700 C.3       6 GLY6        0.0000 
     65 CA         11.4800  -20.0600   19.0300 C.3       6 GLY6        0.0000 
     66 CA         12.4800  -25.2400   24.3700 C.3       6 GLY6        0.0000 
     67 CA         10.7200  -20.9700   22.5100 C.3       6 GLY6        0.0000 
     68 CA         10.9200  -22.0000   23.5800 C.3       6 GLY6        0.0000 
     69 CA         11.5200  -25.1100   26.7800 C.3       6 GLY6        0.0000 
     70 CA         11.9800  -20.0100   21.1000 C.3       6 GLY6        0.0000 
     71 CA         12.1800  -21.0500   22.1600 C.3       6 GLY6        0.0000 
     72 CA         12.3800  -22.0800   23.2300 C.3       6 GLY6        0.0000 
     73 CA         12.5800  -23.1200   24.3000 C.3       6 GLY6        0.0000 
     74 CA         13.2400  -19.0600   19.6800 C.3       6 GLY6        0.0000 
     75 CA         13.4400  -20.0900   20.7500 C.3       6 GLY6        0.0000 
     76 CA         13.6400  -21.1300   21.8100 C.3       6 GLY6        0.0000 
     77 CA         13.8300  -22.1600   22.8800 C.3       6 GLY6        0.0000 
     78 CA          9.7600  -20.8400   24.9200 C.3       6 GLY6        0.0000 
     79 DU         10.8900  -22.2200   17.0400 H         7 CUB7        0.0000 
     80 DU         11.0900  -23.2600   18.1100 H         7 CUB7        0.0000 
     81 DU         11.2900  -24.2900   19.1800 H         7 CUB7        0.0000 
     82 DU         12.5400  -23.3400   17.7600 H         7 CUB7        0.0000 
     83 DU         14.2000  -24.4500   18.4800 H         7 CUB7        0.0000 
     84 DU          9.7300  -21.0600   18.3900 H         7 CUB7        0.0000 
     85 DU         10.3300  -24.1700   21.5900 H         7 CUB7        0.0000 
     86 DU         11.1900  -21.1400   18.0400 H         7 CUB7        0.0000 
     87 DU         11.7800  -24.2500   21.2400 H         7 CUB7        0.0000 
     88 DU         13.0400  -23.2900   19.8200 H         7 CUB7        0.0000 
     89 DU         13.2400  -24.3300   20.8900 H         7 CUB7        0.0000 
     90 DU         14.7000  -24.4100   20.5400 H         7 CUB7        0.0000 
     91 DU         10.4200  -22.0500   21.5200 H         7 CUB7        0.0000 
     92 DU         10.6200  -23.0900   22.5800 H         7 CUB7        0.0000 
     93 DU         10.8200  -24.1200   23.6500 H         7 CUB7        0.0000 
     94 DU         11.6800  -21.0900   20.1000 H         7 CUB7        0.0000 
     95 DU         11.8800  -22.1300   21.1700 H         7 CUB7        0.0000 
     96 DU         12.0800  -23.1700   22.2400 H         7 CUB7        0.0000 
     97 DU         12.2800  -24.2000   23.3000 H         7 CUB7        0.0000 
     98 DU         13.1400  -21.1700   19.7500 H         7 CUB7        0.0000 
     99 DU         13.3400  -22.2100   20.8200 H         7 CUB7        0.0000 
    100 DU         13.5400  -23.2500   21.8900 H         7 CUB7        0.0000 
    101 DU         13.7400  -24.2800   22.9500 H         7 CUB7        0.0000 
    102 DU         14.7900  -22.2900   20.4700 H         7 CUB7        0.0000 
    103 DU         11.1200  -23.0400   24.6500 H         7 CUB7        0.0000 
@<TRIPOS>BOND
@<TRIPOS>SUBSTRUCTURE
     1 SER1        1 GROUP   
     2 ALA2        8 GROUP   
     3 ASP3       30 GROUP   
     4 LYS4       43 GROUP   
     5 PHE5       46 GROUP   
     6 GLY6       51 GROUP   
     7 CUB7       79 GROUP   
@<TRIPOS>SET

