#    Name: 6kpr_3_UMP
#    Modification time : Fri May 22 19:26:22 2020

@<TRIPOS>MOLECULE
6kpr_3_UMP
   20    21     1     0     1
SMALL
NO_CHARGES


@<TRIPOS>ATOM
      1 N1         42.7730  -14.0200    8.9370 N.am      1 UMP701      0.0000 
      2 C2         41.8870  -12.9340    9.0010 C.2       1 UMP701      0.0000 
      3 N3         41.0650  -12.8300    7.8970 N.am      1 UMP701      0.0000 
      4 C4         41.0280  -13.6510    6.7810 C.2       1 UMP701      0.0000 
      5 C5         41.9620  -14.7400    6.8010 C.2       1 UMP701      0.0000 
      6 C6         42.7880  -14.8730    7.8500 C.2       1 UMP701      0.0000 
      7 O2         41.8130  -12.1050    9.9260 O.2       1 UMP701      0.0000 
      8 O4         40.2360  -13.4110    5.8720 O.2       1 UMP701      0.0000 
      9 C1'        43.7590  -14.2810   10.0220 C.3       1 UMP701      0.0000 
     10 C2'        43.2050  -14.7250   11.3640 C.3       1 UMP701      0.0000 
     11 C3'        44.3730  -15.5700   11.8730 C.3       1 UMP701      0.0000 
     12 C4'        44.7340  -16.3710   10.6190 C.3       1 UMP701      0.0000 
     13 O3'        45.4460  -14.7180   12.2770 O.3       1 UMP701      0.0000 
     14 O4'        44.5920  -15.3670    9.5850 O.3       1 UMP701      0.0000 
     15 C5'        43.8820  -17.5990   10.2910 C.3       1 UMP701      0.0000 
     16 O5'        44.4910  -18.8560   10.8060 O.3       1 UMP701      0.0000 
     17 P          43.8860  -19.7080   12.0650 P.3       1 UMP701      0.0000 
     18 OP1        43.0180  -20.7340   11.5770 O.co2     1 UMP701      0.0000 
     19 OP2        43.2270  -18.7030   12.9460 O.co2     1 UMP701      0.0000 
     20 OP3        45.0660  -20.3390   12.7460 O.co2     1 UMP701      0.0000 
@<TRIPOS>BOND
     1    1    2 1    
     2    1    6 1    
     3    1    9 1    
     4    2    3 1    
     5    2    7 2    
     6    3    4 1    
     7    4    5 1    
     8    4    8 2    
     9    5    6 2    
    10    9   10 1    
    11    9   14 1    
    12   10   11 1    
    13   11   12 1    
    14   11   13 1    
    15   12   14 1    
    16   12   15 1    
    17   15   16 1    
    18   16   17 1    
    19   17   18 ar   
    20   17   19 ar   
    21   17   20 ar   
@<TRIPOS>SUBSTRUCTURE
     1 UMP701      1 GROUP   
@<TRIPOS>SET
ATOM$ORANGE STATIC     ATOMS   COLORGROUP SYSTEM 
18 2 2 4 4 5 5 6 6 9 9 10 10 11 11 12 12 15 \
15 

