#    Name: 6kpr_2_NDP
#    Modification time : Fri May 22 19:26:07 2020

@<TRIPOS>MOLECULE
6kpr_2_NDP
   48    52     1     0     1
SMALL
NO_CHARGES


@<TRIPOS>ATOM
      1 PA         22.6280   -4.1690   68.7730 P.3       1 NDP702      0.0000 
      2 O1A        21.4800   -3.5560   68.0790 O.co2     1 NDP702      0.0000 
      3 O2A        24.0440   -4.2160   68.2140 O.co2     1 NDP702      0.0000 
      4 O5B        22.7960   -3.3520   70.2010 O.3       1 NDP702      0.0000 
      5 C5B        21.7520   -3.3430   71.1830 C.3       1 NDP702      0.0000 
      6 C4B        22.3120   -2.4850   72.3660 C.3       1 NDP702      0.0000 
      7 O4B        22.8170   -1.2350   71.9770 O.3       1 NDP702      0.0000 
      8 C3B        21.2400   -2.1680   73.4040 C.3       1 NDP702      0.0000 
      9 O3B        21.0530   -3.3550   74.2720 O.3       1 NDP702      0.0000 
     10 C2B        21.8690   -1.0110   74.1260 C.3       1 NDP702      0.0000 
     11 O2B        23.1180   -1.3740   74.8620 O.3       1 NDP702      0.0000 
     12 C1B        22.3130   -0.2290   72.9450 C.3       1 NDP702      0.0000 
     13 N9A        21.3060    0.6470   72.3600 N.pl3     1 NDP702      0.0000 
     14 C8A        20.5510    0.4750   71.2870 C.2       1 NDP702      0.0000 
     15 N7A        19.7940    1.5460   71.1570 N.2       1 NDP702      0.0000 
     16 C5A        20.0720    2.4230   72.1000 C.ar      1 NDP702      0.0000 
     17 C6A        19.5830    3.6510   72.4000 C.ar      1 NDP702      0.0000 
     18 N6A        18.6440    4.1670   71.6030 N.pl3     1 NDP702      0.0000 
     19 N1A        20.0430    4.3550   73.4670 N.ar      1 NDP702      0.0000 
     20 C2A        21.0180    3.7330   74.2790 C.ar      1 NDP702      0.0000 
     21 N3A        21.5010    2.4670   73.9690 N.ar      1 NDP702      0.0000 
     22 C4A        21.0050    1.8360   72.8800 C.ar      1 NDP702      0.0000 
     23 O3         22.2180   -5.6100   69.2930 O.3       1 NDP702      0.0000 
     24 PN         21.3710   -6.6950   68.4450 P.3       1 NDP702      0.0000 
     25 O1N        20.1610   -6.0460   67.9160 O.co2     1 NDP702      0.0000 
     26 O2N        21.3460   -7.8500   69.3030 O.co2     1 NDP702      0.0000 
     27 O5D        22.4550   -7.0750   67.2590 O.3       1 NDP702      0.0000 
     28 C5D        23.7890   -7.6950   67.4320 C.3       1 NDP702      0.0000 
     29 C4D        23.7520   -8.8860   66.4470 C.3       1 NDP702      0.0000 
     30 O4D        23.6880   -8.2770   65.1330 O.3       1 NDP702      0.0000 
     31 C3D        25.0000   -9.6880   66.4430 C.3       1 NDP702      0.0000 
     32 O3D        24.6730  -11.1030   66.0940 O.3       1 NDP702      0.0000 
     33 C2D        25.8950   -8.9940   65.4060 C.3       1 NDP702      0.0000 
     34 O2D        26.8150   -9.9150   64.9050 O.3       1 NDP702      0.0000 
     35 C1D        24.8750   -8.7440   64.3880 C.3       1 NDP702      0.0000 
     36 N1N        25.1110   -7.6870   63.3900 N.pl3     1 NDP702      0.0000 
     37 C2N        24.9650   -8.0050   62.0020 C.2       1 NDP702      0.0000 
     38 C3N        25.0760   -7.0290   60.9700 C.2       1 NDP702      0.0000 
     39 C7N        24.9900   -7.3440   59.5500 C.2       1 NDP702      0.0000 
     40 O7N        25.0750   -6.4160   58.7330 O.2       1 NDP702      0.0000 
     41 N7N        24.8860   -8.6530   59.1480 N.am      1 NDP702      0.0000 
     42 C4N        25.2590   -5.6590   61.3580 C.3       1 NDP702      0.0000 
     43 C5N        25.3200   -5.3760   62.7810 C.2       1 NDP702      0.0000 
     44 C6N        25.2340   -6.3610   63.7680 C.2       1 NDP702      0.0000 
     45 P2B        23.1360   -1.5710   76.4810 P.3       1 NDP702      0.0000 
     46 O1X        22.2360   -0.4390   76.8790 O.co2     1 NDP702      0.0000 
     47 O2X        22.6000   -2.9310   76.6660 O.co2     1 NDP702      0.0000 
     48 O3X        24.5400   -1.4300   76.8270 O.co2     1 NDP702      0.0000 
@<TRIPOS>BOND
     1    1    2 ar   
     2    1    3 ar   
     3    1    4 1    
     4    1   23 1    
     5    4    5 1    
     6    5    6 1    
     7    6    7 1    
     8    6    8 1    
     9    7   12 1    
    10    8    9 1    
    11    8   10 1    
    12   10   11 1    
    13   10   12 1    
    14   11   45 1    
    15   12   13 1    
    16   13   14 1    
    17   13   22 1    
    18   14   15 2    
    19   15   16 1    
    20   16   17 ar   
    21   16   22 ar   
    22   17   18 1    
    23   17   19 ar   
    24   19   20 ar   
    25   20   21 ar   
    26   21   22 ar   
    27   23   24 1    
    28   24   25 ar   
    29   24   26 ar   
    30   24   27 1    
    31   27   28 1    
    32   28   29 1    
    33   29   30 1    
    34   29   31 1    
    35   30   35 1    
    36   31   32 1    
    37   31   33 1    
    38   33   34 1    
    39   33   35 1    
    40   35   36 1    
    41   36   37 1    
    42   36   44 1    
    43   37   38 2    
    44   38   39 1    
    45   38   42 1    
    46   39   40 2    
    47   39   41 am   
    48   42   43 1    
    49   43   44 2    
    50   45   46 ar   
    51   45   47 ar   
    52   45   48 ar   
@<TRIPOS>SUBSTRUCTURE
     1 NDP702      1 GROUP   
@<TRIPOS>SET
ATOM$ORANGE STATIC     ATOMS   COLORGROUP SYSTEM 
42 5 5 6 6 8 8 10 10 12 12 14 14 16 16 17 17 20 \
20 22 22 28 28 29 29 31 31 33 33 35 35 37 37 38 38 39 \
39 42 42 43 43 44 44 

