#    Name: 6kpr_3_UMP_CAVITY_N1_ALL
#    Modification time : Fri May 22 19:26:24 2020

@<TRIPOS>MOLECULE
6kpr_3_UMP_CAVITY_N1_ALL
  105     0     7     0     0
SMALL
NO_CHARGES


@<TRIPOS>ATOM
      1 OG         40.0200  -13.2800    7.6500 O.3       1 SER1        0.0000 
      2 OG         43.7300  -17.5900   11.2200 O.3       1 SER1        0.0000 
      3 OG         42.3700  -15.3900   11.4900 O.3       1 SER1        0.0000 
      4 OG         43.8300  -15.4700   11.1400 O.3       1 SER1        0.0000 
      5 OG         44.0300  -16.5000   12.2100 O.3       1 SER1        0.0000 
      6 OG         45.2900  -15.5500   10.7900 O.3       1 SER1        0.0000 
      7 OG         46.7400  -15.6300   10.4500 O.3       1 SER1        0.0000 
      8 OG         44.1300  -14.3900   12.1400 O.3       1 SER1        0.0000 
      9 OG         45.5800  -14.4700   11.7900 O.3       1 SER1        0.0000 
     10 O          43.5000  -16.7700    3.6100 O.2       2 ALA2        0.0000 
     11 O          43.7000  -17.8100    4.6800 O.2       2 ALA2        0.0000 
     12 O          45.3500  -18.9200    5.4000 O.2       2 ALA2        0.0000 
     13 N          42.5400  -16.6400    6.0200 N.am      2 ALA2        0.0000 
     14 N          45.0500  -14.7300    3.1900 N.am      2 ALA2        0.0000 
     15 O          45.2500  -15.7700    4.2600 O.2       2 ALA2        0.0000 
     16 O          45.4500  -16.8000    5.3300 O.2       2 ALA2        0.0000 
     17 N          46.7100  -15.8500    3.9100 N.am      2 ALA2        0.0000 
     18 O          46.9100  -16.8900    4.9800 O.2       2 ALA2        0.0000 
     19 N          47.1100  -17.9200    6.0400 N.am      2 ALA2        0.0000 
     20 N          47.3100  -18.9600    7.1100 N.am      2 ALA2        0.0000 
     21 O          40.9800  -13.4100    5.2300 O.2       2 ALA2        0.0000 
     22 N          41.3800  -15.4800    7.3700 N.am      2 ALA2        0.0000 
     23 N          42.8400  -15.5600    7.0200 N.am      2 ALA2        0.0000 
     24 N          43.0300  -16.6000    8.0900 N.am      2 ALA2        0.0000 
     25 N          43.2300  -17.6300    9.1500 N.am      2 ALA2        0.0000 
     26 N          43.4300  -18.6700   10.2200 N.am      2 ALA2        0.0000 
     27 N          45.3500  -13.6500    4.1900 N.am      2 ALA2        0.0000 
     28 N          46.6100  -12.7000    2.7700 N.am      2 ALA2        0.0000 
     29 O          41.2800  -12.3300    6.2300 O.2       2 ALA2        0.0000 
     30 N          41.4800  -13.3600    7.3000 N.am      2 ALA2        0.0000 
     31 N          41.6800  -14.4000    8.3600 N.am      2 ALA2        0.0000 
     32 O          42.5400  -11.3700    4.8100 O.2       2 ALA2        0.0000 
     33 O          42.7400  -12.4100    5.8800 O.2       2 ALA2        0.0000 
     34 N          43.1300  -14.4800    8.0100 N.am      2 ALA2        0.0000 
     35 N          43.3300  -15.5200    9.0800 N.am      2 ALA2        0.0000 
     36 N          43.5300  -16.5500   10.1500 N.am      2 ALA2        0.0000 
     37 N          41.5800  -11.2500    7.2200 N.am      2 ALA2        0.0000 
     38 N          41.7800  -12.2800    8.2900 N.am      2 ALA2        0.0000 
     39 N          41.9800  -13.3200    9.3600 N.am      2 ALA2        0.0000 
     40 N          42.1700  -14.3500   10.4300 N.am      2 ALA2        0.0000 
     41 OD1        44.8900  -18.7500    9.8700 O.co2     3 ASP3        0.0000 
     42 OD1        46.1500  -17.7900    8.4600 O.co2     3 ASP3        0.0000 
     43 OD1        45.1900  -17.6700   10.8700 O.co2     3 ASP3        0.0000 
     44 OD1        46.4400  -16.7100    9.4500 O.co2     3 ASP3        0.0000 
     45 OD1        47.9000  -16.7900    9.1000 O.co2     3 ASP3        0.0000 
     46 OD1        45.4800  -16.5800   11.8600 O.co2     3 ASP3        0.0000 
     47 NZ         46.1500  -12.5200    7.2400 N.4       4 LYS4        0.0000 
     48 NZ         46.3500  -13.5600    8.3100 N.4       4 LYS4        0.0000 
     49 NZ         46.5400  -14.5900    9.3800 N.4       4 LYS4        0.0000 
     50 NZ         44.9900  -11.3600    8.5900 N.4       4 LYS4        0.0000 
     51 NZ         46.8400  -13.5100   10.3700 N.4       4 LYS4        0.0000 
     52 NZ         48.3000  -13.5900   10.0200 N.4       4 LYS4        0.0000 
     53 CZ         42.0400  -16.6900    3.9600 C.ar      5 PHE5        0.0000 
     54 CZ         39.7200  -14.3700    6.6500 C.ar      5 PHE5        0.0000 
     55 CZ         41.1800  -14.4500    6.3000 C.ar      5 PHE5        0.0000 
     56 CZ         45.5500   -9.4200    4.0400 C.ar      5 PHE5        0.0000 
     57 CZ         46.8100   -8.4600    2.6300 C.ar      5 PHE5        0.0000 
     58 CA         42.7400  -17.6800    7.0900 C.3       6 GLY6        0.0000 
     59 CA         43.6000  -14.6500    3.5400 C.3       6 GLY6        0.0000 
     60 CA         43.9900  -16.7200    5.6800 C.3       6 GLY6        0.0000 
     61 CA         44.1900  -17.7600    6.7400 C.3       6 GLY6        0.0000 
     62 CA         45.6500  -17.8400    6.3900 C.3       6 GLY6        0.0000 
     63 CA         45.8500  -18.8800    7.4600 C.3       6 GLY6        0.0000 
     64 CA         42.2400  -12.4600    3.8200 C.3       6 GLY6        0.0000 
     65 CA         43.7000  -12.5400    3.4700 C.3       6 GLY6        0.0000 
     66 CA         44.6900  -17.7100    8.8000 C.3       6 GLY6        0.0000 
     67 CA         45.1500  -12.6200    3.1200 C.3       6 GLY6        0.0000 
     68 CA         46.4100  -11.6600    1.7100 C.3       6 GLY6        0.0000 
     69 CA         40.2200  -14.3200    8.7100 C.3       6 GLY6        0.0000 
     70 CA         42.8400  -10.2900    5.8100 C.3       6 GLY6        0.0000 
     71 CA         43.0300  -11.3300    6.8800 C.3       6 GLY6        0.0000 
     72 CA         43.2300  -12.3600    7.9400 C.3       6 GLY6        0.0000 
     73 CA         43.4300  -13.4000    9.0100 C.3       6 GLY6        0.0000 
     74 CA         43.6300  -14.4300   10.0800 C.3       6 GLY6        0.0000 
     75 CA         44.2900  -10.3700    5.4600 C.3       6 GLY6        0.0000 
     76 CA         44.4900  -11.4100    6.5300 C.3       6 GLY6        0.0000 
     77 CA         44.6900  -12.4400    7.5900 C.3       6 GLY6        0.0000 
     78 CA         44.8900  -13.4800    8.6600 C.3       6 GLY6        0.0000 
     79 CA         45.0900  -14.5100    9.7300 C.3       6 GLY6        0.0000 
     80 CA         45.7500  -10.4500    5.1100 C.3       6 GLY6        0.0000 
     81 CA         45.9500  -11.4900    6.1800 C.3       6 GLY6        0.0000 
     82 CA         47.0100   -9.5000    3.7000 C.3       6 GLY6        0.0000 
     83 CA         47.2100  -10.5300    4.7600 C.3       6 GLY6        0.0000 
     84 CA         46.0500   -9.3700    6.1100 C.3       6 GLY6        0.0000 
     85 CA         46.2500  -10.4000    7.1700 C.3       6 GLY6        0.0000 
     86 CA         47.9000  -11.5200    7.8900 C.3       6 GLY6        0.0000 
     87 DU         40.8800  -15.5300    5.3100 H         7 CUB7        0.0000 
     88 DU         42.3400  -15.6100    4.9600 H         7 CUB7        0.0000 
     89 DU         43.8000  -15.6900    4.6100 H         7 CUB7        0.0000 
     90 DU         42.4400  -13.4900    4.8900 H         7 CUB7        0.0000 
     91 DU         42.6400  -14.5300    5.9500 H         7 CUB7        0.0000 
     92 DU         43.9000  -13.5700    4.5400 H         7 CUB7        0.0000 
     93 DU         44.2900  -15.6400    6.6700 H         7 CUB7        0.0000 
     94 DU         44.4900  -16.6800    7.7400 H         7 CUB7        0.0000 
     95 DU         45.5500  -14.6900    5.2500 H         7 CUB7        0.0000 
     96 DU         45.7500  -15.7200    6.3200 H         7 CUB7        0.0000 
     97 DU         45.9500  -16.7600    7.3900 H         7 CUB7        0.0000 
     98 DU         47.4000  -16.8400    7.0400 H         7 CUB7        0.0000 
     99 DU         42.9400  -13.4400    6.9500 H         7 CUB7        0.0000 
    100 DU         43.9900  -11.4500    4.4700 H         7 CUB7        0.0000 
    101 DU         44.1900  -12.4900    5.5300 H         7 CUB7        0.0000 
    102 DU         44.3900  -13.5200    6.6000 H         7 CUB7        0.0000 
    103 DU         44.7900  -15.6000    8.7300 H         7 CUB7        0.0000 
    104 DU         44.9900  -16.6300    9.8000 H         7 CUB7        0.0000 
    105 DU         45.4500  -11.5300    4.1200 H         7 CUB7        0.0000 
@<TRIPOS>BOND
@<TRIPOS>SUBSTRUCTURE
     1 SER1        1 GROUP   
     2 ALA2       10 GROUP   
     3 ASP3       41 GROUP   
     4 LYS4       47 GROUP   
     5 PHE5       53 GROUP   
     6 GLY6       58 GROUP   
     7 CUB7       87 GROUP   
@<TRIPOS>SET

