#    Name: 6kpr_1_UMP_CAVITY_N1_4
#    Modification time : Fri May 22 19:26:02 2020

@<TRIPOS>MOLECULE
6kpr_1_UMP_CAVITY_N1_4
   76     0     7     0     0
SMALL
NO_CHARGES


@<TRIPOS>ATOM
      1 OG         15.8500  -25.5700   19.2000 O.3       1 SER1        0.0000 
      2 OG          9.5300  -20.0300   17.3200 O.3       1 SER1        0.0000 
      3 OG         12.2500  -19.1500   15.5600 O.3       1 SER1        0.0000 
      4 OG          9.8300  -18.9400   18.3200 O.3       1 SER1        0.0000 
      5 OG         11.0900  -17.9900   16.9000 O.3       1 SER1        0.0000 
      6 OG         12.5400  -18.0700   16.5500 O.3       1 SER1        0.0000 
      7 OG         12.7400  -19.1000   17.6200 O.3       1 SER1        0.0000 
      8 N          12.1500  -21.2700   15.6300 N.am      2 ALA2        0.0000 
      9 N          12.3500  -22.3000   16.7000 N.am      2 ALA2        0.0000 
     10 N          14.0000  -23.4200   17.4100 N.am      2 ALA2        0.0000 
     11 N          12.4400  -20.1900   16.6200 N.am      2 ALA2        0.0000 
     12 N          12.6400  -21.2200   17.6900 N.am      2 ALA2        0.0000 
     13 N          12.8400  -22.2600   18.7600 N.am      2 ALA2        0.0000 
     14 N          14.3000  -22.3400   18.4100 N.am      2 ALA2        0.0000 
     15 N          14.5000  -23.3700   19.4800 N.am      2 ALA2        0.0000 
     16 N          12.9400  -20.1400   18.6900 N.am      2 ALA2        0.0000 
     17 N          14.2000  -19.1800   17.2700 N.am      2 ALA2        0.0000 
     18 N          14.4000  -20.2200   18.3400 N.am      2 ALA2        0.0000 
     19 N          14.6000  -21.2500   19.4000 N.am      2 ALA2        0.0000 
     20 O          14.9900  -23.3300   21.5400 O.2       2 ALA2        0.0000 
     21 O          13.0400  -18.0200   18.6100 O.2       2 ALA2        0.0000 
     22 O          14.0300  -23.2000   23.9500 O.2       2 ALA2        0.0000 
     23 N          14.7000  -19.1400   19.3300 N.am      2 ALA2        0.0000 
     24 N          14.8900  -20.1700   20.4000 N.am      2 ALA2        0.0000 
     25 OD1        10.0900  -23.3500   13.9900 O.co2     3 ASP3        0.0000 
     26 OD1        11.6500  -21.3100   13.5700 O.co2     3 ASP3        0.0000 
     27 OD1        11.8500  -22.3500   14.6300 O.co2     3 ASP3        0.0000 
     28 OD1        13.1100  -21.3900   13.2200 O.co2     3 ASP3        0.0000 
     29 OD1        13.3100  -22.4300   14.2800 O.co2     3 ASP3        0.0000 
     30 OD1         9.2300  -21.1100   16.3300 O.co2     3 ASP3        0.0000 
     31 OD1         9.4300  -22.1400   17.3900 O.co2     3 ASP3        0.0000 
     32 OD1        10.6900  -21.1900   15.9800 O.co2     3 ASP3        0.0000 
     33 OD1        11.9500  -20.2300   14.5600 O.co2     3 ASP3        0.0000 
     34 OD1        10.7900  -19.0700   15.9100 O.co2     3 ASP3        0.0000 
     35 OD1        10.9900  -20.1100   16.9700 O.co2     3 ASP3        0.0000 
     36 NZ         14.8900  -25.4400   21.6100 N.4       4 LYS4        0.0000 
     37 NZ         10.0300  -19.9800   19.3800 N.4       4 LYS4        0.0000 
     38 NZ         10.2300  -21.0100   20.4500 N.4       4 LYS4        0.0000 
     39 CZ         16.1500  -24.4900   20.1900 C.ar      5 PHE5        0.0000 
     40 CZ         16.3500  -25.5200   21.2600 C.ar      5 PHE5        0.0000 
     41 CA         11.5500  -23.4300   13.6400 C.3       6 GLY6        0.0000 
     42 CA         10.5900  -23.3100   16.0500 C.3       6 GLY6        0.0000 
     43 CA         12.0500  -23.3900   15.7000 C.3       6 GLY6        0.0000 
     44 CA         12.2500  -24.4200   16.7700 C.3       6 GLY6        0.0000 
     45 CA         13.5000  -23.4700   15.3500 C.3       6 GLY6        0.0000 
     46 CA         13.7000  -24.5000   16.4200 C.3       6 GLY6        0.0000 
     47 CA         13.4400  -25.3600   21.9600 C.3       6 GLY6        0.0000 
     48 CA         15.9500  -23.4500   19.1300 C.3       6 GLY6        0.0000 
     49 CA         11.2900  -19.0200   17.9700 C.3       6 GLY6        0.0000 
     50 CA         11.4800  -20.0600   19.0300 C.3       6 GLY6        0.0000 
     51 CA         11.9800  -20.0100   21.1000 C.3       6 GLY6        0.0000 
     52 CA         12.1800  -21.0500   22.1600 C.3       6 GLY6        0.0000 
     53 CA         12.3800  -22.0800   23.2300 C.3       6 GLY6        0.0000 
     54 CA         13.2400  -19.0600   19.6800 C.3       6 GLY6        0.0000 
     55 CA         13.4400  -20.0900   20.7500 C.3       6 GLY6        0.0000 
     56 CA         13.6400  -21.1300   21.8100 C.3       6 GLY6        0.0000 
     57 CA         13.8300  -22.1600   22.8800 C.3       6 GLY6        0.0000 
     58 DU         10.8900  -22.2200   17.0400 H         7 CUB7        0.0000 
     59 DU         11.0900  -23.2600   18.1100 H         7 CUB7        0.0000 
     60 DU         11.2900  -24.2900   19.1800 H         7 CUB7        0.0000 
     61 DU         12.5400  -23.3400   17.7600 H         7 CUB7        0.0000 
     62 DU         14.2000  -24.4500   18.4800 H         7 CUB7        0.0000 
     63 DU          9.7300  -21.0600   18.3900 H         7 CUB7        0.0000 
     64 DU         11.1900  -21.1400   18.0400 H         7 CUB7        0.0000 
     65 DU         11.7800  -24.2500   21.2400 H         7 CUB7        0.0000 
     66 DU         13.0400  -23.2900   19.8200 H         7 CUB7        0.0000 
     67 DU         13.2400  -24.3300   20.8900 H         7 CUB7        0.0000 
     68 DU         14.7000  -24.4100   20.5400 H         7 CUB7        0.0000 
     69 DU         11.6800  -21.0900   20.1000 H         7 CUB7        0.0000 
     70 DU         11.8800  -22.1300   21.1700 H         7 CUB7        0.0000 
     71 DU         12.0800  -23.1700   22.2400 H         7 CUB7        0.0000 
     72 DU         13.1400  -21.1700   19.7500 H         7 CUB7        0.0000 
     73 DU         13.3400  -22.2100   20.8200 H         7 CUB7        0.0000 
     74 DU         13.5400  -23.2500   21.8900 H         7 CUB7        0.0000 
     75 DU         13.7400  -24.2800   22.9500 H         7 CUB7        0.0000 
     76 DU         14.7900  -22.2900   20.4700 H         7 CUB7        0.0000 
@<TRIPOS>BOND
@<TRIPOS>SUBSTRUCTURE
     1 SER1        1 GROUP   
     2 ALA2        8 GROUP   
     3 ASP3       25 GROUP   
     4 LYS4       36 GROUP   
     5 PHE5       39 GROUP   
     6 GLY6       41 GROUP   
     7 CUB7       58 GROUP   
@<TRIPOS>SET

