#    Name: 6kpr_3_UMP_CAVITY_N1_4
#    Modification time : Fri May 22 19:26:24 2020

@<TRIPOS>MOLECULE
6kpr_3_UMP_CAVITY_N1_4
   75     0     7     0     0
SMALL
NO_CHARGES


@<TRIPOS>ATOM
      1 OG         40.0200  -13.2800    7.6500 O.3       1 SER1        0.0000 
      2 OG         43.7300  -17.5900   11.2200 O.3       1 SER1        0.0000 
      3 OG         42.3700  -15.3900   11.4900 O.3       1 SER1        0.0000 
      4 OG         43.8300  -15.4700   11.1400 O.3       1 SER1        0.0000 
      5 OG         44.0300  -16.5000   12.2100 O.3       1 SER1        0.0000 
      6 OG         45.2900  -15.5500   10.7900 O.3       1 SER1        0.0000 
      7 OG         46.7400  -15.6300   10.4500 O.3       1 SER1        0.0000 
      8 OG         44.1300  -14.3900   12.1400 O.3       1 SER1        0.0000 
      9 OG         45.5800  -14.4700   11.7900 O.3       1 SER1        0.0000 
     10 N          42.5400  -16.6400    6.0200 N.am      2 ALA2        0.0000 
     11 O          40.9800  -13.4100    5.2300 O.2       2 ALA2        0.0000 
     12 N          41.3800  -15.4800    7.3700 N.am      2 ALA2        0.0000 
     13 N          42.8400  -15.5600    7.0200 N.am      2 ALA2        0.0000 
     14 N          43.0300  -16.6000    8.0900 N.am      2 ALA2        0.0000 
     15 N          43.2300  -17.6300    9.1500 N.am      2 ALA2        0.0000 
     16 N          43.4300  -18.6700   10.2200 N.am      2 ALA2        0.0000 
     17 O          41.2800  -12.3300    6.2300 O.2       2 ALA2        0.0000 
     18 N          41.4800  -13.3600    7.3000 N.am      2 ALA2        0.0000 
     19 N          41.6800  -14.4000    8.3600 N.am      2 ALA2        0.0000 
     20 O          42.5400  -11.3700    4.8100 O.2       2 ALA2        0.0000 
     21 O          42.7400  -12.4100    5.8800 O.2       2 ALA2        0.0000 
     22 N          43.1300  -14.4800    8.0100 N.am      2 ALA2        0.0000 
     23 N          43.3300  -15.5200    9.0800 N.am      2 ALA2        0.0000 
     24 N          43.5300  -16.5500   10.1500 N.am      2 ALA2        0.0000 
     25 N          41.5800  -11.2500    7.2200 N.am      2 ALA2        0.0000 
     26 N          41.7800  -12.2800    8.2900 N.am      2 ALA2        0.0000 
     27 N          41.9800  -13.3200    9.3600 N.am      2 ALA2        0.0000 
     28 N          42.1700  -14.3500   10.4300 N.am      2 ALA2        0.0000 
     29 OD1        44.8900  -18.7500    9.8700 O.co2     3 ASP3        0.0000 
     30 OD1        46.1500  -17.7900    8.4600 O.co2     3 ASP3        0.0000 
     31 OD1        45.1900  -17.6700   10.8700 O.co2     3 ASP3        0.0000 
     32 OD1        46.4400  -16.7100    9.4500 O.co2     3 ASP3        0.0000 
     33 OD1        47.9000  -16.7900    9.1000 O.co2     3 ASP3        0.0000 
     34 OD1        45.4800  -16.5800   11.8600 O.co2     3 ASP3        0.0000 
     35 NZ         46.3500  -13.5600    8.3100 N.4       4 LYS4        0.0000 
     36 NZ         46.5400  -14.5900    9.3800 N.4       4 LYS4        0.0000 
     37 NZ         44.9900  -11.3600    8.5900 N.4       4 LYS4        0.0000 
     38 NZ         46.8400  -13.5100   10.3700 N.4       4 LYS4        0.0000 
     39 NZ         48.3000  -13.5900   10.0200 N.4       4 LYS4        0.0000 
     40 CZ         42.0400  -16.6900    3.9600 C.ar      5 PHE5        0.0000 
     41 CZ         39.7200  -14.3700    6.6500 C.ar      5 PHE5        0.0000 
     42 CZ         41.1800  -14.4500    6.3000 C.ar      5 PHE5        0.0000 
     43 CA         42.7400  -17.6800    7.0900 C.3       6 GLY6        0.0000 
     44 CA         43.6000  -14.6500    3.5400 C.3       6 GLY6        0.0000 
     45 CA         43.9900  -16.7200    5.6800 C.3       6 GLY6        0.0000 
     46 CA         44.1900  -17.7600    6.7400 C.3       6 GLY6        0.0000 
     47 CA         45.8500  -18.8800    7.4600 C.3       6 GLY6        0.0000 
     48 CA         42.2400  -12.4600    3.8200 C.3       6 GLY6        0.0000 
     49 CA         44.6900  -17.7100    8.8000 C.3       6 GLY6        0.0000 
     50 CA         40.2200  -14.3200    8.7100 C.3       6 GLY6        0.0000 
     51 CA         42.8400  -10.2900    5.8100 C.3       6 GLY6        0.0000 
     52 CA         43.0300  -11.3300    6.8800 C.3       6 GLY6        0.0000 
     53 CA         43.2300  -12.3600    7.9400 C.3       6 GLY6        0.0000 
     54 CA         43.4300  -13.4000    9.0100 C.3       6 GLY6        0.0000 
     55 CA         43.6300  -14.4300   10.0800 C.3       6 GLY6        0.0000 
     56 CA         44.4900  -11.4100    6.5300 C.3       6 GLY6        0.0000 
     57 CA         44.6900  -12.4400    7.5900 C.3       6 GLY6        0.0000 
     58 CA         44.8900  -13.4800    8.6600 C.3       6 GLY6        0.0000 
     59 CA         45.0900  -14.5100    9.7300 C.3       6 GLY6        0.0000 
     60 DU         40.8800  -15.5300    5.3100 H         7 CUB7        0.0000 
     61 DU         42.3400  -15.6100    4.9600 H         7 CUB7        0.0000 
     62 DU         43.8000  -15.6900    4.6100 H         7 CUB7        0.0000 
     63 DU         42.4400  -13.4900    4.8900 H         7 CUB7        0.0000 
     64 DU         42.6400  -14.5300    5.9500 H         7 CUB7        0.0000 
     65 DU         43.9000  -13.5700    4.5400 H         7 CUB7        0.0000 
     66 DU         44.2900  -15.6400    6.6700 H         7 CUB7        0.0000 
     67 DU         44.4900  -16.6800    7.7400 H         7 CUB7        0.0000 
     68 DU         45.5500  -14.6900    5.2500 H         7 CUB7        0.0000 
     69 DU         45.7500  -15.7200    6.3200 H         7 CUB7        0.0000 
     70 DU         45.9500  -16.7600    7.3900 H         7 CUB7        0.0000 
     71 DU         42.9400  -13.4400    6.9500 H         7 CUB7        0.0000 
     72 DU         44.1900  -12.4900    5.5300 H         7 CUB7        0.0000 
     73 DU         44.3900  -13.5200    6.6000 H         7 CUB7        0.0000 
     74 DU         44.7900  -15.6000    8.7300 H         7 CUB7        0.0000 
     75 DU         44.9900  -16.6300    9.8000 H         7 CUB7        0.0000 
@<TRIPOS>BOND
@<TRIPOS>SUBSTRUCTURE
     1 SER1        1 GROUP   
     2 ALA2       10 GROUP   
     3 ASP3       29 GROUP   
     4 LYS4       35 GROUP   
     5 PHE5       40 GROUP   
     6 GLY6       43 GROUP   
     7 CUB7       60 GROUP   
@<TRIPOS>SET

