#    Name: 6kpr_1_UMP
#    Modification time : Fri May 22 19:26:00 2020

@<TRIPOS>MOLECULE
6kpr_1_UMP
   20    21     1     0     1
SMALL
NO_CHARGES


@<TRIPOS>ATOM
      1 N1         13.7800  -20.5180   19.2830 N.am      1 UMP701      0.0000 
      2 C2         14.5970  -20.0230   20.3080 C.2       1 UMP701      0.0000 
      3 N3         15.4020  -20.9800   20.8730 N.am      1 UMP701      0.0000 
      4 C4         15.4830  -22.3270   20.5750 C.2       1 UMP701      0.0000 
      5 C5         14.6100  -22.7600   19.5210 C.2       1 UMP701      0.0000 
      6 C6         13.8050  -21.8580   18.9390 C.2       1 UMP701      0.0000 
      7 O2         14.6390  -18.8530   20.7190 O.2       1 UMP701      0.0000 
      8 O4         16.2680  -23.0390   21.2070 O.2       1 UMP701      0.0000 
      9 C1'        12.7830  -19.6310   18.5910 C.3       1 UMP701      0.0000 
     10 C2'        13.3140  -18.5490   17.6500 C.3       1 UMP701      0.0000 
     11 C3'        12.1110  -18.3570   16.7250 C.3       1 UMP701      0.0000 
     12 C4'        11.6650  -19.8030   16.5170 C.3       1 UMP701      0.0000 
     13 O3'        11.0710  -17.5970   17.3360 O.3       1 UMP701      0.0000 
     14 O4'        11.9640  -20.4710   17.7680 O.3       1 UMP701      0.0000 
     15 C5'        12.3330  -20.5020   15.3470 C.3       1 UMP701      0.0000 
     16 O5'        11.7330  -19.9640   14.1280 O.3       1 UMP701      0.0000 
     17 P          12.5370  -19.7330   12.7900 P.3       1 UMP701      0.0000 
     18 OP1        11.4820  -19.2550   11.8170 O.co2     1 UMP701      0.0000 
     19 OP2        13.5280  -18.6630   13.0470 O.co2     1 UMP701      0.0000 
     20 OP3        13.1400  -21.0660   12.4530 O.co2     1 UMP701      0.0000 
@<TRIPOS>BOND
     1    1    2 1    
     2    1    6 1    
     3    1    9 1    
     4    2    3 1    
     5    2    7 2    
     6    3    4 1    
     7    4    5 1    
     8    4    8 2    
     9    5    6 2    
    10    9   10 1    
    11    9   14 1    
    12   10   11 1    
    13   11   12 1    
    14   11   13 1    
    15   12   14 1    
    16   12   15 1    
    17   15   16 1    
    18   16   17 1    
    19   17   18 ar   
    20   17   19 ar   
    21   17   20 ar   
@<TRIPOS>SUBSTRUCTURE
     1 UMP701      1 GROUP   
@<TRIPOS>SET
ATOM$ORANGE STATIC     ATOMS   COLORGROUP SYSTEM 
18 2 2 4 4 5 5 6 6 9 9 10 10 11 11 12 12 15 \
15 

