#    Name: 6s5b_4_ADP_CAVITY_N1_12
#    Modification time : Fri May 22 19:27:20 2020

@<TRIPOS>MOLECULE
6s5b_4_ADP_CAVITY_N1_12
   70     0     5     0     0
SMALL
NO_CHARGES


@<TRIPOS>ATOM
      1 OG        -16.4900    9.1000   65.4400 O.3       1 SER1        0.0000 
      2 OG        -14.6100   10.0100   65.7900 O.3       1 SER1        0.0000 
      3 OG        -15.9300   10.0000   66.5000 O.3       1 SER1        0.0000 
      4 OG        -17.2500   10.0000   67.2000 O.3       1 SER1        0.0000 
      5 OG        -19.0000   11.1900   67.1100 O.3       1 SER1        0.0000 
      6 OG        -15.3700   10.9100   67.5500 O.3       1 SER1        0.0000 
      7 OG        -16.6900   10.9100   68.2600 O.3       1 SER1        0.0000 
      8 OG        -17.1200   12.1000   67.4600 O.3       1 SER1        0.0000 
      9 OG        -15.2400   13.0100   67.8100 O.3       1 SER1        0.0000 
     10 N         -14.7400    7.9100   65.5300 N.am      2 ALA2        0.0000 
     11 O         -15.1700    9.1000   64.7300 O.2       2 ALA2        0.0000 
     12 N         -16.0600    7.9000   66.2400 N.am      2 ALA2        0.0000 
     13 O         -20.8900   10.2800   66.7700 O.2       2 ALA2        0.0000 
     14 N         -17.7100    7.6000   69.5100 N.am      2 ALA2        0.0000 
     15 N         -18.1400    8.8000   68.7100 N.am      2 ALA2        0.0000 
     16 N         -19.4700    8.7900   69.4200 N.am      2 ALA2        0.0000 
     17 N         -19.9000    9.9900   68.6200 N.am      2 ALA2        0.0000 
     18 N         -21.2200    9.9900   69.3300 N.am      2 ALA2        0.0000 
     19 O         -15.4000    7.3200   70.6500 O.2       2 ALA2        0.0000 
     20 O         -15.8300    8.5100   69.8500 O.2       2 ALA2        0.0000 
     21 O         -15.2700    9.4200   70.9100 O.2       2 ALA2        0.0000 
     22 O         -15.7000   10.6200   70.1100 O.2       2 ALA2        0.0000 
     23 O         -17.0200   10.6100   70.8200 O.2       2 ALA2        0.0000 
     24 OD1       -22.7700    9.3700   66.4200 O.co2     3 ASP3        0.0000 
     25 OD1       -23.1000    9.0700   68.9800 O.co2     3 ASP3        0.0000 
     26 OD1       -12.8500    8.8200   65.8800 O.co2     3 ASP3        0.0000 
     27 OD1       -12.2900    9.7200   66.9300 O.co2     3 ASP3        0.0000 
     28 OD1       -13.6100    9.7200   67.6400 O.co2     3 ASP3        0.0000 
     29 OD1       -14.0400   10.9100   66.8400 O.co2     3 ASP3        0.0000 
     30 OD1       -14.8100   11.8200   68.6100 O.co2     3 ASP3        0.0000 
     31 CA        -13.4100    7.9100   64.8200 C.3       4 GLY6        0.0000 
     32 CA        -15.6300    6.7100   67.0300 C.3       4 GLY6        0.0000 
     33 CA        -16.5200    5.5100   68.5400 C.3       4 GLY6        0.0000 
     34 CA        -16.9500    6.7000   67.7400 C.3       4 GLY6        0.0000 
     35 CA        -17.3800    7.9000   66.9500 C.3       4 GLY6        0.0000 
     36 CA        -17.8100    9.0900   66.1500 C.3       4 GLY6        0.0000 
     37 CA        -18.2700    6.7000   68.4500 C.3       4 GLY6        0.0000 
     38 CA        -19.1400    9.0900   66.8600 C.3       4 GLY6        0.0000 
     39 CA        -19.5700   10.2800   66.0600 C.3       4 GLY6        0.0000 
     40 CA        -20.4600    9.0800   67.5600 C.3       4 GLY6        0.0000 
     41 CA        -21.7800    9.0800   68.2700 C.3       4 GLY6        0.0000 
     42 CA        -12.4200    7.6200   66.6700 C.3       4 GLY6        0.0000 
     43 CA        -13.2800   10.0100   65.0800 C.3       4 GLY6        0.0000 
     44 CA        -14.1800    8.8100   66.5900 C.3       4 GLY6        0.0000 
     45 CA        -15.0700    7.6100   68.0900 C.3       4 GLY6        0.0000 
     46 CA        -15.9600    6.4100   69.5900 C.3       4 GLY6        0.0000 
     47 CA        -16.3900    7.6100   68.8000 C.3       4 GLY6        0.0000 
     48 CA        -17.2800    6.4100   70.3000 C.3       4 GLY6        0.0000 
     49 CA        -19.4300   12.3900   66.3200 C.3       4 GLY6        0.0000 
     50 CA        -20.3300   11.1900   67.8200 C.3       4 GLY6        0.0000 
     51 CA        -13.1800    8.5200   68.4400 C.3       4 GLY6        0.0000 
     52 CA        -14.0800    7.3200   69.9400 C.3       4 GLY6        0.0000 
     53 CA        -14.5100    8.5200   69.1500 C.3       4 GLY6        0.0000 
     54 CA        -17.1500    8.5100   70.5600 C.3       4 GLY6        0.0000 
     55 CA        -17.5800    9.7000   69.7600 C.3       4 GLY6        0.0000 
     56 CA        -19.3300   10.9000   69.6700 C.3       4 GLY6        0.0000 
     57 CA        -20.6600   10.8900   70.3800 C.3       4 GLY6        0.0000 
     58 CA        -13.9400    9.4200   70.2000 C.3       4 GLY6        0.0000 
     59 CA        -18.7700   11.8000   70.7300 C.3       4 GLY6        0.0000 
     60 DU        -15.5000    8.8100   67.2900 H         5 CUB7        0.0000 
     61 DU        -16.8200    8.8000   68.0000 H         5 CUB7        0.0000 
     62 DU        -18.5700    9.9900   67.9100 H         5 CUB7        0.0000 
     63 DU        -14.9400    9.7100   68.3500 H         5 CUB7        0.0000 
     64 DU        -16.2600    9.7100   69.0600 H         5 CUB7        0.0000 
     65 DU        -18.0100   10.9000   68.9700 H         5 CUB7        0.0000 
     66 DU        -18.4400   12.1000   68.1700 H         5 CUB7        0.0000 
     67 DU        -14.3700   10.6200   69.4000 H         5 CUB7        0.0000 
     68 DU        -16.1300   11.8100   69.3100 H         5 CUB7        0.0000 
     69 DU        -16.5600   13.0100   68.5200 H         5 CUB7        0.0000 
     70 DU        -17.4500   11.8100   70.0200 H         5 CUB7        0.0000 
@<TRIPOS>BOND
@<TRIPOS>SUBSTRUCTURE
     1 SER1        1 GROUP   
     2 ALA2       10 GROUP   
     3 ASP3       24 GROUP   
     4 GLY6       31 GROUP   
     5 CUB7       60 GROUP   
@<TRIPOS>SET

