#    Name: 6s5b_4_ADP_CAVITY_N1_8
#    Modification time : Fri May 22 19:27:20 2020

@<TRIPOS>MOLECULE
6s5b_4_ADP_CAVITY_N1_8
   26     0     5     0     0
SMALL
NO_CHARGES


@<TRIPOS>ATOM
      1 OG        -16.4900    9.1000   65.4400 O.3       1 SER1        0.0000 
      2 OG        -17.2500   10.0000   67.2000 O.3       1 SER1        0.0000 
      3 OG        -19.0000   11.1900   67.1100 O.3       1 SER1        0.0000 
      4 N         -16.0600    7.9000   66.2400 N.am      2 ALA2        0.0000 
      5 O         -20.8900   10.2800   66.7700 O.2       2 ALA2        0.0000 
      6 N         -18.1400    8.8000   68.7100 N.am      2 ALA2        0.0000 
      7 N         -19.4700    8.7900   69.4200 N.am      2 ALA2        0.0000 
      8 N         -19.9000    9.9900   68.6200 N.am      2 ALA2        0.0000 
      9 N         -21.2200    9.9900   69.3300 N.am      2 ALA2        0.0000 
     10 OD1       -22.7700    9.3700   66.4200 O.co2     3 ASP3        0.0000 
     11 OD1       -23.1000    9.0700   68.9800 O.co2     3 ASP3        0.0000 
     12 CA        -16.5200    5.5100   68.5400 C.3       4 GLY6        0.0000 
     13 CA        -16.9500    6.7000   67.7400 C.3       4 GLY6        0.0000 
     14 CA        -17.3800    7.9000   66.9500 C.3       4 GLY6        0.0000 
     15 CA        -17.8100    9.0900   66.1500 C.3       4 GLY6        0.0000 
     16 CA        -18.2700    6.7000   68.4500 C.3       4 GLY6        0.0000 
     17 CA        -19.1400    9.0900   66.8600 C.3       4 GLY6        0.0000 
     18 CA        -19.5700   10.2800   66.0600 C.3       4 GLY6        0.0000 
     19 CA        -20.4600    9.0800   67.5600 C.3       4 GLY6        0.0000 
     20 CA        -21.7800    9.0800   68.2700 C.3       4 GLY6        0.0000 
     21 CA        -19.4300   12.3900   66.3200 C.3       4 GLY6        0.0000 
     22 CA        -20.3300   11.1900   67.8200 C.3       4 GLY6        0.0000 
     23 CA        -19.3300   10.9000   69.6700 C.3       4 GLY6        0.0000 
     24 CA        -20.6600   10.8900   70.3800 C.3       4 GLY6        0.0000 
     25 DU        -18.5700    9.9900   67.9100 H         5 CUB7        0.0000 
     26 DU        -18.4400   12.1000   68.1700 H         5 CUB7        0.0000 
@<TRIPOS>BOND
@<TRIPOS>SUBSTRUCTURE
     1 SER1        1 GROUP   
     2 ALA2        4 GROUP   
     3 ASP3       10 GROUP   
     4 GLY6       12 GROUP   
     5 CUB7       25 GROUP   
@<TRIPOS>SET

