#    Name: 6s5b_1_ADP
#    Modification time : Fri May 22 19:27:02 2020

@<TRIPOS>MOLECULE
6s5b_1_ADP
   27    29     1     0     1
SMALL
NO_CHARGES


@<TRIPOS>ATOM
      1 PB         -7.8960   -9.9400    1.3140 P.3       1 ADP601      0.0000 
      2 O1B        -8.4140   -8.5980    0.8520 O.co2     1 ADP601      0.0000 
      3 O2B        -8.9560  -10.8660    1.8620 O.co2     1 ADP601      0.0000 
      4 O3B        -6.6370   -9.8720    2.1430 O.co2     1 ADP601      0.0000 
      5 PA         -6.3240  -10.0130   -1.0140 P.3       1 ADP601      0.0000 
      6 O1A        -6.9290   -8.8020   -1.6800 O.co2     1 ADP601      0.0000 
      7 O2A        -5.0110   -9.8700   -0.2820 O.co2     1 ADP601      0.0000 
      8 O3A        -7.4230  -10.6720   -0.0390 O.3       1 ADP601      0.0000 
      9 O5'        -6.1620  -11.1580   -2.1310 O.3       1 ADP601      0.0000 
     10 C5'        -6.4740  -10.8830   -3.4930 C.3       1 ADP601      0.0000 
     11 C4'        -5.7240  -11.8630   -4.3810 C.3       1 ADP601      0.0000 
     12 O4'        -6.3870  -12.0110   -5.6380 O.3       1 ADP601      0.0000 
     13 C3'        -4.3130  -11.3700   -4.6660 C.3       1 ADP601      0.0000 
     14 O3'        -3.3590  -12.2460   -4.0590 O.3       1 ADP601      0.0000 
     15 C2'        -4.1650  -11.4050   -6.1740 C.3       1 ADP601      0.0000 
     16 O2'        -2.9780  -12.1070   -6.5510 O.3       1 ADP601      0.0000 
     17 C1'        -5.4070  -12.1320   -6.6680 C.3       1 ADP601      0.0000 
     18 N9         -5.8840  -11.5470   -7.9450 N.pl3     1 ADP601      0.0000 
     19 C8         -5.9780  -10.2360   -8.2370 C.2       1 ADP601      0.0000 
     20 N7         -6.4420  -10.0510   -9.5010 N.2       1 ADP601      0.0000 
     21 C5         -6.6450  -11.2680  -10.0390 C.ar      1 ADP601      0.0000 
     22 C6         -7.1250  -11.8000  -11.3370 C.ar      1 ADP601      0.0000 
     23 N6         -7.4900  -10.9680  -12.3420 N.pl3     1 ADP601      0.0000 
     24 N1         -7.1860  -13.1430  -11.4840 N.ar      1 ADP601      0.0000 
     25 C2         -6.8270  -13.9820  -10.4940 C.ar      1 ADP601      0.0000 
     26 N3         -6.3840  -13.5700   -9.2930 N.ar      1 ADP601      0.0000 
     27 C4         -6.2700  -12.2500   -9.0110 C.ar      1 ADP601      0.0000 
@<TRIPOS>BOND
     1    1    2 ar   
     2    1    3 ar   
     3    1    4 ar   
     4    1    8 1    
     5    5    6 ar   
     6    5    7 ar   
     7    5    8 1    
     8    5    9 1    
     9    9   10 1    
    10   10   11 1    
    11   11   12 1    
    12   11   13 1    
    13   12   17 1    
    14   13   14 1    
    15   13   15 1    
    16   15   16 1    
    17   15   17 1    
    18   17   18 1    
    19   18   19 1    
    20   18   27 1    
    21   19   20 2    
    22   20   21 1    
    23   21   22 ar   
    24   21   27 ar   
    25   22   23 1    
    26   22   24 ar   
    27   24   25 ar   
    28   25   26 ar   
    29   26   27 ar   
@<TRIPOS>SUBSTRUCTURE
     1 ADP601      1 GROUP   
@<TRIPOS>SET
ATOM$ORANGE STATIC     ATOMS   COLORGROUP SYSTEM 
20 10 10 11 11 13 13 15 15 17 17 19 19 21 21 22 22 25 \
25 27 27 

