#    Name: 6s5b_4_ADP_CAVITY_N1_4
#    Modification time : Fri May 22 19:27:20 2020

@<TRIPOS>MOLECULE
6s5b_4_ADP_CAVITY_N1_4
    1     0     1     0     0
SMALL
NO_CHARGES


@<TRIPOS>ATOM
      1 OD1       -22.7700    9.3700   66.4200 O.co2     1 ASP3        0.0000 
@<TRIPOS>BOND
@<TRIPOS>SUBSTRUCTURE
     1 ASP3        1 GROUP   
@<TRIPOS>SET

