#    Name: 6s5b_2_ADP
#    Modification time : Fri May 22 19:27:08 2020

@<TRIPOS>MOLECULE
6s5b_2_ADP
   27    29     1     0     1
SMALL
NO_CHARGES


@<TRIPOS>ATOM
      1 PB         -9.2650   -3.1000    6.1050 P.3       1 ADP601      0.0000 
      2 O1B       -10.0920   -2.7560    4.8910 O.co2     1 ADP601      0.0000 
      3 O2B        -8.9590   -4.5730    6.2260 O.co2     1 ADP601      0.0000 
      4 O3B        -9.7180   -2.4460    7.3880 O.co2     1 ADP601      0.0000 
      5 PA         -7.6580   -1.0150    5.0870 P.3       1 ADP601      0.0000 
      6 O1A        -6.3770   -1.0450    4.2870 O.co2     1 ADP601      0.0000 
      7 O2A        -8.9550   -0.6130    4.4240 O.co2     1 ADP601      0.0000 
      8 O3A        -7.8250   -2.4320    5.8350 O.3       1 ADP601      0.0000 
      9 O5'        -7.4410   -0.0090    6.3230 O.3       1 ADP601      0.0000 
     10 C5'        -6.6510    1.1600    6.1390 C.3       1 ADP601      0.0000 
     11 C4'        -7.1510    2.2940    7.0200 C.3       1 ADP601      0.0000 
     12 O4'        -6.1430    2.6510    7.9710 O.3       1 ADP601      0.0000 
     13 C3'        -7.4240    3.5180    6.1620 C.3       1 ADP601      0.0000 
     14 O3'        -8.7050    4.0640    6.4910 O.3       1 ADP601      0.0000 
     15 C2'        -6.3350    4.5000    6.5340 C.3       1 ADP601      0.0000 
     16 O2'        -6.8200    5.8440    6.5240 O.3       1 ADP601      0.0000 
     17 C1'        -5.9040    4.0600    7.9220 C.3       1 ADP601      0.0000 
     18 N9         -4.4710    4.3790    8.1390 N.pl3     1 ADP601      0.0000 
     19 C8         -3.4400    3.9320    7.3980 C.2       1 ADP601      0.0000 
     20 N7         -2.2590    4.4200    7.8590 N.2       1 ADP601      0.0000 
     21 C5         -2.5310    5.2060    8.9170 C.ar      1 ADP601      0.0000 
     22 C6         -1.7470    6.0290    9.8690 C.ar      1 ADP601      0.0000 
     23 N6         -0.3980    6.1100    9.7750 N.pl3     1 ADP601      0.0000 
     24 N1         -2.4210    6.6960   10.8330 N.ar      1 ADP601      0.0000 
     25 C2         -3.7610    6.6220   10.9350 C.ar      1 ADP601      0.0000 
     26 N3         -4.5350    5.8960   10.1070 N.ar      1 ADP601      0.0000 
     27 C4         -3.9910    5.1790    9.0950 C.ar      1 ADP601      0.0000 
@<TRIPOS>BOND
     1    1    2 ar   
     2    1    3 ar   
     3    1    4 ar   
     4    1    8 1    
     5    5    6 ar   
     6    5    7 ar   
     7    5    8 1    
     8    5    9 1    
     9    9   10 1    
    10   10   11 1    
    11   11   12 1    
    12   11   13 1    
    13   12   17 1    
    14   13   14 1    
    15   13   15 1    
    16   15   16 1    
    17   15   17 1    
    18   17   18 1    
    19   18   19 1    
    20   18   27 1    
    21   19   20 2    
    22   20   21 1    
    23   21   22 ar   
    24   21   27 ar   
    25   22   23 1    
    26   22   24 ar   
    27   24   25 ar   
    28   25   26 ar   
    29   26   27 ar   
@<TRIPOS>SUBSTRUCTURE
     1 ADP601      1 GROUP   
@<TRIPOS>SET
ATOM$ORANGE STATIC     ATOMS   COLORGROUP SYSTEM 
20 10 10 11 11 13 13 15 15 17 17 19 19 21 21 22 22 25 \
25 27 27 

