#    Name: 6s5b_6_ADP
#    Modification time : Fri May 22 19:27:30 2020

@<TRIPOS>MOLECULE
6s5b_6_ADP
   27    29     1     0     1
SMALL
NO_CHARGES


@<TRIPOS>ATOM
      1 PB        -65.7900   -6.5390    0.0670 P.3       1 ADP601      0.0000 
      2 O1B       -65.9120   -5.3130   -0.8060 O.co2     1 ADP601      0.0000 
      3 O2B       -66.8670   -6.6650    1.1180 O.co2     1 ADP601      0.0000 
      4 O3B       -64.4010   -6.8070    0.5910 O.co2     1 ADP601      0.0000 
      5 PA        -67.4090   -8.6060   -0.9730 P.3       1 ADP601      0.0000 
      6 O1A       -67.6250   -9.1260   -2.3750 O.co2     1 ADP601      0.0000 
      7 O2A       -68.5000   -7.7880   -0.3250 O.co2     1 ADP601      0.0000 
      8 O3A       -66.0290   -7.7770   -0.9360 O.3       1 ADP601      0.0000 
      9 O5'       -67.0600   -9.8430   -0.0050 O.3       1 ADP601      0.0000 
     10 C5'       -68.0530  -10.4440    0.8220 C.3       1 ADP601      0.0000 
     11 C4'       -67.5920  -11.8470    1.1930 C.3       1 ADP601      0.0000 
     12 O4'       -68.1480  -12.2620    2.4430 O.3       1 ADP601      0.0000 
     13 C3'       -68.0240  -12.8640    0.1470 C.3       1 ADP601      0.0000 
     14 O3'       -66.8760  -13.3780   -0.5360 O.3       1 ADP601      0.0000 
     15 C2'       -68.7110  -13.9730    0.9190 C.3       1 ADP601      0.0000 
     16 O2'       -68.1750  -15.2450    0.5530 O.3       1 ADP601      0.0000 
     17 C1'       -68.4350  -13.6610    2.3820 C.3       1 ADP601      0.0000 
     18 N9        -69.6010  -14.0170    3.2300 N.pl3     1 ADP601      0.0000 
     19 C8        -70.8840  -13.6840    2.9960 C.2       1 ADP601      0.0000 
     20 N7        -71.7010  -14.1750    3.9630 N.2       1 ADP601      0.0000 
     21 C5        -70.9320  -14.8460    4.8400 C.ar      1 ADP601      0.0000 
     22 C6        -71.1530  -15.6070    6.0930 C.ar      1 ADP601      0.0000 
     23 N6        -72.3950  -15.7530    6.6130 N.pl3     1 ADP601      0.0000 
     24 N1        -70.0730  -16.1510    6.6970 N.ar      1 ADP601      0.0000 
     25 C2        -68.8340  -16.0140    6.1900 C.ar      1 ADP601      0.0000 
     26 N3        -68.5610  -15.3370    5.0590 N.ar      1 ADP601      0.0000 
     27 C4        -69.5490  -14.7430    4.3490 C.ar      1 ADP601      0.0000 
@<TRIPOS>BOND
     1    1    2 ar   
     2    1    3 ar   
     3    1    4 ar   
     4    1    8 1    
     5    5    6 ar   
     6    5    7 ar   
     7    5    8 1    
     8    5    9 1    
     9    9   10 1    
    10   10   11 1    
    11   11   12 1    
    12   11   13 1    
    13   12   17 1    
    14   13   14 1    
    15   13   15 1    
    16   15   16 1    
    17   15   17 1    
    18   17   18 1    
    19   18   19 1    
    20   18   27 1    
    21   19   20 2    
    22   20   21 1    
    23   21   22 ar   
    24   21   27 ar   
    25   22   23 1    
    26   22   24 ar   
    27   24   25 ar   
    28   25   26 ar   
    29   26   27 ar   
@<TRIPOS>SUBSTRUCTURE
     1 ADP601      1 GROUP   
@<TRIPOS>SET
ATOM$ORANGE STATIC     ATOMS   COLORGROUP SYSTEM 
20 10 10 11 11 13 13 15 15 17 17 19 19 21 21 22 22 25 \
25 27 27 

