#    Name: 6s5b_5_ADP
#    Modification time : Fri May 22 19:27:25 2020

@<TRIPOS>MOLECULE
6s5b_5_ADP
   27    29     1     0     1
SMALL
NO_CHARGES


@<TRIPOS>ATOM
      1 PB        -69.2020    1.1840   -4.3730 P.3       1 ADP601      0.0000 
      2 O1B       -68.8840    1.0650   -5.8440 O.co2     1 ADP601      0.0000 
      3 O2B       -68.2180    2.0230   -3.5930 O.co2     1 ADP601      0.0000 
      4 O3B       -69.5810   -0.1180   -3.7100 O.co2     1 ADP601      0.0000 
      5 PA        -71.9120    1.5000   -5.0060 P.3       1 ADP601      0.0000 
      6 O1A       -71.5930    0.2380   -5.7730 O.co2     1 ADP601      0.0000 
      7 O2A       -73.0020    1.4650   -3.9600 O.co2     1 ADP601      0.0000 
      8 O3A       -70.5550    2.0560   -4.3420 O.3       1 ADP601      0.0000 
      9 O5'       -72.2460    2.6510   -6.0760 O.3       1 ADP601      0.0000 
     10 C5'       -72.5270    2.3290   -7.4350 C.3       1 ADP601      0.0000 
     11 C4'       -73.2420    3.5180   -8.0600 C.3       1 ADP601      0.0000 
     12 O4'       -73.1870    3.4740   -9.4880 O.3       1 ADP601      0.0000 
     13 C3'       -74.7120    3.5270   -7.6660 C.3       1 ADP601      0.0000 
     14 O3'       -74.9890    4.6780   -6.8630 O.3       1 ADP601      0.0000 
     15 C2'       -75.4780    3.6060   -8.9710 C.3       1 ADP601      0.0000 
     16 O2'       -76.5030    4.5980   -8.9000 O.3       1 ADP601      0.0000 
     17 C1'       -74.4230    3.9750  -10.0010 C.3       1 ADP601      0.0000 
     18 N9        -74.7430    3.4060  -11.3340 N.pl3     1 ADP601      0.0000 
     19 C8        -74.9290    2.1060  -11.6290 C.2       1 ADP601      0.0000 
     20 N7        -75.2110    1.9430  -12.9490 N.2       1 ADP601      0.0000 
     21 C5        -75.2100    3.1640  -13.5180 C.ar      1 ADP601      0.0000 
     22 C6        -75.4310    3.7140  -14.8770 C.ar      1 ADP601      0.0000 
     23 N6        -75.7210    2.9030  -15.9240 N.pl3     1 ADP601      0.0000 
     24 N1        -75.3350    5.0530  -15.0370 N.ar      1 ADP601      0.0000 
     25 C2        -75.0490    5.8710  -14.0070 C.ar      1 ADP601      0.0000 
     26 N3        -74.8380    5.4410  -12.7500 N.ar      1 ADP601      0.0000 
     27 C4        -74.9050    4.1230  -12.4470 C.ar      1 ADP601      0.0000 
@<TRIPOS>BOND
     1    1    2 ar   
     2    1    3 ar   
     3    1    4 ar   
     4    1    8 1    
     5    5    6 ar   
     6    5    7 ar   
     7    5    8 1    
     8    5    9 1    
     9    9   10 1    
    10   10   11 1    
    11   11   12 1    
    12   11   13 1    
    13   12   17 1    
    14   13   14 1    
    15   13   15 1    
    16   15   16 1    
    17   15   17 1    
    18   17   18 1    
    19   18   19 1    
    20   18   27 1    
    21   19   20 2    
    22   20   21 1    
    23   21   22 ar   
    24   21   27 ar   
    25   22   23 1    
    26   22   24 ar   
    27   24   25 ar   
    28   25   26 ar   
    29   26   27 ar   
@<TRIPOS>SUBSTRUCTURE
     1 ADP601      1 GROUP   
@<TRIPOS>SET
ATOM$ORANGE STATIC     ATOMS   COLORGROUP SYSTEM 
20 10 10 11 11 13 13 15 15 17 17 19 19 21 21 22 22 25 \
25 27 27 

