#    Name: 6s5b_4_ADP
#    Modification time : Fri May 22 19:27:19 2020

@<TRIPOS>MOLECULE
6s5b_4_ADP
   27    29     1     0     1
SMALL
NO_CHARGES


@<TRIPOS>ATOM
      1 PB        -23.5020    5.7600   63.1990 P.3       1 ADP601      0.0000 
      2 O1B       -22.5420    6.4980   62.2970 O.co2     1 ADP601      0.0000 
      3 O2B       -22.8710    4.6700   64.0310 O.co2     1 ADP601      0.0000 
      4 O3B       -24.7840    5.3440   62.5200 O.co2     1 ADP601      0.0000 
      5 PA        -25.0590    7.9880   63.9880 P.3       1 ADP601      0.0000 
      6 O1A       -26.3180    7.3110   63.4970 O.co2     1 ADP601      0.0000 
      7 O2A       -25.1560    8.8980   65.1890 O.co2     1 ADP601      0.0000 
      8 O3A       -23.9350    6.8700   64.2870 O.3       1 ADP601      0.0000 
      9 O5'       -24.4400    8.8280   62.7630 O.3       1 ADP601      0.0000 
     10 C5'       -25.2940    9.3700   61.7580 C.3       1 ADP601      0.0000 
     11 C4'       -24.7850   10.7450   61.3490 C.3       1 ADP601      0.0000 
     12 O4'       -25.2480   11.0920   60.0430 O.3       1 ADP601      0.0000 
     13 C3'       -25.2900   11.8150   62.3040 C.3       1 ADP601      0.0000 
     14 O3'       -24.2060   12.3280   63.0820 O.3       1 ADP601      0.0000 
     15 C2'       -25.8680   12.9100   61.4300 C.3       1 ADP601      0.0000 
     16 O2'       -25.2350   14.1560   61.7250 O.3       1 ADP601      0.0000 
     17 C1'       -25.5840   12.4800   59.9980 C.3       1 ADP601      0.0000 
     18 N9        -26.7840   12.6970   59.1530 N.pl3     1 ADP601      0.0000 
     19 C8        -28.0240   12.2520   59.4260 C.2       1 ADP601      0.0000 
     20 N7        -28.9010   12.6210   58.4590 N.2       1 ADP601      0.0000 
     21 C5        -28.2160   13.3250   57.5390 C.ar      1 ADP601      0.0000 
     22 C6        -28.5330   14.0090   56.2630 C.ar      1 ADP601      0.0000 
     23 N6        -29.7930   14.0110   55.7660 N.pl3     1 ADP601      0.0000 
     24 N1        -27.5240   14.6290   55.6110 N.ar      1 ADP601      0.0000 
     25 C2        -26.2690   14.6330   56.0960 C.ar      1 ADP601      0.0000 
     26 N3        -25.9100   14.0350   57.2460 N.ar      1 ADP601      0.0000 
     27 C4        -26.8210   13.3770   58.0030 C.ar      1 ADP601      0.0000 
@<TRIPOS>BOND
     1    1    2 ar   
     2    1    3 ar   
     3    1    4 ar   
     4    1    8 1    
     5    5    6 ar   
     6    5    7 ar   
     7    5    8 1    
     8    5    9 1    
     9    9   10 1    
    10   10   11 1    
    11   11   12 1    
    12   11   13 1    
    13   12   17 1    
    14   13   14 1    
    15   13   15 1    
    16   15   16 1    
    17   15   17 1    
    18   17   18 1    
    19   18   19 1    
    20   18   27 1    
    21   19   20 2    
    22   20   21 1    
    23   21   22 ar   
    24   21   27 ar   
    25   22   23 1    
    26   22   24 ar   
    27   24   25 ar   
    28   25   26 ar   
    29   26   27 ar   
@<TRIPOS>SUBSTRUCTURE
     1 ADP601      1 GROUP   
@<TRIPOS>SET
ATOM$ORANGE STATIC     ATOMS   COLORGROUP SYSTEM 
20 10 10 11 11 13 13 15 15 17 17 19 19 21 21 22 22 25 \
25 27 27 

