#    Name: 6s5b_3_ADP
#    Modification time : Fri May 22 19:27:13 2020

@<TRIPOS>MOLECULE
6s5b_3_ADP
   27    29     1     0     1
SMALL
NO_CHARGES


@<TRIPOS>ATOM
      1 PB        -26.4780   -2.0440   67.8680 P.3       1 ADP601      0.0000 
      2 O1B       -27.0650   -1.9650   66.4790 O.co2     1 ADP601      0.0000 
      3 O2B       -25.2160   -1.2310   68.0100 O.co2     1 ADP601      0.0000 
      4 O3B       -26.3740   -3.4380   68.4400 O.co2     1 ADP601      0.0000 
      5 PA        -29.0280   -0.8800   68.4110 P.3       1 ADP601      0.0000 
      6 O1A       -29.5280   -1.8040   67.3260 O.co2     1 ADP601      0.0000 
      7 O2A       -29.0600    0.6170   68.2220 O.co2     1 ADP601      0.0000 
      8 O3A       -27.5280   -1.2960   68.8420 O.3       1 ADP601      0.0000 
      9 O5'       -29.8660   -1.2400   69.7390 O.3       1 ADP601      0.0000 
     10 C5'       -29.4890   -2.3940   70.4860 C.3       1 ADP601      0.0000 
     11 C4'       -30.6990   -3.1140   71.0690 C.3       1 ADP601      0.0000 
     12 O4'       -30.7340   -3.0350   72.4960 O.3       1 ADP601      0.0000 
     13 C3'       -32.0270   -2.5580   70.5760 C.3       1 ADP601      0.0000 
     14 O3'       -32.5860   -3.4590   69.6170 O.3       1 ADP601      0.0000 
     15 C2'       -32.9110   -2.4920   71.8080 C.3       1 ADP601      0.0000 
     16 O2'       -34.1480   -3.1710   71.5840 O.3       1 ADP601      0.0000 
     17 C1'       -32.0990   -3.1990   72.8810 C.3       1 ADP601      0.0000 
     18 N9        -32.3750   -2.6790   74.2450 N.pl3     1 ADP601      0.0000 
     19 C8        -32.5510   -1.3930   74.5990 C.2       1 ADP601      0.0000 
     20 N7        -32.7950   -1.2860   75.9320 N.2       1 ADP601      0.0000 
     21 C5        -32.7830   -2.5290   76.4490 C.ar      1 ADP601      0.0000 
     22 C6        -32.9680   -3.1350   77.7890 C.ar      1 ADP601      0.0000 
     23 N6        -33.2250   -2.3700   78.8770 N.pl3     1 ADP601      0.0000 
     24 N1        -32.8760   -4.4790   77.8900 N.ar      1 ADP601      0.0000 
     25 C2        -32.6230   -5.2530   76.8190 C.ar      1 ADP601      0.0000 
     26 N3        -32.4440   -4.7720   75.5760 N.ar      1 ADP601      0.0000 
     27 C4        -32.5130   -3.4430   75.3300 C.ar      1 ADP601      0.0000 
@<TRIPOS>BOND
     1    1    2 ar   
     2    1    3 ar   
     3    1    4 ar   
     4    1    8 1    
     5    5    6 ar   
     6    5    7 ar   
     7    5    8 1    
     8    5    9 1    
     9    9   10 1    
    10   10   11 1    
    11   11   12 1    
    12   11   13 1    
    13   12   17 1    
    14   13   14 1    
    15   13   15 1    
    16   15   16 1    
    17   15   17 1    
    18   17   18 1    
    19   18   19 1    
    20   18   27 1    
    21   19   20 2    
    22   20   21 1    
    23   21   22 ar   
    24   21   27 ar   
    25   22   23 1    
    26   22   24 ar   
    27   24   25 ar   
    28   25   26 ar   
    29   26   27 ar   
@<TRIPOS>SUBSTRUCTURE
     1 ADP601      1 GROUP   
@<TRIPOS>SET
ATOM$ORANGE STATIC     ATOMS   COLORGROUP SYSTEM 
20 10 10 11 11 13 13 15 15 17 17 19 19 21 21 22 22 25 \
25 27 27 

