#    Name: 6eg8_4_GDP_CAVITY_N1_6
#    Modification time : Fri May 22 19:24:40 2020

@<TRIPOS>MOLECULE
6eg8_4_GDP_CAVITY_N1_6
   16     0     3     0     0
SMALL
NO_CHARGES


@<TRIPOS>ATOM
      1 O         -23.2300   -8.8900  -84.2000 O.2       1 ALA2        0.0000 
      2 N         -20.5400   -5.2900  -84.0000 N.am      1 ALA2        0.0000 
      3 N         -21.6100   -5.7900  -83.0800 N.am      1 ALA2        0.0000 
      4 OD1       -19.7500   -5.6500  -88.1500 O.co2     2 ASP3        0.0000 
      5 OD1       -24.0400   -7.6500  -84.4600 O.co2     2 ASP3        0.0000 
      6 OD1       -23.0900   -5.2300  -84.4900 O.co2     2 ASP3        0.0000 
      7 CA        -20.0200   -7.3900  -86.9700 C.3       3 GLY6        0.0000 
      8 CA        -20.9500   -4.2300  -86.3400 C.3       3 GLY6        0.0000 
      9 CA        -22.0200   -4.7300  -85.4200 C.3       3 GLY6        0.0000 
     10 CA        -25.2300   -6.2300  -82.6500 C.3       3 GLY6        0.0000 
     11 CA        -26.3100   -6.7300  -81.7200 C.3       3 GLY6        0.0000 
     12 CA        -19.0700   -4.9700  -87.0000 C.3       3 GLY6        0.0000 
     13 CA        -20.1400   -5.4700  -86.0800 C.3       3 GLY6        0.0000 
     14 CA        -21.2200   -5.9700  -85.1500 C.3       3 GLY6        0.0000 
     15 CA        -22.2900   -6.4700  -84.2300 C.3       3 GLY6        0.0000 
     16 CA        -20.4100   -7.2100  -84.8900 C.3       3 GLY6        0.0000 
@<TRIPOS>BOND
@<TRIPOS>SUBSTRUCTURE
     1 ALA2        1 GROUP   
     2 ASP3        4 GROUP   
     3 GLY6        7 GROUP   
@<TRIPOS>SET

