#    Name: 6eg8_1_GDP
#    Modification time : Fri May 22 19:24:14 2020

@<TRIPOS>MOLECULE
6eg8_1_GDP
   28    30     1     0     1
SMALL
NO_CHARGES


@<TRIPOS>ATOM
      1 PB         25.8290  -42.3030  -88.1970 P.3       1 GDP401      0.0000 
      2 O1B        24.3230  -42.3590  -88.3040 O.co2     1 GDP401      0.0000 
      3 O2B        26.2330  -41.0400  -87.4740 O.co2     1 GDP401      0.0000 
      4 O3B        26.3230  -43.5120  -87.4380 O.co2     1 GDP401      0.0000 
      5 O3A        26.4700  -42.2970  -89.6730 O.3       1 GDP401      0.0000 
      6 PA         26.6170  -43.6720  -90.4940 P.3       1 GDP401      0.0000 
      7 O1A        27.9510  -44.3140  -90.1960 O.co2     1 GDP401      0.0000 
      8 O2A        25.4860  -44.6200  -90.1730 O.co2     1 GDP401      0.0000 
      9 O5'        26.5480  -43.1950  -92.0290 O.3       1 GDP401      0.0000 
     10 C5'        25.3860  -43.5030  -92.7940 C.3       1 GDP401      0.0000 
     11 C4'        25.6960  -43.4690  -94.2840 C.3       1 GDP401      0.0000 
     12 O4'        26.5170  -42.3480  -94.6160 O.3       1 GDP401      0.0000 
     13 C3'        26.4500  -44.7130  -94.7230 C.3       1 GDP401      0.0000 
     14 O3'        25.5830  -45.5550  -95.4870 O.3       1 GDP401      0.0000 
     15 C2'        27.5870  -44.2130  -95.5900 C.3       1 GDP401      0.0000 
     16 O2'        27.5180  -44.8040  -96.8890 O.3       1 GDP401      0.0000 
     17 C1'        27.3780  -42.7130  -95.6970 C.3       1 GDP401      0.0000 
     18 N9         28.6770  -42.0030  -95.6210 N.pl3     1 GDP401      0.0000 
     19 C8         29.3780  -41.7390  -94.5040 C.2       1 GDP401      0.0000 
     20 N7         30.5230  -41.0700  -94.7970 N.2       1 GDP401      0.0000 
     21 C5         30.5610  -40.8950  -96.1300 C.2       1 GDP401      0.0000 
     22 C6         31.4870  -40.2680  -97.1030 C.2       1 GDP401      0.0000 
     23 O6         32.5460  -39.7230  -96.7250 O.2       1 GDP401      0.0000 
     24 N1         31.1540  -40.3040  -98.4000 N.am      1 GDP401      0.0000 
     25 C2         30.0210  -40.8840  -98.8380 C.2       1 GDP401      0.0000 
     26 N2         29.7600  -40.8770 -100.1680 N.pl3     1 GDP401      0.0000 
     27 N3         29.1280  -41.4770  -98.0040 N.2       1 GDP401      0.0000 
     28 C4         29.3410  -41.5120  -96.6680 C.2       1 GDP401      0.0000 
@<TRIPOS>BOND
     1    1    2 ar   
     2    1    3 ar   
     3    1    4 ar   
     4    1    5 1    
     5    5    6 1    
     6    6    7 ar   
     7    6    8 ar   
     8    6    9 1    
     9    9   10 1    
    10   10   11 1    
    11   11   12 1    
    12   11   13 1    
    13   12   17 1    
    14   13   14 1    
    15   13   15 1    
    16   15   16 1    
    17   15   17 1    
    18   17   18 1    
    19   18   19 1    
    20   18   28 1    
    21   19   20 2    
    22   20   21 1    
    23   21   22 1    
    24   21   28 2    
    25   22   23 2    
    26   22   24 am   
    27   24   25 1    
    28   25   26 1    
    29   25   27 2    
    30   27   28 1    
@<TRIPOS>SUBSTRUCTURE
     1 GDP401      1 GROUP   
@<TRIPOS>SET
ATOM$ORANGE STATIC     ATOMS   COLORGROUP SYSTEM 
20 10 10 11 11 13 13 15 15 17 17 19 19 21 21 22 22 25 \
25 28 28 

