#    Name: 6eg8_3_GDP
#    Modification time : Fri May 22 19:24:30 2020

@<TRIPOS>MOLECULE
6eg8_3_GDP
   28    30     1     0     1
SMALL
NO_CHARGES


@<TRIPOS>ATOM
      1 PB          6.1430   28.3530    2.0070 P.3       1 GDP401      0.0000 
      2 O1B         4.8020   28.5160    1.3330 O.co2     1 GDP401      0.0000 
      3 O2B         6.7800   27.0530    1.5770 O.co2     1 GDP401      0.0000 
      4 O3B         7.0540   29.4950    1.6280 O.co2     1 GDP401      0.0000 
      5 O3A         5.9620   28.3470    3.6050 O.3       1 GDP401      0.0000 
      6 PA          4.8050   29.1900    4.3390 P.3       1 GDP401      0.0000 
      7 O1A         4.7030   30.5880    3.7800 O.co2     1 GDP401      0.0000 
      8 O2A         3.4770   28.4750    4.2520 O.co2     1 GDP401      0.0000 
      9 O5'         5.3310   29.2150    5.8580 O.3       1 GDP401      0.0000 
     10 C5'         5.2170   28.0280    6.6360 C.3       1 GDP401      0.0000 
     11 C4'         5.1090   28.3690    8.1130 C.3       1 GDP401      0.0000 
     12 O4'         6.2620   29.0820    8.5570 O.3       1 GDP401      0.0000 
     13 C3'         3.9180   29.2680    8.3930 C.3       1 GDP401      0.0000 
     14 O3'         2.8120   28.4910    8.8570 O.3       1 GDP401      0.0000 
     15 C2'         4.3920   30.2120    9.4780 C.3       1 GDP401      0.0000 
     16 O2'         3.7580   29.8720   10.7120 O.3       1 GDP401      0.0000 
     17 C1'         5.8880   29.9750    9.6080 C.3       1 GDP401      0.0000 
     18 N9          6.6140   31.2620    9.4870 N.pl3     1 GDP401      0.0000 
     19 C8          6.8730   31.9140    8.3390 C.2       1 GDP401      0.0000 
     20 N7          7.5570   33.0630    8.5750 N.2       1 GDP401      0.0000 
     21 C5          7.7450   33.1560    9.9040 C.2       1 GDP401      0.0000 
     22 C6          8.3910   34.1170   10.8270 C.2       1 GDP401      0.0000 
     23 O6          8.9420   35.1520   10.3920 O.2       1 GDP401      0.0000 
     24 N1          8.3680   33.8440   12.1380 N.am      1 GDP401      0.0000 
     25 C2          7.7820   32.7370   12.6330 C.2       1 GDP401      0.0000 
     26 N2          7.8020   32.5360   13.9720 N.pl3     1 GDP401      0.0000 
     27 N3          7.1700   31.8130   11.8460 N.2       1 GDP401      0.0000 
     28 C4          7.1220   31.9660   10.5010 C.2       1 GDP401      0.0000 
@<TRIPOS>BOND
     1    1    2 ar   
     2    1    3 ar   
     3    1    4 ar   
     4    1    5 1    
     5    5    6 1    
     6    6    7 ar   
     7    6    8 ar   
     8    6    9 1    
     9    9   10 1    
    10   10   11 1    
    11   11   12 1    
    12   11   13 1    
    13   12   17 1    
    14   13   14 1    
    15   13   15 1    
    16   15   16 1    
    17   15   17 1    
    18   17   18 1    
    19   18   19 1    
    20   18   28 1    
    21   19   20 2    
    22   20   21 1    
    23   21   22 1    
    24   21   28 2    
    25   22   23 2    
    26   22   24 am   
    27   24   25 1    
    28   25   26 1    
    29   25   27 2    
    30   27   28 1    
@<TRIPOS>SUBSTRUCTURE
     1 GDP401      1 GROUP   
@<TRIPOS>SET
ATOM$ORANGE STATIC     ATOMS   COLORGROUP SYSTEM 
20 10 10 11 11 13 13 15 15 17 17 19 19 21 21 22 22 25 \
25 28 28 

