#    Name: 6eg8_4_GDP_CAVITY_N1_8
#    Modification time : Fri May 22 19:24:40 2020

@<TRIPOS>MOLECULE
6eg8_4_GDP_CAVITY_N1_8
   52     0     5     0     0
SMALL
NO_CHARGES


@<TRIPOS>ATOM
      1 O         -23.2300   -8.8900  -84.2000 O.2       1 ALA2        0.0000 
      2 O         -26.4500  -10.3800  -81.4300 O.2       1 ALA2        0.0000 
      3 O         -20.2900   -9.1300  -85.7800 O.2       1 ALA2        0.0000 
      4 O         -21.3600   -9.6300  -84.8600 O.2       1 ALA2        0.0000 
      5 N         -24.4300   -7.4700  -82.3900 N.am      1 ALA2        0.0000 
      6 N         -25.5000   -7.9700  -81.4600 N.am      1 ALA2        0.0000 
      7 O         -21.4900   -7.7100  -83.9700 O.2       1 ALA2        0.0000 
      8 N         -22.5600   -8.2100  -83.0500 N.am      1 ALA2        0.0000 
      9 N         -23.6300   -8.7100  -82.1200 N.am      1 ALA2        0.0000 
     10 N         -24.7000   -9.2100  -81.2000 N.am      1 ALA2        0.0000 
     11 N         -24.5600   -5.5500  -81.4900 N.am      1 ALA2        0.0000 
     12 N         -25.6300   -6.0400  -80.5700 N.am      1 ALA2        0.0000 
     13 N         -19.4700   -4.7900  -84.9200 N.am      1 ALA2        0.0000 
     14 N         -20.5400   -5.2900  -84.0000 N.am      1 ALA2        0.0000 
     15 N         -21.6100   -5.7900  -83.0800 N.am      1 ALA2        0.0000 
     16 N         -22.6800   -6.2900  -82.1600 N.am      1 ALA2        0.0000 
     17 O         -18.6700   -6.0300  -84.6600 O.2       1 ALA2        0.0000 
     18 O         -19.7400   -6.5300  -83.7400 O.2       1 ALA2        0.0000 
     19 N         -21.8800   -7.5300  -81.8900 N.am      1 ALA2        0.0000 
     20 OD1       -19.7500   -5.6500  -88.1500 O.co2     2 ASP3        0.0000 
     21 OD1       -24.0400   -7.6500  -84.4600 O.co2     2 ASP3        0.0000 
     22 OD1       -23.0900   -5.2300  -84.4900 O.co2     2 ASP3        0.0000 
     23 NZ        -18.6800   -5.1600  -89.0800 N.4       3 LYS4        0.0000 
     24 NZ        -18.9500   -6.9000  -87.8900 N.4       3 LYS4        0.0000 
     25 CA        -17.8700   -6.4000  -88.8100 C.3       4 GLY6        0.0000 
     26 CA        -20.0200   -7.3900  -86.9700 C.3       4 GLY6        0.0000 
     27 CA        -22.4300  -10.1300  -83.9400 C.3       4 GLY6        0.0000 
     28 CA        -20.9500   -4.2300  -86.3400 C.3       4 GLY6        0.0000 
     29 CA        -22.0200   -4.7300  -85.4200 C.3       4 GLY6        0.0000 
     30 CA        -25.2300   -6.2300  -82.6500 C.3       4 GLY6        0.0000 
     31 CA        -26.3100   -6.7300  -81.7200 C.3       4 GLY6        0.0000 
     32 CA        -18.0000   -4.4800  -87.9200 C.3       4 GLY6        0.0000 
     33 CA        -19.0700   -4.9700  -87.0000 C.3       4 GLY6        0.0000 
     34 CA        -20.1400   -5.4700  -86.0800 C.3       4 GLY6        0.0000 
     35 CA        -21.2200   -5.9700  -85.1500 C.3       4 GLY6        0.0000 
     36 CA        -22.2900   -6.4700  -84.2300 C.3       4 GLY6        0.0000 
     37 CA        -26.5800   -8.4600  -80.5400 C.3       4 GLY6        0.0000 
     38 CA        -20.4100   -7.2100  -84.8900 C.3       4 GLY6        0.0000 
     39 CA        -18.5400   -7.9500  -85.5500 C.3       4 GLY6        0.0000 
     40 CA        -19.6100   -8.4500  -84.6300 C.3       4 GLY6        0.0000 
     41 CA        -20.6800   -8.9500  -83.7100 C.3       4 GLY6        0.0000 
     42 CA        -21.7600   -9.4500  -82.7800 C.3       4 GLY6        0.0000 
     43 CA        -18.4000   -4.2900  -85.8500 C.3       4 GLY6        0.0000 
     44 CA        -20.8100   -7.0300  -82.8200 C.3       4 GLY6        0.0000 
     45 DU        -16.9300   -3.9800  -88.8500 H         5 CUB7        0.0000 
     46 DU        -17.2000   -5.7200  -87.6600 H         5 CUB7        0.0000 
     47 DU        -18.2700   -6.2100  -86.7400 H         5 CUB7        0.0000 
     48 DU        -19.3400   -6.7100  -85.8200 H         5 CUB7        0.0000 
     49 DU        -23.7600   -6.7900  -81.2300 H         5 CUB7        0.0000 
     50 DU        -24.8300   -7.2800  -80.3100 H         5 CUB7        0.0000 
     51 DU        -17.5900   -5.5300  -85.5900 H         5 CUB7        0.0000 
     52 DU        -22.9500   -8.0300  -80.9700 H         5 CUB7        0.0000 
@<TRIPOS>BOND
@<TRIPOS>SUBSTRUCTURE
     1 ALA2        1 GROUP   
     2 ASP3       20 GROUP   
     3 LYS4       23 GROUP   
     4 GLY6       25 GROUP   
     5 CUB7       45 GROUP   
@<TRIPOS>SET

