#    Name: 6eg8_4_GDP
#    Modification time : Fri May 22 19:24:38 2020

@<TRIPOS>MOLECULE
6eg8_4_GDP
   28    30     1     0     1
SMALL
NO_CHARGES


@<TRIPOS>ATOM
      1 PB        -26.2380   -4.2730  -88.1250 P.3       1 GDP401      0.0000 
      2 O1B       -24.7620   -4.4340  -87.8500 O.co2     1 GDP401      0.0000 
      3 O2B       -26.9800   -5.4410  -87.5210 O.co2     1 GDP401      0.0000 
      4 O3B       -26.7430   -2.9840  -87.5220 O.co2     1 GDP401      0.0000 
      5 O3A       -26.4730   -4.2710  -89.7160 O.3       1 GDP401      0.0000 
      6 PA        -26.9540   -2.9420  -90.4840 P.3       1 GDP401      0.0000 
      7 O1A       -26.0310   -1.7880  -90.1760 O.co2     1 GDP401      0.0000 
      8 O2A       -28.3820   -2.5970  -90.1340 O.co2     1 GDP401      0.0000 
      9 O5'       -26.8310   -3.3690  -92.0300 O.3       1 GDP401      0.0000 
     10 C5'       -25.7680   -2.8280  -92.8070 C.3       1 GDP401      0.0000 
     11 C4'       -26.0930   -2.8870  -94.2910 C.3       1 GDP401      0.0000 
     12 O4'       -26.8300   -4.0670  -94.6090 O.3       1 GDP401      0.0000 
     13 C3'       -26.9470   -1.7090  -94.7290 C.3       1 GDP401      0.0000 
     14 O3'       -26.1300   -0.7310  -95.3780 O.3       1 GDP401      0.0000 
     15 C2'       -27.9530   -2.2870  -95.7040 C.3       1 GDP401      0.0000 
     16 O2'       -27.7110   -1.7680  -97.0130 O.3       1 GDP401      0.0000 
     17 C1'       -27.7070   -3.7870  -95.7020 C.3       1 GDP401      0.0000 
     18 N9        -28.9850   -4.5270  -95.5550 N.pl3     1 GDP401      0.0000 
     19 C8        -29.6450   -4.7520  -94.4050 C.2       1 GDP401      0.0000 
     20 N7        -30.7790   -5.4670  -94.6260 N.2       1 GDP401      0.0000 
     21 C5        -30.8510   -5.7130  -95.9470 C.2       1 GDP401      0.0000 
     22 C6        -31.7880   -6.4160  -96.8550 C.2       1 GDP401      0.0000 
     23 O6        -32.8190   -6.9710  -96.4170 O.2       1 GDP401      0.0000 
     24 N1        -31.4940   -6.4390  -98.1610 N.am      1 GDP401      0.0000 
     25 C2        -30.3910   -5.8500  -98.6590 C.2       1 GDP401      0.0000 
     26 N2        -30.1660   -5.9150  -99.9910 N.pl3     1 GDP401      0.0000 
     27 N3        -29.4910   -5.1910  -97.8880 N.2       1 GDP401      0.0000 
     28 C4        -29.6660   -5.0920  -96.5510 C.2       1 GDP401      0.0000 
@<TRIPOS>BOND
     1    1    2 ar   
     2    1    3 ar   
     3    1    4 ar   
     4    1    5 1    
     5    5    6 1    
     6    6    7 ar   
     7    6    8 ar   
     8    6    9 1    
     9    9   10 1    
    10   10   11 1    
    11   11   12 1    
    12   11   13 1    
    13   12   17 1    
    14   13   14 1    
    15   13   15 1    
    16   15   16 1    
    17   15   17 1    
    18   17   18 1    
    19   18   19 1    
    20   18   28 1    
    21   19   20 2    
    22   20   21 1    
    23   21   22 1    
    24   21   28 2    
    25   22   23 2    
    26   22   24 am   
    27   24   25 1    
    28   25   26 1    
    29   25   27 2    
    30   27   28 1    
@<TRIPOS>SUBSTRUCTURE
     1 GDP401      1 GROUP   
@<TRIPOS>SET
ATOM$ORANGE STATIC     ATOMS   COLORGROUP SYSTEM 
20 10 10 11 11 13 13 15 15 17 17 19 19 21 21 22 22 25 \
25 28 28 

