#    Name: 6eg8_4_GDP_CAVITY_N1_4
#    Modification time : Fri May 22 19:24:40 2020

@<TRIPOS>MOLECULE
6eg8_4_GDP_CAVITY_N1_4
    2     0     2     0     0
SMALL
NO_CHARGES


@<TRIPOS>ATOM
      1 OD1       -23.0900   -5.2300  -84.4900 O.co2     1 ASP3        0.0000 
      2 CA        -22.0200   -4.7300  -85.4200 C.3       2 GLY6        0.0000 
@<TRIPOS>BOND
@<TRIPOS>SUBSTRUCTURE
     1 ASP3        1 GROUP   
     2 GLY6        2 GROUP   
@<TRIPOS>SET

