#    Name: 6eg8_2_GDP
#    Modification time : Fri May 22 19:24:21 2020

@<TRIPOS>MOLECULE
6eg8_2_GDP
   28    30     1     0     1
SMALL
NO_CHARGES


@<TRIPOS>ATOM
      1 PB         44.2870  -23.5650    2.1580 P.3       1 GDP401      0.0000 
      2 O1B        43.3020  -24.5010    1.5030 O.co2     1 GDP401      0.0000 
      3 O2B        43.8480  -22.1430    1.9020 O.co2     1 GDP401      0.0000 
      4 O3B        45.6680  -23.7910    1.5890 O.co2     1 GDP401      0.0000 
      5 O3A        44.2930  -23.8350    3.7440 O.3       1 GDP401      0.0000 
      6 PA         45.5990  -24.3970    4.4990 P.3       1 GDP401      0.0000 
      7 O1A        45.8840  -25.8290    4.1130 O.co2     1 GDP401      0.0000 
      8 O2A        46.8010  -23.5210    4.2360 O.co2     1 GDP401      0.0000 
      9 O5'        45.1600  -24.2980    6.0410 O.3       1 GDP401      0.0000 
     10 C5'        45.5370  -23.1510    6.7940 C.3       1 GDP401      0.0000 
     11 C4'        45.5230  -23.4830    8.2760 C.3       1 GDP401      0.0000 
     12 O4'        44.3830  -24.2850    8.5910 O.3       1 GDP401      0.0000 
     13 C3'        46.7550  -24.2830    8.6630 C.3       1 GDP401      0.0000 
     14 O3'        47.5710  -23.5180    9.5540 O.3       1 GDP401      0.0000 
     15 C2'        46.2310  -25.5130    9.3730 C.3       1 GDP401      0.0000 
     16 O2'        46.8750  -25.6800   10.6350 O.3       1 GDP401      0.0000 
     17 C1'        44.7540  -25.2380    9.5870 C.3       1 GDP401      0.0000 
     18 N9         43.9770  -26.4960    9.4780 N.pl3     1 GDP401      0.0000 
     19 C8         43.7260  -27.1990    8.3570 C.2       1 GDP401      0.0000 
     20 N7         42.9790  -28.3000    8.6330 N.2       1 GDP401      0.0000 
     21 C5         42.7410  -28.3070    9.9590 C.2       1 GDP401      0.0000 
     22 C6         42.0200  -29.1780   10.9170 C.2       1 GDP401      0.0000 
     23 O6         41.4310  -30.2110   10.5310 O.2       1 GDP401      0.0000 
     24 N1         42.0170  -28.8250   12.2090 N.am      1 GDP401      0.0000 
     25 C2         42.6410  -27.7180   12.6570 C.2       1 GDP401      0.0000 
     26 N2         42.5900  -27.4320   13.9800 N.pl3     1 GDP401      0.0000 
     27 N3         43.3200  -26.8760   11.8370 N.2       1 GDP401      0.0000 
     28 C4         43.4020  -27.1160   10.5080 C.2       1 GDP401      0.0000 
@<TRIPOS>BOND
     1    1    2 ar   
     2    1    3 ar   
     3    1    4 ar   
     4    1    5 1    
     5    5    6 1    
     6    6    7 ar   
     7    6    8 ar   
     8    6    9 1    
     9    9   10 1    
    10   10   11 1    
    11   11   12 1    
    12   11   13 1    
    13   12   17 1    
    14   13   14 1    
    15   13   15 1    
    16   15   16 1    
    17   15   17 1    
    18   17   18 1    
    19   18   19 1    
    20   18   28 1    
    21   19   20 2    
    22   20   21 1    
    23   21   22 1    
    24   21   28 2    
    25   22   23 2    
    26   22   24 am   
    27   24   25 1    
    28   25   26 1    
    29   25   27 2    
    30   27   28 1    
@<TRIPOS>SUBSTRUCTURE
     1 GDP401      1 GROUP   
@<TRIPOS>SET
ATOM$ORANGE STATIC     ATOMS   COLORGROUP SYSTEM 
20 10 10 11 11 13 13 15 15 17 17 19 19 21 21 22 22 25 \
25 28 28 

