#    Name: 6h9s_1_NAD
#    Modification time : Fri May 22 19:28:07 2020

@<TRIPOS>MOLECULE
6h9s_1_NAD
   70    74     1     0     1
SMALL
NO_CHARGES


@<TRIPOS>ATOM
      1 PA         20.7050   29.4090  -22.5310 P.3       1 NAD401      0.0000 
      2 O1A        21.8190   29.2860  -23.5500 O.co2     1 NAD401      0.0000 
      3 O2A        20.9590   30.5080  -21.5240 O.co2     1 NAD401      0.0000 
      4 O5B        20.4710   28.0110  -21.7060 O.3       1 NAD401      0.0000 
      5 C5B        20.3280   26.8200  -22.4280 C.3       1 NAD401      0.0000 
      6 C4B        20.8360   25.6510  -21.5400 C.3       1 NAD401      0.0000 
      7 O4B        20.5900   24.5000  -22.1360 O.3       1 NAD401      0.0000 
      8 C3B        22.3800   25.7360  -21.3470 C.3       1 NAD401      0.0000 
      9 O3B        22.6690   25.7960  -20.0130 O.3       1 NAD401      0.0000 
     10 C2B        22.8960   24.4400  -22.0370 C.3       1 NAD401      0.0000 
     11 O2B        24.1020   23.9530  -21.3210 O.3       1 NAD401      0.0000 
     12 C1B        21.9050   23.6040  -21.8840 C.3       1 NAD401      0.0000 
     13 N9A        21.8690   22.5110  -22.8130 N.pl3     1 NAD401      0.0000 
     14 C8A        22.2760   22.5510  -24.0910 C.2       1 NAD401      0.0000 
     15 N7A        22.1150   21.3370  -24.6100 N.2       1 NAD401      0.0000 
     16 C5A        21.5840   20.5550  -23.6500 C.ar      1 NAD401      0.0000 
     17 C6A        21.2300   19.2350  -23.6580 C.ar      1 NAD401      0.0000 
     18 N6A        21.2690   18.1930  -24.6650 N.pl3     1 NAD401      0.0000 
     19 N1A        20.7210   18.6720  -22.5680 N.ar      1 NAD401      0.0000 
     20 C2A        20.5760   19.4070  -21.4380 C.ar      1 NAD401      0.0000 
     21 N3A        20.9310   20.7200  -21.4260 N.ar      1 NAD401      0.0000 
     22 C4A        21.4360   21.2770  -22.5420 C.ar      1 NAD401      0.0000 
     23 O3         19.3530   29.7070  -23.3940 O.3       1 NAD401      0.0000 
     24 PN         17.9740   30.3220  -22.7350 P.3       1 NAD401      0.0000 
     25 O1N        17.9710   31.8180  -22.8650 O.co2     1 NAD401      0.0000 
     26 O2N        17.8690   29.8540  -21.3030 O.co2     1 NAD401      0.0000 
     27 O5D        16.8120   29.6880  -23.6860 O.3       1 NAD401      0.0000 
     28 C5D        16.6200   28.3000  -23.5890 C.3       1 NAD401      0.0000 
     29 C4D        15.5130   27.8910  -24.6000 C.3       1 NAD401      0.0000 
     30 O4D        14.3740   28.4780  -24.3020 O.3       1 NAD401      0.0000 
     31 C3D        15.8820   28.3690  -26.0220 C.3       1 NAD401      0.0000 
     32 O3D        15.5300   27.4180  -26.9400 O.3       1 NAD401      0.0000 
     33 C2D        15.0020   29.6320  -26.2230 C.3       1 NAD401      0.0000 
     34 O2D        14.7720   29.8750  -27.6710 O.3       1 NAD401      0.0000 
     35 C1D        13.8960   29.2300  -25.6470 C.3       1 NAD401      0.0000 
     36 N1N        12.9680   30.2440  -25.2530 N.pl3     1 NAD401      0.0000 
     37 C2N        11.6630   29.9750  -25.4670 C.ar      1 NAD401      0.0000 
     38 C3N        10.7030   30.9060  -25.1400 C.ar      1 NAD401      0.0000 
     39 C7N         9.2480   30.5490  -25.4200 C.2       1 NAD401      0.0000 
     40 O7N         8.9260   29.4170  -25.6080 O.2       1 NAD401      0.0000 
     41 N7N         8.2700   31.5920  -25.4530 N.am      1 NAD401      0.0000 
     42 C4N        11.0650   32.0940  -24.5840 C.ar      1 NAD401      0.0000 
     43 C5N        12.3800   32.3530  -24.3570 C.ar      1 NAD401      0.0000 
     44 C6N        13.3450   31.4130  -24.6890 C.ar      1 NAD401      0.0000 
     45 H51A       20.8520   26.8650  -23.2430 H         1 NAD401      0.0000 
     46 H52A       19.3940   26.6810  -22.6520 H         1 NAD401      0.0000 
     47 H4B        20.4100   25.6670  -20.6680 H         1 NAD401      0.0000 
     48 H3B        22.7780   26.5080  -21.7790 H         1 NAD401      0.0000 
     49 HO3A       23.4620   25.5200  -19.8820 H         1 NAD401      0.0000 
     50 H2B        23.0960   24.5760  -22.9770 H         1 NAD401      0.0000 
     51 HO2A       24.5640   24.6170  -21.0600 H         1 NAD401      0.0000 
     52 H1B        21.9830   23.2390  -20.9890 H         1 NAD401      0.0000 
     53 H8A        22.6110   23.2960  -24.5360 H         1 NAD401      0.0000 
     54 H61A       21.7080   18.3160  -25.3940 H         1 NAD401      0.0000 
     55 H62A       20.8530   17.4520  -24.5330 H         1 NAD401      0.0000 
     56 H2A        20.2320   19.0120  -20.6700 H         1 NAD401      0.0000 
     57 H51N       17.4460   27.8390  -23.8020 H         1 NAD401      0.0000 
     58 H52N       16.3430   28.0700  -22.6880 H         1 NAD401      0.0000 
     59 H4D        15.3920   26.9290  -24.5980 H         1 NAD401      0.0000 
     60 H3D        16.8280   28.5750  -26.0900 H         1 NAD401      0.0000 
     61 HO3N       15.3480   27.7930  -27.6810 H         1 NAD401      0.0000 
     62 H2D        15.3770   30.4350  -25.8280 H         1 NAD401      0.0000 
     63 HO2N       15.4740   29.6750  -28.1070 H         1 NAD401      0.0000 
     64 H1D        13.4630   28.6630  -26.3040 H         1 NAD401      0.0000 
     65 H2N        11.4120   29.1600  -25.8370 H         1 NAD401      0.0000 
     66 H71N        7.4460   31.4040  -25.6120 H         1 NAD401      0.0000 
     67 H72N        8.5060   32.4070  -25.3140 H         1 NAD401      0.0000 
     68 H4N        10.4180   32.7240  -24.3620 H         1 NAD401      0.0000 
     69 H5N        12.6340   33.1640  -23.9780 H         1 NAD401      0.0000 
     70 H6N        14.2440   31.5860  -24.5240 H         1 NAD401      0.0000 
@<TRIPOS>BOND
     1    1    2 ar   
     2    1    3 ar   
     3    1    4 1    
     4    1   23 1    
     5    4    5 1    
     6    5    6 1    
     7    5   45 1    
     8    5   46 1    
     9    6    7 1    
    10    6    8 1    
    11    6   47 1    
    12    7   12 1    
    13    8    9 1    
    14    8   10 1    
    15    8   48 1    
    16    9   49 1    
    17   10   11 1    
    18   10   12 1    
    19   10   50 1    
    20   12   52 1    
    21   11   51 1    
    22   12   13 1    
    23   13   14 1    
    24   13   22 1    
    25   14   15 2    
    26   14   53 1    
    27   15   16 1    
    28   16   17 ar   
    29   16   22 ar   
    30   17   18 1    
    31   17   19 ar   
    32   18   54 1    
    33   18   55 1    
    34   19   20 ar   
    35   20   21 ar   
    36   20   56 1    
    37   21   22 ar   
    38   23   24 1    
    39   24   25 ar   
    40   24   26 ar   
    41   24   27 1    
    42   27   28 1    
    43   28   29 1    
    44   28   57 1    
    45   28   58 1    
    46   29   30 1    
    47   29   31 1    
    48   29   59 1    
    49   30   35 1    
    50   31   32 1    
    51   31   33 1    
    52   31   60 1    
    53   32   61 1    
    54   33   34 1    
    55   33   35 1    
    56   33   62 1    
    57   35   64 1    
    58   34   63 1    
    59   35   36 1    
    60   36   37 ar   
    61   36   44 ar   
    62   37   38 ar   
    63   37   65 1    
    64   38   39 1    
    65   38   42 ar   
    66   39   40 2    
    67   39   41 am   
    68   41   66 1    
    69   41   67 1    
    70   42   43 ar   
    71   42   68 1    
    72   43   44 ar   
    73   43   69 1    
    74   44   70 1    
@<TRIPOS>SUBSTRUCTURE
     1 NAD401      1 GROUP   
@<TRIPOS>SET
ATOM$ORANGE STATIC     ATOMS   COLORGROUP SYSTEM 
42 5 5 6 6 8 8 10 10 12 12 14 14 16 16 17 17 20 \
20 22 22 28 28 29 29 31 31 33 33 35 35 37 37 38 38 39 \
39 42 42 43 43 44 44 

