#    Name: 6h9s_1_NAD_CAVITY_N1_6
#    Modification time : Fri May 22 19:28:10 2020

@<TRIPOS>MOLECULE
6h9s_1_NAD_CAVITY_N1_6
   99     0     6     0     0
SMALL
NO_CHARGES


@<TRIPOS>ATOM
      1 OG          8.7500   33.2000  -31.0800 O.3       1 SER1        0.0000 
      2 N           9.7300   31.3900  -30.5500 N.am      2 ALA2        0.0000 
      3 O          11.2700   31.8200  -31.9400 O.2       2 ALA2        0.0000 
      4 O          10.4900   32.1100  -29.4800 O.2       2 ALA2        0.0000 
      5 O          10.7700   33.2300  -30.4300 O.2       2 ALA2        0.0000 
      6 O          12.0300   32.5400  -30.8700 O.2       2 ALA2        0.0000 
      7 O          10.6800   30.5900  -26.4900 O.2       2 ALA2        0.0000 
      8 O          11.2500   32.8300  -28.4100 O.2       2 ALA2        0.0000 
      9 O          15.0300   30.7700  -29.7000 O.2       2 ALA2        0.0000 
     10 O          11.5300   33.9500  -29.3600 O.2       2 ALA2        0.0000 
     11 O          12.7900   33.2700  -29.7900 O.2       2 ALA2        0.0000 
     12 N          13.4000   27.7000  -24.3700 N.am      2 ALA2        0.0000 
     13 N          14.6600   27.0100  -24.8000 N.am      2 ALA2        0.0000 
     14 N          12.4200   29.5100  -24.9000 N.am      2 ALA2        0.0000 
     15 N          13.6800   28.8200  -25.3300 N.am      2 ALA2        0.0000 
     16 O          14.9400   28.1300  -25.7600 O.2       2 ALA2        0.0000 
     17 N          16.2000   27.4400  -26.1900 N.am      2 ALA2        0.0000 
     18 O          11.4400   31.3100  -25.4200 O.2       2 ALA2        0.0000 
     19 O          12.7000   30.6300  -25.8500 O.2       2 ALA2        0.0000 
     20 O          13.9600   29.9400  -26.2800 O.2       2 ALA2        0.0000 
     21 O          15.2300   29.2500  -26.7100 O.2       2 ALA2        0.0000 
     22 O          11.7200   32.4300  -26.3800 O.2       2 ALA2        0.0000 
     23 O          14.2500   31.0600  -27.2400 O.2       2 ALA2        0.0000 
     24 O          15.5100   30.3700  -27.6700 O.2       2 ALA2        0.0000 
     25 O          12.0100   33.5600  -27.3300 O.2       2 ALA2        0.0000 
     26 O          13.2700   32.8700  -27.7600 O.2       2 ALA2        0.0000 
     27 O          14.5300   32.1800  -28.2000 O.2       2 ALA2        0.0000 
     28 O          15.7900   31.4900  -28.6300 O.2       2 ALA2        0.0000 
     29 N          15.4200   27.7300  -23.7300 N.am      2 ALA2        0.0000 
     30 N          16.6800   27.0500  -24.1600 N.am      2 ALA2        0.0000 
     31 N          16.9600   28.1700  -25.1200 N.am      2 ALA2        0.0000 
     32 N          18.5100   28.6000  -26.5000 N.am      2 ALA2        0.0000 
     33 O          15.0100   31.7800  -26.1700 O.2       2 ALA2        0.0000 
     34 N          18.7900   29.7200  -27.4600 N.am      2 ALA2        0.0000 
     35 N          16.1800   28.4600  -22.6600 N.am      2 ALA2        0.0000 
     36 N          17.4400   27.7700  -23.0900 N.am      2 ALA2        0.0000 
     37 O          18.7000   27.0800  -23.5200 O.2       2 ALA2        0.0000 
     38 N          18.9800   28.2000  -24.4800 N.am      2 ALA2        0.0000 
     39 N          19.2700   29.3200  -25.4300 N.am      2 ALA2        0.0000 
     40 N          20.5300   28.6300  -25.8600 N.am      2 ALA2        0.0000 
     41 N          19.4600   27.8000  -22.4500 N.am      2 ALA2        0.0000 
     42 N          20.7200   27.1200  -22.8800 N.am      2 ALA2        0.0000 
     43 N          21.0100   28.2400  -23.8300 N.am      2 ALA2        0.0000 
     44 O          20.5100   29.6500  -22.3300 O.2       2 ALA2        0.0000 
     45 OD1        18.0100   30.0100  -25.0000 O.co2     3 ASP3        0.0000 
     46 OD1        18.2900   31.1300  -25.9600 O.co2     3 ASP3        0.0000 
     47 OD1        19.5500   30.4400  -26.3900 O.co2     3 ASP3        0.0000 
     48 OD1        17.3100   32.9400  -26.4800 O.co2     3 ASP3        0.0000 
     49 OD1        18.7700   30.7300  -23.9300 O.co2     3 ASP3        0.0000 
     50 OD1        20.0300   30.0400  -24.3600 O.co2     3 ASP3        0.0000 
     51 OD1        21.5700   30.4800  -25.7500 O.co2     3 ASP3        0.0000 
     52 CZ          8.2500   34.6100  -29.5700 C.ar      4 PHE5        0.0000 
     53 CZ          9.5100   33.9200  -30.0000 C.ar      4 PHE5        0.0000 
     54 CZ          9.4200   31.2800  -26.0600 C.ar      4 PHE5        0.0000 
     55 CZ          9.7000   32.4000  -27.0200 C.ar      4 PHE5        0.0000 
     56 CZ          9.9900   33.5200  -27.9700 C.ar      4 PHE5        0.0000 
     57 CA         12.5400   31.1300  -32.3700 C.3       5 GLY6        0.0000 
     58 CA         13.8000   30.4500  -32.8000 C.3       5 GLY6        0.0000 
     59 CA         14.5600   31.1700  -31.7300 C.3       5 GLY6        0.0000 
     60 CA          9.0100   35.3300  -28.5000 C.3       5 GLY6        0.0000 
     61 CA         10.2700   34.6400  -28.9300 C.3       5 GLY6        0.0000 
     62 CA          9.9000   30.8800  -24.0300 C.3       5 GLY6        0.0000 
     63 CA         11.1600   30.1900  -24.4600 C.3       5 GLY6        0.0000 
     64 CA         10.1800   32.0000  -24.9900 C.3       5 GLY6        0.0000 
     65 CA         10.4600   33.1200  -25.9500 C.3       5 GLY6        0.0000 
     66 CA         10.7500   34.2400  -26.9000 C.3       5 GLY6        0.0000 
     67 CA         11.0300   35.3600  -27.8600 C.3       5 GLY6        0.0000 
     68 CA         12.2900   34.6800  -28.2900 C.3       5 GLY6        0.0000 
     69 CA         14.1600   28.4200  -23.3000 C.3       5 GLY6        0.0000 
     70 CA         11.9200   30.9200  -23.3900 C.3       5 GLY6        0.0000 
     71 CA         13.1800   30.2300  -23.8200 C.3       5 GLY6        0.0000 
     72 CA         14.4400   29.5400  -24.2500 C.3       5 GLY6        0.0000 
     73 CA         18.2200   27.4800  -25.5500 C.3       5 GLY6        0.0000 
     74 CA         10.9400   32.7200  -23.9200 C.3       5 GLY6        0.0000 
     75 CA         12.2000   32.0400  -24.3500 C.3       5 GLY6        0.0000 
     76 CA         13.4600   31.3500  -24.7800 C.3       5 GLY6        0.0000 
     77 CA         11.2200   33.8400  -24.8700 C.3       5 GLY6        0.0000 
     78 CA         12.4900   33.1600  -25.3000 C.3       5 GLY6        0.0000 
     79 CA         13.7500   32.4700  -25.7400 C.3       5 GLY6        0.0000 
     80 CA         14.0300   33.5900  -26.6900 C.3       5 GLY6        0.0000 
     81 CA         13.0500   35.4000  -27.2200 C.3       5 GLY6        0.0000 
     82 CA         15.5800   34.0200  -28.0800 C.3       5 GLY6        0.0000 
     83 CA         16.4600   29.5800  -23.6100 C.3       5 GLY6        0.0000 
     84 CA         16.3400   34.7500  -27.0100 C.3       5 GLY6        0.0000 
     85 CA         17.2200   30.3000  -22.5400 C.3       5 GLY6        0.0000 
     86 DU         15.7000   28.8500  -24.6900 H         6 CUB7        0.0000 
     87 DU         14.7200   30.6600  -25.2100 H         6 CUB7        0.0000 
     88 DU         15.9900   29.9700  -25.6400 H         6 CUB7        0.0000 
     89 DU         17.2500   29.2900  -26.0700 H         6 CUB7        0.0000 
     90 DU         16.2700   31.0900  -26.6000 H         6 CUB7        0.0000 
     91 DU         17.5300   30.4100  -27.0300 H         6 CUB7        0.0000 
     92 DU         15.2900   32.9000  -27.1200 H         6 CUB7        0.0000 
     93 DU         16.5500   32.2200  -27.5500 H         6 CUB7        0.0000 
     94 DU         17.8200   31.5300  -27.9800 H         6 CUB7        0.0000 
     95 DU         17.7200   28.8900  -24.0400 H         6 CUB7        0.0000 
     96 DU         16.7500   30.7000  -24.5700 H         6 CUB7        0.0000 
     97 DU         18.4800   29.6100  -22.9700 H         6 CUB7        0.0000 
     98 DU         19.7500   28.9200  -23.4000 H         6 CUB7        0.0000 
     99 DU         21.7700   28.9600  -22.7600 H         6 CUB7        0.0000 
@<TRIPOS>BOND
@<TRIPOS>SUBSTRUCTURE
     1 SER1        1 GROUP   
     2 ALA2        2 GROUP   
     3 ASP3       45 GROUP   
     4 PHE5       52 GROUP   
     5 GLY6       57 GROUP   
     6 CUB7       86 GROUP   
@<TRIPOS>SET

