#    Name: 6h9s_2_NAD
#    Modification time : Fri May 22 19:28:13 2020

@<TRIPOS>MOLECULE
6h9s_2_NAD
   70    74     1     0     1
SMALL
NO_CHARGES


@<TRIPOS>ATOM
      1 PA         27.4590   42.7650  -13.9070 P.3       1 NAD401      0.0000 
      2 O1A        28.7410   42.9540  -14.6670 O.co2     1 NAD401      0.0000 
      3 O2A        26.6090   41.6380  -14.4480 O.co2     1 NAD401      0.0000 
      4 O5B        26.5710   44.1400  -13.9240 O.3       1 NAD401      0.0000 
      5 C5B        27.1860   45.3240  -13.5050 C.3       1 NAD401      0.0000 
      6 C4B        26.4810   46.5030  -14.2350 C.3       1 NAD401      0.0000 
      7 O4B        26.9840   47.6240  -13.7890 O.3       1 NAD401      0.0000 
      8 C3B        26.7540   46.4240  -15.7580 C.3       1 NAD401      0.0000 
      9 O3B        25.5750   46.3670  -16.4440 O.3       1 NAD401      0.0000 
     10 C2B        27.5300   47.7530  -16.0190 C.3       1 NAD401      0.0000 
     11 O2B        27.1810   48.2630  -17.3760 O.3       1 NAD401      0.0000 
     12 C1B        27.0850   48.5590  -15.0830 C.3       1 NAD401      0.0000 
     13 N9A        27.9600   49.6530  -14.7800 N.pl3     1 NAD401      0.0000 
     14 C8A        29.2970   49.5950  -14.7600 C.2       1 NAD401      0.0000 
     15 N7A        29.7610   50.8140  -14.4730 N.2       1 NAD401      0.0000 
     16 C5A        28.7070   51.6170  -14.3040 C.ar      1 NAD401      0.0000 
     17 C6A        28.6270   52.9490  -13.9960 C.ar      1 NAD401      0.0000 
     18 N6A        29.5950   53.9970  -13.7330 N.pl3     1 NAD401      0.0000 
     19 N1A        27.4490   53.5310  -13.8720 N.ar      1 NAD401      0.0000 
     20 C2A        26.3180   52.8130  -14.0580 C.ar      1 NAD401      0.0000 
     21 N3A        26.3930   51.4940  -14.3610 N.ar      1 NAD401      0.0000 
     22 C4A        27.5930   50.9040  -14.4840 C.ar      1 NAD401      0.0000 
     23 O3         27.8940   42.4640  -12.3470 O.3       1 NAD401      0.0000 
     24 PN         26.9030   41.8450  -11.2020 P.3       1 NAD401      0.0000 
     25 O1N        27.0650   40.3420  -11.1750 O.co2     1 NAD401      0.0000 
     26 O2N        25.4900   42.2510  -11.4720 O.co2     1 NAD401      0.0000 
     27 O5D        27.4690   42.4910   -9.8080 O.3       1 NAD401      0.0000 
     28 C5D        27.3010   43.8690   -9.6000 C.3       1 NAD401      0.0000 
     29 C4D        27.9980   44.2320   -8.2550 C.3       1 NAD401      0.0000 
     30 O4D        27.3630   43.6430   -7.2540 O.3       1 NAD401      0.0000 
     31 C3D        29.4450   43.7010   -8.2360 C.3       1 NAD401      0.0000 
     32 O3D        30.2720   44.5900   -7.6230 O.3       1 NAD401      0.0000 
     33 C2D        29.3380   42.4290   -7.3510 C.3       1 NAD401      0.0000 
     34 O2D        30.6580   42.1530   -6.7290 O.3       1 NAD401      0.0000 
     35 C1D        28.4910   42.8440   -6.4340 C.3       1 NAD401      0.0000 
     36 N1N        27.8390   41.8310   -5.6610 N.pl3     1 NAD401      0.0000 
     37 C2N        27.7030   42.0840   -4.3420 C.ar      1 NAD401      0.0000 
     38 C3N        27.1190   41.1570   -3.5160 C.ar      1 NAD401      0.0000 
     39 C7N        26.9930   41.4910   -2.0300 C.2       1 NAD401      0.0000 
     40 O7N        27.0600   42.6200   -1.6270 O.2       1 NAD401      0.0000 
     41 N7N        26.7450   40.4100   -1.1210 N.am      1 NAD401      0.0000 
     42 C4N        26.6600   39.9860   -4.0390 C.ar      1 NAD401      0.0000 
     43 C5N        26.7780   39.7440   -5.3650 C.ar      1 NAD401      0.0000 
     44 C6N        27.3740   40.6800   -6.1880 C.ar      1 NAD401      0.0000 
     45 H51A       28.1280   45.3070  -13.7370 H         1 NAD401      0.0000 
     46 H52A       27.0910   45.4240  -12.5450 H         1 NAD401      0.0000 
     47 H4B        25.5200   46.5020  -14.1030 H         1 NAD401      0.0000 
     48 H3B        27.2890   45.6550  -16.0100 H         1 NAD401      0.0000 
     49 HO3A       25.6700   46.7380  -17.2030 H         1 NAD401      0.0000 
     50 H2B        28.4900   47.6420  -15.9420 H         1 NAD401      0.0000 
     51 HO2A       27.7160   47.9340  -17.9480 H         1 NAD401      0.0000 
     52 H1B        26.2340   48.9190  -15.3780 H         1 NAD401      0.0000 
     53 H8A        29.8130   48.8380  -14.9200 H         1 NAD401      0.0000 
     54 H61A       30.4270   53.8010  -13.6430 H         1 NAD401      0.0000 
     55 H62A       29.3360   54.8150  -13.6670 H         1 NAD401      0.0000 
     56 H2A        25.4880   53.2250  -13.9790 H         1 NAD401      0.0000 
     57 H51N       27.7070   44.3650  -10.3270 H         1 NAD401      0.0000 
     58 H52N       26.3560   44.0830   -9.5500 H         1 NAD401      0.0000 
     59 H4D        28.0140   45.1920   -8.1170 H         1 NAD401      0.0000 
     60 H3D        29.7590   43.5100   -9.1340 H         1 NAD401      0.0000 
     61 HO3N       29.9200   44.8500   -6.8950 H         1 NAD401      0.0000 
     62 H2D        29.0290   41.6440   -7.8300 H         1 NAD401      0.0000 
     63 HO2N       31.1620   42.8310   -6.8210 H         1 NAD401      0.0000 
     64 H1D        29.0100   43.3910   -5.8230 H         1 NAD401      0.0000 
     65 H2N        28.0060   42.8910   -3.9920 H         1 NAD401      0.0000 
     66 H71N       26.6610   40.5670   -0.2790 H         1 NAD401      0.0000 
     67 H72N       26.6810   39.6050   -1.4170 H         1 NAD401      0.0000 
     68 H4N        26.2650   39.3520   -3.4840 H         1 NAD401      0.0000 
     69 H5N        26.4570   38.9470   -5.7220 H         1 NAD401      0.0000 
     70 H6N        27.4530   40.5180   -7.1010 H         1 NAD401      0.0000 
@<TRIPOS>BOND
     1    1    2 ar   
     2    1    3 ar   
     3    1    4 1    
     4    1   23 1    
     5    4    5 1    
     6    5    6 1    
     7    5   45 1    
     8    5   46 1    
     9    6    7 1    
    10    6    8 1    
    11    6   47 1    
    12    7   12 1    
    13    8    9 1    
    14    8   10 1    
    15    8   48 1    
    16    9   49 1    
    17   10   11 1    
    18   10   12 1    
    19   10   50 1    
    20   12   52 1    
    21   11   51 1    
    22   12   13 1    
    23   13   14 1    
    24   13   22 1    
    25   14   15 2    
    26   14   53 1    
    27   15   16 1    
    28   16   17 ar   
    29   16   22 ar   
    30   17   18 1    
    31   17   19 ar   
    32   18   54 1    
    33   18   55 1    
    34   19   20 ar   
    35   20   21 ar   
    36   20   56 1    
    37   21   22 ar   
    38   23   24 1    
    39   24   25 ar   
    40   24   26 ar   
    41   24   27 1    
    42   27   28 1    
    43   28   29 1    
    44   28   57 1    
    45   28   58 1    
    46   29   30 1    
    47   29   31 1    
    48   29   59 1    
    49   30   35 1    
    50   31   32 1    
    51   31   33 1    
    52   31   60 1    
    53   32   61 1    
    54   33   34 1    
    55   33   35 1    
    56   33   62 1    
    57   35   64 1    
    58   34   63 1    
    59   35   36 1    
    60   36   37 ar   
    61   36   44 ar   
    62   37   38 ar   
    63   37   65 1    
    64   38   39 1    
    65   38   42 ar   
    66   39   40 2    
    67   39   41 am   
    68   41   66 1    
    69   41   67 1    
    70   42   43 ar   
    71   42   68 1    
    72   43   44 ar   
    73   43   69 1    
    74   44   70 1    
@<TRIPOS>SUBSTRUCTURE
     1 NAD401      1 GROUP   
@<TRIPOS>SET
ATOM$ORANGE STATIC     ATOMS   COLORGROUP SYSTEM 
42 5 5 6 6 8 8 10 10 12 12 14 14 16 16 17 17 20 \
20 22 22 28 28 29 29 31 31 33 33 35 35 37 37 38 38 39 \
39 42 42 43 43 44 44 

