#    Name: 6ulz_2_KIV
#    Modification time : Fri May 22 19:26:53 2020

@<TRIPOS>MOLECULE
6ulz_2_KIV
    8     7     1     0     0
SMALL
NO_CHARGES


@<TRIPOS>ATOM
      1 O1        189.8700  -11.8870   21.7410 O.co2     1 KIV705      0.0000 
      2 C1        191.0660  -12.1710   21.8020 C.2       1 KIV705      0.0000 
      3 O2        191.7090  -12.5420   20.8190 O.co2     1 KIV705      0.0000 
      4 C2        191.6640  -12.0440   22.9520 C.2       1 KIV705      0.0000 
      5 C3        193.0270  -12.6310   23.2770 C.3       1 KIV705      0.0000 
      6 C4        193.2120  -13.9870   22.5880 C.3       1 KIV705      0.0000 
      7 C5        194.1250  -11.6410   22.8820 C.3       1 KIV705      0.0000 
      8 O3        191.1010  -11.3760   23.8190 O.2       1 KIV705      0.0000 
@<TRIPOS>BOND
     1    1    2 ar   
     2    2    3 ar   
     3    2    4 1    
     4    4    5 1    
     5    4    8 2    
     6    5    6 1    
     7    5    7 1    
@<TRIPOS>SUBSTRUCTURE
     1 KIV705      1 GROUP   
@<TRIPOS>SET

