#    Name: 6ulz_1_APC
#    Modification time : Fri May 22 19:26:47 2020

@<TRIPOS>MOLECULE
6ulz_1_APC
   45    47     1     0     0
SMALL
NO_CHARGES


@<TRIPOS>ATOM
      1 PG        184.9240  -16.4460   19.4920 P.3       1 APC704      0.0000 
      2 O1G       184.8580  -15.2500   20.4090 O.co2     1 APC704      0.0000 
      3 O2G       183.6730  -17.2910   19.5570 O.co2     1 APC704      0.0000 
      4 O3G       186.1780  -17.2600   19.6970 O.co2     1 APC704      0.0000 
      5 PB        186.0950  -15.2320   16.9970 P.3       1 APC704      0.0000 
      6 O1B       187.2970  -16.1290   16.8910 O.co2     1 APC704      0.0000 
      7 O2B       185.4200  -14.9150   15.6910 O.co2     1 APC704      0.0000 
      8 O3B       185.0070  -15.8810   17.9710 O.3       1 APC704      0.0000 
      9 PA        188.0590  -13.6970   18.8420 P.3       1 APC704      0.0000 
     10 O1A       189.2800  -13.2400   18.0910 O.co2     1 APC704      0.0000 
     11 O2A       188.1200  -15.0930   19.3970 O.co2     1 APC704      0.0000 
     12 C3A       186.6520  -13.6290   17.6790 C.3       1 APC704      0.0000 
     13 O5'       187.8120  -12.6860   20.0460 O.3       1 APC704      0.0000 
     14 C5'       186.6640  -12.7680   20.9330 C.3       1 APC704      0.0000 
     15 C4'       185.5530  -11.8890   20.4050 C.3       1 APC704      0.0000 
     16 O4'       184.6460  -11.5520   21.4810 O.3       1 APC704      0.0000 
     17 C3'       186.0160  -10.5620   19.7900 C.3       1 APC704      0.0000 
     18 O3'       185.9430  -10.5990   18.3670 O.3       1 APC704      0.0000 
     19 C2'       185.0780   -9.5080   20.3740 C.3       1 APC704      0.0000 
     20 O2'       183.9830   -9.2420   19.5210 O.3       1 APC704      0.0000 
     21 C1'       184.5910  -10.1580   21.6640 C.3       1 APC704      0.0000 
     22 N9        185.3590   -9.8060   22.8550 N.pl3     1 APC704      0.0000 
     23 C8        186.7190   -9.6540   22.9740 C.2       1 APC704      0.0000 
     24 N7        187.1000   -9.3230   24.1840 N.2       1 APC704      0.0000 
     25 C5        185.9190   -9.2390   24.9080 C.ar      1 APC704      0.0000 
     26 C6        185.6470   -8.9210   26.2540 C.ar      1 APC704      0.0000 
     27 N6        186.5820   -8.6120   27.1470 N.pl3     1 APC704      0.0000 
     28 N1        184.3520   -8.9240   26.6470 N.ar      1 APC704      0.0000 
     29 C2        183.4120   -9.2340   25.7470 C.ar      1 APC704      0.0000 
     30 N3        183.5470   -9.5510   24.4630 N.ar      1 APC704      0.0000 
     31 C4        184.8390   -9.5340   24.0980 C.ar      1 APC704      0.0000 
     32 H3A1      185.8950  -13.2100   18.1350 H         1 APC704      0.0000 
     33 H3A2      186.8960  -13.0460   16.9330 H         1 APC704      0.0000 
     34 H5'1      186.9200  -12.4690   21.8410 H         1 APC704      0.0000 
     35 H5'2      186.3490  -13.7030   20.9890 H         1 APC704      0.0000 
     36 H4'       185.0360  -12.3920   19.7400 H         1 APC704      0.0000 
     37 H3'       186.9410  -10.3730   20.0950 H         1 APC704      0.0000 
     38 HO3'      185.1470  -10.7860   18.1400 H         1 APC704      0.0000 
     39 H2'       185.5980   -8.6870   20.5810 H         1 APC704      0.0000 
     40 HO2'      183.5220   -9.9500   19.4330 H         1 APC704      0.0000 
     41 H1'       183.6530   -9.8910   21.7940 H         1 APC704      0.0000 
     42 H8        187.3170   -9.7760   22.2570 H         1 APC704      0.0000 
     43 HN61      186.3500   -8.4230   27.9720 H         1 APC704      0.0000 
     44 HN62      187.4260   -8.6000   26.9080 H         1 APC704      0.0000 
     45 H2        182.5240   -9.2250   26.0700 H         1 APC704      0.0000 
@<TRIPOS>BOND
     1    1    2 ar   
     2    1    3 ar   
     3    1    4 ar   
     4    1    8 1    
     5    5    6 ar   
     6    5    7 ar   
     7    5    8 1    
     8    5   12 1    
     9    9   10 ar   
    10    9   11 ar   
    11    9   12 1    
    12    9   13 1    
    13   12   32 1    
    14   12   33 1    
    15   13   14 1    
    16   14   15 1    
    17   14   34 1    
    18   14   35 1    
    19   15   16 1    
    20   15   17 1    
    21   15   36 1    
    22   16   21 1    
    23   17   18 1    
    24   17   19 1    
    25   17   37 1    
    26   18   38 1    
    27   19   20 1    
    28   19   21 1    
    29   19   39 1    
    30   20   40 1    
    31   21   22 1    
    32   21   41 1    
    33   22   23 1    
    34   22   31 1    
    35   23   24 2    
    36   24   25 1    
    37   23   42 1    
    38   25   26 ar   
    39   25   31 ar   
    40   26   27 1    
    41   26   28 ar   
    42   28   29 ar   
    43   27   43 1    
    44   27   44 1    
    45   29   30 ar   
    46   30   31 ar   
    47   29   45 1    
@<TRIPOS>SUBSTRUCTURE
     1 APC704      1 GROUP   
@<TRIPOS>SET

