#    Name: 6ulz_2_KIV_CAVITY_N1_4
#    Modification time : Fri May 22 19:26:54 2020

@<TRIPOS>MOLECULE
6ulz_2_KIV_CAVITY_N1_4
   49     0     6     0     0
SMALL
NO_CHARGES


@<TRIPOS>ATOM
      1 OG        190.1700  -13.6300   17.4000 O.3       1 SER1        0.0000 
      2 OG        189.5800  -13.7300   18.7800 O.3       1 SER1        0.0000 
      3 OG        190.8600  -14.3000   19.2900 O.3       1 SER1        0.0000 
      4 OG        190.9700  -15.0700   22.5500 O.3       1 SER1        0.0000 
      5 OG        190.3800  -15.1700   23.9300 O.3       1 SER1        0.0000 
      6 OG        192.2600  -15.6500   23.0600 O.3       1 SER1        0.0000 
      7 OG        191.4600  -13.6900   22.8600 O.3       1 SER1        0.0000 
      8 OG        192.7500  -14.2600   23.3800 O.3       1 SER1        0.0000 
      9 OG        191.9500  -12.3100   23.1700 O.3       1 SER1        0.0000 
     10 OG        193.2400  -12.8800   23.6900 O.3       1 SER1        0.0000 
     11 N         187.9000  -15.3100   21.2100 N.am      2 ALA2        0.0000 
     12 N         186.9000  -11.3000   19.4400 N.am      2 ALA2        0.0000 
     13 N         186.3100  -11.4000   20.8100 N.am      2 ALA2        0.0000 
     14 N         188.1900  -11.8700   19.9500 N.am      2 ALA2        0.0000 
     15 N         187.5900  -11.9700   21.3200 N.am      2 ALA2        0.0000 
     16 N         189.4700  -12.4500   20.4600 N.am      2 ALA2        0.0000 
     17 N         186.8000  -10.0200   21.1200 N.am      2 ALA2        0.0000 
     18 N         191.2500  -11.6300   21.2900 N.am      2 ALA2        0.0000 
     19 N         190.6600  -11.7300   22.6600 N.am      2 ALA2        0.0000 
     20 O         190.0700  -11.8300   24.0400 O.2       2 ALA2        0.0000 
     21 N         192.4400  -10.9200   23.4900 N.am      2 ALA2        0.0000 
     22 N         194.3200  -11.4000   22.6300 N.am      2 ALA2        0.0000 
     23 NZ        191.6600  -16.2600   19.4900 N.4       3 LYS4        0.0000 
     24 NZ        192.1500  -14.8700   19.8000 N.4       3 LYS4        0.0000 
     25 NZ        191.5600  -14.9700   21.1800 N.4       3 LYS4        0.0000 
     26 NZ        192.8500  -15.5500   21.6900 N.4       3 LYS4        0.0000 
     27 NZ        191.3600  -12.9200   19.6000 N.4       3 LYS4        0.0000 
     28 NZ        190.7600  -13.0200   20.9800 N.4       3 LYS4        0.0000 
     29 NZ        192.0500  -13.5900   21.4900 N.4       3 LYS4        0.0000 
     30 NZ        192.5400  -12.2100   21.8000 N.4       3 LYS4        0.0000 
     31 NZ        193.8300  -12.7800   22.3100 N.4       3 LYS4        0.0000 
     32 CZ        192.3600  -16.9300   21.3800 C.ar      4 PHE5        0.0000 
     33 CZ        191.7700  -17.0300   22.7500 C.ar      4 PHE5        0.0000 
     34 CZ        193.0500  -17.6000   23.2700 C.ar      4 PHE5        0.0000 
     35 CA        188.3900  -13.9300   21.5200 C.3       5 GLY6        0.0000 
     36 CA        189.6800  -14.5000   22.0400 C.3       5 GLY6        0.0000 
     37 CA        189.0900  -14.6000   23.4100 C.3       5 GLY6        0.0000 
     38 CA        188.7800  -11.7700   18.5700 C.3       5 GLY6        0.0000 
     39 CA        190.0700  -12.3500   19.0900 C.3       5 GLY6        0.0000 
     40 CA        188.8800  -12.5500   21.8400 C.3       5 GLY6        0.0000 
     41 CA        190.1700  -13.1200   22.3500 C.3       5 GLY6        0.0000 
     42 CA        187.4900  -10.6900   23.0100 C.3       5 GLY6        0.0000 
     43 CA        193.7300  -11.5000   24.0000 C.3       5 GLY6        0.0000 
     44 DU        190.3700  -15.6800   18.9800 H         6 CUB7        0.0000 
     45 DU        191.0700  -16.3600   20.8700 H         6 CUB7        0.0000 
     46 DU        190.4800  -16.4600   22.2400 H         6 CUB7        0.0000 
     47 DU        187.7000  -13.2600   19.6400 H         6 CUB7        0.0000 
     48 DU        188.9800  -13.8300   20.1500 H         6 CUB7        0.0000 
     49 DU        190.2700  -14.4000   20.6600 H         6 CUB7        0.0000 
@<TRIPOS>BOND
@<TRIPOS>SUBSTRUCTURE
     1 SER1        1 GROUP   
     2 ALA2       11 GROUP   
     3 LYS4       23 GROUP   
     4 PHE5       32 GROUP   
     5 GLY6       35 GROUP   
     6 CUB7       44 GROUP   
@<TRIPOS>SET

