#    Name: 6ulz_2_KIV_CAVITY_N1_6
#    Modification time : Fri May 22 19:26:54 2020

@<TRIPOS>MOLECULE
6ulz_2_KIV_CAVITY_N1_6
  100     0     6     0     0
SMALL
NO_CHARGES


@<TRIPOS>ATOM
      1 OG        190.4800  -16.9700   17.2900 O.3       1 SER1        0.0000 
      2 OG        189.6800  -15.0100   17.0900 O.3       1 SER1        0.0000 
      3 OG        190.9700  -15.5800   17.6000 O.3       1 SER1        0.0000 
      4 OG        192.8500  -16.0600   16.7400 O.3       1 SER1        0.0000 
      5 OG        192.2500  -16.1600   18.1200 O.3       1 SER1        0.0000 
      6 OG        189.4700  -12.9600   15.5100 O.3       1 SER1        0.0000 
      7 OG        190.1700  -13.6300   17.4000 O.3       1 SER1        0.0000 
      8 OG        189.5800  -13.7300   18.7800 O.3       1 SER1        0.0000 
      9 OG        190.8600  -14.3000   19.2900 O.3       1 SER1        0.0000 
     10 OG        190.9700  -15.0700   22.5500 O.3       1 SER1        0.0000 
     11 OG        190.3800  -15.1700   23.9300 O.3       1 SER1        0.0000 
     12 OG        192.2600  -15.6500   23.0600 O.3       1 SER1        0.0000 
     13 OG        191.4600  -13.6900   22.8600 O.3       1 SER1        0.0000 
     14 OG        192.7500  -14.2600   23.3800 O.3       1 SER1        0.0000 
     15 OG        191.9500  -12.3100   23.1700 O.3       1 SER1        0.0000 
     16 OG        193.2400  -12.8800   23.6900 O.3       1 SER1        0.0000 
     17 N         187.9000  -15.3100   21.2100 N.am      2 ALA2        0.0000 
     18 N         183.9400  -12.3100   21.3600 N.am      2 ALA2        0.0000 
     19 N         185.8200  -12.7800   20.5000 N.am      2 ALA2        0.0000 
     20 O         188.8800  -13.0600   16.8900 O.2       2 ALA2        0.0000 
     21 N         184.4300  -10.9300   21.6700 N.am      2 ALA2        0.0000 
     22 N         186.9000  -11.3000   19.4400 N.am      2 ALA2        0.0000 
     23 N         186.3100  -11.4000   20.8100 N.am      2 ALA2        0.0000 
     24 N         185.7100  -11.5000   22.1800 N.am      2 ALA2        0.0000 
     25 O         189.3700  -11.6700   17.2000 O.2       2 ALA2        0.0000 
     26 N         188.1900  -11.8700   19.9500 N.am      2 ALA2        0.0000 
     27 N         187.5900  -11.9700   21.3200 N.am      2 ALA2        0.0000 
     28 N         189.4700  -12.4500   20.4600 N.am      2 ALA2        0.0000 
     29 N         186.8000  -10.0200   21.1200 N.am      2 ALA2        0.0000 
     30 N         186.2000  -10.1200   22.5000 N.am      2 ALA2        0.0000 
     31 N         191.2500  -11.6300   21.2900 N.am      2 ALA2        0.0000 
     32 N         190.6600  -11.7300   22.6600 N.am      2 ALA2        0.0000 
     33 O         190.0700  -11.8300   24.0400 O.2       2 ALA2        0.0000 
     34 O         187.3900   -9.4100   24.7000 O.2       2 ALA2        0.0000 
     35 O         186.8000   -9.5100   26.0700 O.2       2 ALA2        0.0000 
     36 N         192.4400  -10.9200   23.4900 N.am      2 ALA2        0.0000 
     37 N         194.3200  -11.4000   22.6300 N.am      2 ALA2        0.0000 
     38 NZ        191.6600  -16.2600   19.4900 N.4       3 LYS4        0.0000 
     39 NZ        192.1500  -14.8700   19.8000 N.4       3 LYS4        0.0000 
     40 NZ        191.5600  -14.9700   21.1800 N.4       3 LYS4        0.0000 
     41 NZ        192.8500  -15.5500   21.6900 N.4       3 LYS4        0.0000 
     42 NZ        191.3600  -12.9200   19.6000 N.4       3 LYS4        0.0000 
     43 NZ        190.7600  -13.0200   20.9800 N.4       3 LYS4        0.0000 
     44 NZ        192.0500  -13.5900   21.4900 N.4       3 LYS4        0.0000 
     45 NZ        192.5400  -12.2100   21.8000 N.4       3 LYS4        0.0000 
     46 NZ        193.8300  -12.7800   22.3100 N.4       3 LYS4        0.0000 
     47 CZ        191.7600  -17.5400   17.8000 C.ar      4 PHE5        0.0000 
     48 CZ        191.1700  -17.6400   19.1800 C.ar      4 PHE5        0.0000 
     49 CZ        190.5800  -17.7400   20.5500 C.ar      4 PHE5        0.0000 
     50 CZ        189.9900  -17.8400   21.9300 C.ar      4 PHE5        0.0000 
     51 CZ        191.2800  -18.4100   22.4400 C.ar      4 PHE5        0.0000 
     52 CZ        192.3600  -16.9300   21.3800 C.ar      4 PHE5        0.0000 
     53 CZ        191.7700  -17.0300   22.7500 C.ar      4 PHE5        0.0000 
     54 CZ        193.0500  -17.6000   23.2700 C.ar      4 PHE5        0.0000 
     55 CZ        185.5100   -9.4500   20.6100 C.ar      4 PHE5        0.0000 
     56 CZ        184.9200   -9.5500   21.9800 C.ar      4 PHE5        0.0000 
     57 CZ        186.7000   -8.7300   22.8100 C.ar      4 PHE5        0.0000 
     58 CZ        186.1000   -8.8300   24.1800 C.ar      4 PHE5        0.0000 
     59 CA        190.6800  -18.5100   23.8200 C.3       5 GLY6        0.0000 
     60 CA        191.9700  -19.0800   24.3300 C.3       5 GLY6        0.0000 
     61 CA        188.3900  -14.4400   16.5800 C.3       5 GLY6        0.0000 
     62 CA        190.2700  -14.9100   15.7100 C.3       5 GLY6        0.0000 
     63 CA        188.6000  -15.9800   23.1000 C.3       5 GLY6        0.0000 
     64 CA        191.1700  -17.1300   24.1300 C.3       5 GLY6        0.0000 
     65 CA        192.4600  -17.7000   24.6400 C.3       5 GLY6        0.0000 
     66 CA        187.5900  -12.4800   16.3700 C.3       5 GLY6        0.0000 
     67 CA        188.3900  -13.9300   21.5200 C.3       5 GLY6        0.0000 
     68 CA        189.6800  -14.5000   22.0400 C.3       5 GLY6        0.0000 
     69 CA        189.0900  -14.6000   23.4100 C.3       5 GLY6        0.0000 
     70 CA        186.2000  -10.6300   17.5500 C.3       5 GLY6        0.0000 
     71 CA        187.4900  -11.2000   18.0600 C.3       5 GLY6        0.0000 
     72 CA        188.7800  -11.7700   18.5700 C.3       5 GLY6        0.0000 
     73 CA        190.0700  -12.3500   19.0900 C.3       5 GLY6        0.0000 
     74 CA        188.8800  -12.5500   21.8400 C.3       5 GLY6        0.0000 
     75 CA        190.1700  -13.1200   22.3500 C.3       5 GLY6        0.0000 
     76 CA        186.6900   -9.2500   17.8600 C.3       5 GLY6        0.0000 
     77 CA        186.1000   -9.3500   19.2300 C.3       5 GLY6        0.0000 
     78 CA        185.6100  -10.2200   23.8700 C.3       5 GLY6        0.0000 
     79 CA        187.4900  -10.6900   23.0100 C.3       5 GLY6        0.0000 
     80 CA        193.7300  -11.5000   24.0000 C.3       5 GLY6        0.0000 
     81 DU        188.6000  -16.4900   18.1500 H         6 CUB7        0.0000 
     82 DU        189.8800  -17.0700   18.6700 H         6 CUB7        0.0000 
     83 DU        189.2900  -17.1700   20.0400 H         6 CUB7        0.0000 
     84 DU        186.5100  -13.9700   17.4400 H         6 CUB7        0.0000 
     85 DU        187.8000  -14.5400   17.9500 H         6 CUB7        0.0000 
     86 DU        189.0900  -15.1100   18.4600 H         6 CUB7        0.0000 
     87 DU        190.3700  -15.6800   18.9800 H         6 CUB7        0.0000 
     88 DU        189.1900  -15.8800   21.7300 H         6 CUB7        0.0000 
     89 DU        191.0700  -16.3600   20.8700 H         6 CUB7        0.0000 
     90 DU        190.4800  -16.4600   22.2400 H         6 CUB7        0.0000 
     91 DU        189.8900  -16.5600   23.6100 H         6 CUB7        0.0000 
     92 DU        184.5300  -12.2100   19.9800 H         6 CUB7        0.0000 
     93 DU        187.0000  -12.5800   17.7500 H         6 CUB7        0.0000 
     94 DU        186.4100  -12.6800   19.1200 H         6 CUB7        0.0000 
     95 DU        188.2900  -13.1600   18.2600 H         6 CUB7        0.0000 
     96 DU        187.7000  -13.2600   19.6400 H         6 CUB7        0.0000 
     97 DU        188.9800  -13.8300   20.1500 H         6 CUB7        0.0000 
     98 DU        190.2700  -14.4000   20.6600 H         6 CUB7        0.0000 
     99 DU        185.6100  -10.7300   18.9200 H         6 CUB7        0.0000 
    100 DU        185.0200  -10.8300   20.3000 H         6 CUB7        0.0000 
@<TRIPOS>BOND
@<TRIPOS>SUBSTRUCTURE
     1 SER1        1 GROUP   
     2 ALA2       17 GROUP   
     3 LYS4       38 GROUP   
     4 PHE5       47 GROUP   
     5 GLY6       59 GROUP   
     6 CUB7       81 GROUP   
@<TRIPOS>SET

