#    Name: 6oju_4_UMP_CAVITY_N1_ALL
#    Modification time : Fri May 22 19:31:50 2020

@<TRIPOS>MOLECULE
6oju_4_UMP_CAVITY_N1_ALL
   75     0     7     0     0
SMALL
NO_CHARGES


@<TRIPOS>ATOM
      1 OG        226.8900  -67.5500   79.2000 O.3       1 SER1        0.0000 
      2 OG        229.3000  -67.0000   79.9900 O.3       1 SER1        0.0000 
      3 OG        228.8200  -67.7000   81.9400 O.3       1 SER1        0.0000 
      4 OG        228.0800  -66.9700   80.8600 O.3       1 SER1        0.0000 
      5 OG        227.3300  -66.2400   79.7800 O.3       1 SER1        0.0000 
      6 OG        227.6000  -67.6700   82.8000 O.3       1 SER1        0.0000 
      7 OG        226.8500  -66.9400   81.7200 O.3       1 SER1        0.0000 
      8 OG        226.1100  -66.2100   80.6500 O.3       1 SER1        0.0000 
      9 OG        226.3700  -67.6500   83.6700 O.3       1 SER1        0.0000 
     10 OG        229.7400  -65.6900   80.5800 O.3       1 SER1        0.0000 
     11 OG        229.0000  -64.9600   79.5000 O.3       1 SER1        0.0000 
     12 OG        227.7700  -64.9300   80.3600 O.3       1 SER1        0.0000 
     13 OG        227.0300  -64.2000   79.2900 O.3       1 SER1        0.0000 
     14 OG        229.4400  -63.6500   80.0800 O.3       1 SER1        0.0000 
     15 O         227.3700  -66.8500   77.2500 O.2       2 ALA2        0.0000 
     16 N         227.9000  -69.7100   83.2900 N.am      2 ALA2        0.0000 
     17 O         227.0700  -64.8100   76.7600 O.2       2 ALA2        0.0000 
     18 N         230.3100  -69.1600   84.0900 N.am      2 ALA2        0.0000 
     19 N         229.5700  -68.4300   83.0100 N.am      2 ALA2        0.0000 
     20 N         229.0900  -69.1400   84.9600 N.am      2 ALA2        0.0000 
     21 N         231.0200  -69.2900   87.6900 N.am      2 ALA2        0.0000 
     22 N         230.2700  -68.5600   86.6200 N.am      2 ALA2        0.0000 
     23 N         229.5300  -67.8300   85.5400 N.am      2 ALA2        0.0000 
     24 N         228.7800  -67.1000   84.4600 N.am      2 ALA2        0.0000 
     25 N         230.2300  -67.9500   89.1400 N.am      2 ALA2        0.0000 
     26 N         229.4900  -67.2200   88.0600 N.am      2 ALA2        0.0000 
     27 N         228.7400  -66.4900   86.9900 N.am      2 ALA2        0.0000 
     28 OD1       232.0500  -69.0900   78.7600 O.co2     3 ASP3        0.0000 
     29 OD1       230.8300  -69.0700   79.6200 O.co2     3 ASP3        0.0000 
     30 OD1       229.3400  -67.6000   77.4700 O.co2     3 ASP3        0.0000 
     31 OD1       228.8600  -68.3100   79.4100 O.co2     3 ASP3        0.0000 
     32 OD1       228.1100  -67.5800   78.3300 O.co2     3 ASP3        0.0000 
     33 OD1       229.1200  -69.7400   82.4300 O.co2     3 ASP3        0.0000 
     34 OD1       228.3800  -69.0100   81.3500 O.co2     3 ASP3        0.0000 
     35 OD1       227.6300  -68.2800   80.2700 O.co2     3 ASP3        0.0000 
     36 OD1       232.5000  -67.7800   79.3400 O.co2     3 ASP3        0.0000 
     37 OD1       231.7500  -67.0500   78.2600 O.co2     3 ASP3        0.0000 
     38 OD1       231.2700  -67.7600   80.2000 O.co2     3 ASP3        0.0000 
     39 OD1       230.5300  -67.0300   79.1300 O.co2     3 ASP3        0.0000 
     40 OD1       230.0500  -67.7300   81.0700 O.co2     3 ASP3        0.0000 
     41 OD1       230.2200  -64.9900   78.6300 O.co2     3 ASP3        0.0000 
     42 OD1       230.4900  -66.4200   81.6500 O.co2     3 ASP3        0.0000 
     43 OD1       227.5100  -63.5000   77.3400 O.co2     3 ASP3        0.0000 
     44 OD1       226.2800  -63.4700   78.2100 O.co2     3 ASP3        0.0000 
     45 OD1       230.6600  -63.6800   79.2200 O.co2     3 ASP3        0.0000 
     46 OD1       231.1100  -62.3700   79.8000 O.co2     3 ASP3        0.0000 
     47 NZ        225.0600  -63.4400   79.0700 N.4       4 LYS4        0.0000 
     48 NZ        228.6900  -62.9200   79.0000 N.4       4 LYS4        0.0000 
     49 NZ        227.9500  -62.1900   77.9300 N.4       4 LYS4        0.0000 
     50 NZ        227.4700  -62.8900   79.8700 N.4       4 LYS4        0.0000 
     51 CZ        225.8000  -64.1700   80.1500 C.ar      5 PHE5        0.0000 
     52 CA        228.5900  -66.8700   76.3900 C.3       6 GLY6        0.0000 
     53 CA        229.8700  -70.4700   83.5100 C.3       6 GLY6        0.0000 
     54 CA        226.1400  -66.8200   78.1200 C.3       6 GLY6        0.0000 
     55 CA        230.7900  -68.4600   82.1500 C.3       6 GLY6        0.0000 
     56 CA        226.5900  -65.5100   78.7000 C.3       6 GLY6        0.0000 
     57 CA        225.8400  -64.7800   77.6300 C.3       6 GLY6        0.0000 
     58 CA        229.8300  -69.8700   86.0300 C.3       6 GLY6        0.0000 
     59 CA        225.3600  -65.4800   79.5700 C.3       6 GLY6        0.0000 
     60 CA        227.1200  -68.3800   84.7400 C.3       6 GLY6        0.0000 
     61 CA        228.3000  -67.8000   86.4000 C.3       6 GLY6        0.0000 
     62 CA        231.4600  -67.9800   88.2800 C.3       6 GLY6        0.0000 
     63 CA        230.7100  -67.2500   87.2000 C.3       6 GLY6        0.0000 
     64 CA        229.8800  -62.3400   80.6600 C.3       6 GLY6        0.0000 
     65 CA        229.1400  -61.6100   79.5900 C.3       6 GLY6        0.0000 
     66 DU        229.7800  -66.3000   78.0500 H         7 CUB7        0.0000 
     67 DU        229.0400  -65.5600   76.9700 H         7 CUB7        0.0000 
     68 DU        228.5600  -66.2700   78.9100 H         7 CUB7        0.0000 
     69 DU        227.8100  -65.5400   77.8400 H         7 CUB7        0.0000 
     70 DU        228.3400  -68.4100   83.8800 H         7 CUB7        0.0000 
     71 DU        229.4800  -64.2500   77.5600 H         7 CUB7        0.0000 
     72 DU        228.2500  -64.2300   78.4200 H         7 CUB7        0.0000 
     73 DU        229.7900  -69.2600   88.5600 H         7 CUB7        0.0000 
     74 DU        229.0500  -68.5300   87.4800 H         7 CUB7        0.0000 
     75 DU        229.9200  -62.9500   78.1400 H         7 CUB7        0.0000 
@<TRIPOS>BOND
@<TRIPOS>SUBSTRUCTURE
     1 SER1        1 GROUP   
     2 ALA2       15 GROUP   
     3 ASP3       28 GROUP   
     4 LYS4       47 GROUP   
     5 PHE5       51 GROUP   
     6 GLY6       52 GROUP   
     7 CUB7       66 GROUP   
@<TRIPOS>SET

