#    Name: 6oju_4_UMP
#    Modification time : Fri May 22 19:31:49 2020

@<TRIPOS>MOLECULE
6oju_4_UMP
   20    21     1     0     1
SMALL
NO_CHARGES


@<TRIPOS>ATOM
      1 N1        229.1540  -67.8150   86.6630 N.am      1 UMP600      0.0000 
      2 C2        229.0590  -66.8710   87.7130 C.2       1 UMP600      0.0000 
      3 N3        230.0240  -66.9380   88.7180 N.am      1 UMP600      0.0000 
      4 C4        231.0740  -67.8560   88.7810 C.2       1 UMP600      0.0000 
      5 C5        231.1150  -68.8000   87.6730 C.2       1 UMP600      0.0000 
      6 C6        230.1790  -68.7500   86.6970 C.2       1 UMP600      0.0000 
      7 O2        228.1820  -66.0120   87.7790 O.2       1 UMP600      0.0000 
      8 O4        231.8710  -67.8260   89.7150 O.2       1 UMP600      0.0000 
      9 C1'       228.1560  -67.8370   85.5220 C.3       1 UMP600      0.0000 
     10 C2'       228.0640  -66.5480   84.7030 C.3       1 UMP600      0.0000 
     11 C3'       227.4120  -67.0900   83.4400 C.3       1 UMP600      0.0000 
     12 C4'       227.8760  -68.5550   83.3620 C.3       1 UMP600      0.0000 
     13 O3'       226.0050  -66.9910   83.5350 O.3       1 UMP600      0.0000 
     14 O4'       228.5520  -68.7950   84.5970 O.3       1 UMP600      0.0000 
     15 C5'       228.8060  -68.8560   82.1680 C.3       1 UMP600      0.0000 
     16 O5'       229.7020  -67.8020   81.8480 O.3       1 UMP600      0.0000 
     17 P         229.9200  -67.2210   80.3420 P.3       1 UMP600      0.0000 
     18 OP1       228.7930  -67.4130   79.3870 O.co2     1 UMP600      0.0000 
     19 OP2       230.3270  -65.6780   80.6350 O.co2     1 UMP600      0.0000 
     20 OP3       231.3390  -67.8790   79.9180 O.co2     1 UMP600      0.0000 
@<TRIPOS>BOND
     1    1    2 1    
     2    1    6 1    
     3    1    9 1    
     4    2    3 1    
     5    2    7 2    
     6    3    4 1    
     7    4    5 1    
     8    4    8 2    
     9    5    6 2    
    10    9   10 1    
    11    9   14 1    
    12   10   11 1    
    13   11   12 1    
    14   11   13 1    
    15   12   14 1    
    16   12   15 1    
    17   15   16 1    
    18   16   17 1    
    19   17   18 ar   
    20   17   19 ar   
    21   17   20 ar   
@<TRIPOS>SUBSTRUCTURE
     1 UMP600      1 GROUP   
@<TRIPOS>SET
ATOM$ORANGE STATIC     ATOMS   COLORGROUP SYSTEM 
18 2 2 4 4 5 5 6 6 9 9 10 10 11 11 12 12 15 \
15 

