#    Name: 5xfv_2_FMN_CAVITY_N1_4
#    Modification time : Fri May 22 19:13:38 2020

@<TRIPOS>MOLECULE
5xfv_2_FMN_CAVITY_N1_4
   74     0     6     0     0
SMALL
NO_CHARGES


@<TRIPOS>ATOM
      1 OG        162.4000   47.9100  -62.1000 O.3       1 SER1        0.0000 
      2 OG        160.6700   51.6800  -60.3600 O.3       1 SER1        0.0000 
      3 OG        161.2200   52.6700  -59.3800 O.3       1 SER1        0.0000 
      4 OG        158.9400   55.4500  -58.6200 O.3       1 SER1        0.0000 
      5 OG        162.3200   54.6600  -57.4200 O.3       1 SER1        0.0000 
      6 OG        163.1900   53.5900  -56.8300 O.3       1 SER1        0.0000 
      7 OG        168.7600   53.5000  -57.5700 O.3       1 SER1        0.0000 
      8 N         164.0400   49.2500  -62.0900 N.am      2 ALA2        0.0000 
      9 O         161.5400   50.6100  -59.7700 O.2       2 ALA2        0.0000 
     10 O         162.4100   49.5400  -59.1700 O.2       2 ALA2        0.0000 
     11 O         163.5000   49.8900  -60.1400 O.2       2 ALA2        0.0000 
     12 N         164.5900   50.2400  -61.1100 N.am      2 ALA2        0.0000 
     13 N         165.4600   49.1800  -60.5200 N.am      2 ALA2        0.0000 
     14 O         160.3500   53.7400  -59.9700 O.2       2 ALA2        0.0000 
     15 O         162.0900   51.6000  -58.7900 O.2       2 ALA2        0.0000 
     16 O         164.0500   50.8900  -59.1600 O.2       2 ALA2        0.0000 
     17 N         164.9200   49.8200  -58.5700 N.am      2 ALA2        0.0000 
     18 O         160.0300   55.8000  -59.5900 O.2       2 ALA2        0.0000 
     19 O         160.9000   54.7300  -58.9900 O.2       2 ALA2        0.0000 
     20 O         163.5100   51.5300  -57.2100 O.2       2 ALA2        0.0000 
     21 N         163.7300   52.9500  -58.7800 N.am      2 ALA2        0.0000 
     22 N         164.6000   51.8800  -58.1800 N.am      2 ALA2        0.0000 
     23 O         165.4800   50.8100  -57.5900 O.2       2 ALA2        0.0000 
     24 N         166.3500   49.7500  -57.0000 N.am      2 ALA2        0.0000 
     25 N         163.9500   54.3700  -60.3400 N.am      2 ALA2        0.0000 
     26 N         165.6900   52.2300  -59.1500 N.am      2 ALA2        0.0000 
     27 N         166.5700   51.1600  -58.5600 N.am      2 ALA2        0.0000 
     28 N         161.6700   57.1400  -59.5800 N.am      2 ALA2        0.0000 
     29 N         164.2800   53.9400  -57.8000 N.am      2 ALA2        0.0000 
     30 N         165.1500   52.8700  -57.2000 N.am      2 ALA2        0.0000 
     31 N         166.0300   51.8100  -56.6100 N.am      2 ALA2        0.0000 
     32 N         166.2400   53.2300  -58.1700 N.am      2 ALA2        0.0000 
     33 N         167.1200   52.1600  -57.5800 N.am      2 ALA2        0.0000 
     34 N         168.2100   52.5100  -58.5500 N.am      2 ALA2        0.0000 
     35 N         161.1300   57.7900  -57.6300 N.am      2 ALA2        0.0000 
     36 N         162.0000   56.7200  -57.0300 N.am      2 ALA2        0.0000 
     37 O         162.8700   55.6500  -56.4400 O.2       2 ALA2        0.0000 
     38 N         163.0900   57.0700  -58.0000 N.am      2 ALA2        0.0000 
     39 N         164.8300   54.9400  -56.8200 N.am      2 ALA2        0.0000 
     40 O         167.6700   53.1500  -56.6000 O.2       2 ALA2        0.0000 
     41 OD1       167.4400   50.1000  -57.9700 O.co2     3 ASP3        0.0000 
     42 OD1       167.9900   51.0900  -56.9900 O.co2     3 ASP3        0.0000 
     43 OD1       169.0800   51.4400  -57.9600 O.co2     3 ASP3        0.0000 
     44 OD1       163.9600   56.0000  -57.4100 O.co2     3 ASP3        0.0000 
     45 OD1       165.0500   56.3500  -58.3800 O.co2     3 ASP3        0.0000 
     46 OD1       165.9200   55.2900  -57.7900 O.co2     3 ASP3        0.0000 
     47 OD1       166.7900   54.2200  -57.1900 O.co2     3 ASP3        0.0000 
     48 CZ        160.9900   49.6200  -60.7500 C.ar      4 PHE5        0.0000 
     49 CZ        161.8600   48.5500  -60.1500 C.ar      4 PHE5        0.0000 
     50 CZ        162.9500   48.9000  -61.1200 C.ar      4 PHE5        0.0000 
     51 CA        162.0800   49.9700  -61.7100 C.3       5 GLY6        0.0000 
     52 CA        163.8200   47.8300  -60.5300 C.3       5 GLY6        0.0000 
     53 CA        162.6300   50.9600  -60.7400 C.3       5 GLY6        0.0000 
     54 CA        164.3700   48.8300  -59.5500 C.3       5 GLY6        0.0000 
     55 CA        162.3100   53.0200  -60.3500 C.3       5 GLY6        0.0000 
     56 CA        163.1800   51.9500  -59.7600 C.3       5 GLY6        0.0000 
     57 CA        165.8000   48.7500  -57.9800 C.3       5 GLY6        0.0000 
     58 CA        164.2700   52.3100  -60.7200 C.3       5 GLY6        0.0000 
     59 CA        165.1400   51.2400  -60.1300 C.3       5 GLY6        0.0000 
     60 CA        166.0100   50.1700  -59.5400 C.3       5 GLY6        0.0000 
     61 CA        159.8100   54.3800  -58.0200 C.3       5 GLY6        0.0000 
     62 CA        161.9900   55.0800  -59.9600 C.3       5 GLY6        0.0000 
     63 CA        162.8600   54.0200  -59.3700 C.3       5 GLY6        0.0000 
     64 CA        159.4900   56.4400  -57.6400 C.3       5 GLY6        0.0000 
     65 CA        160.3600   55.3700  -57.0500 C.3       5 GLY6        0.0000 
     66 CA        162.5400   56.0800  -58.9800 C.3       5 GLY6        0.0000 
     67 CA        163.4100   55.0100  -58.3900 C.3       5 GLY6        0.0000 
     68 CA        164.5000   55.3600  -59.3600 C.3       5 GLY6        0.0000 
     69 CA        160.0400   57.4300  -56.6600 C.3       5 GLY6        0.0000 
     70 CA        160.9100   56.3700  -56.0700 C.3       5 GLY6        0.0000 
     71 DU        161.7700   53.6600  -58.4000 H         6 CUB7        0.0000 
     72 DU        160.5800   56.7900  -58.6100 H         6 CUB7        0.0000 
     73 DU        161.4500   55.7200  -58.0100 H         6 CUB7        0.0000 
     74 DU        166.9000   50.7400  -56.0200 H         6 CUB7        0.0000 
@<TRIPOS>BOND
@<TRIPOS>SUBSTRUCTURE
     1 SER1        1 GROUP   
     2 ALA2        8 GROUP   
     3 ASP3       41 GROUP   
     4 PHE5       48 GROUP   
     5 GLY6       51 GROUP   
     6 CUB7       71 GROUP   
@<TRIPOS>SET

