#    Name: 5xfv_3_FMN_CAVITY_N1_12
#    Modification time : Fri May 22 19:13:46 2020

@<TRIPOS>MOLECULE
5xfv_3_FMN_CAVITY_N1_12
   86     0     6     0     0
SMALL
NO_CHARGES


@<TRIPOS>ATOM
      1 OG        161.0200   22.8400  -63.4600 O.3       1 SER1        0.0000 
      2 OG        162.1100   23.1900  -64.4200 O.3       1 SER1        0.0000 
      3 OG        164.2900   23.8900  -66.3600 O.3       1 SER1        0.0000 
      4 OG        163.9700   25.9500  -65.9800 O.3       1 SER1        0.0000 
      5 OG        165.0600   26.3000  -66.9400 O.3       1 SER1        0.0000 
      6 OG        161.4700   27.3100  -63.6500 O.3       1 SER1        0.0000 
      7 OG        162.3400   26.2400  -63.0600 O.3       1 SER1        0.0000 
      8 OG        169.7500   27.2800  -68.2800 O.3       1 SER1        0.0000 
      9 N         162.1000   21.5500  -67.3500 N.am      2 ALA2        0.0000 
     10 N         162.9700   20.4800  -66.7600 N.am      2 ALA2        0.0000 
     11 O         160.4700   21.8400  -64.4300 O.2       2 ALA2        0.0000 
     12 O         161.3400   20.7700  -63.8400 O.2       2 ALA2        0.0000 
     13 O         163.3000   20.0600  -64.2200 O.2       2 ALA2        0.0000 
     14 N         163.5200   21.4800  -65.7800 N.am      2 ALA2        0.0000 
     15 O         163.7400   22.9000  -67.3400 O.2       2 ALA2        0.0000 
     16 N         164.6100   21.8300  -66.7500 N.am      2 ALA2        0.0000 
     17 O         161.8900   21.7700  -62.8600 O.2       2 ALA2        0.0000 
     18 O         163.8500   21.0500  -63.2400 O.2       2 ALA2        0.0000 
     19 N         164.0700   22.4700  -64.8000 N.am      2 ALA2        0.0000 
     20 N         165.1600   22.8200  -65.7700 N.am      2 ALA2        0.0000 
     21 N         165.3800   24.2400  -67.3300 N.am      2 ALA2        0.0000 
     22 O         162.6600   24.1800  -63.4400 O.2       2 ALA2        0.0000 
     23 N         165.9300   25.2300  -66.3500 N.am      2 ALA2        0.0000 
     24 N         166.8000   24.1700  -65.7600 N.am      2 ALA2        0.0000 
     25 N         166.1500   26.6500  -67.9100 N.am      2 ALA2        0.0000 
     26 N         167.0200   25.5900  -67.3200 N.am      2 ALA2        0.0000 
     27 N         167.2400   27.0000  -68.8800 N.am      2 ALA2        0.0000 
     28 N         168.1100   25.9400  -68.2900 N.am      2 ALA2        0.0000 
     29 O         162.5600   27.6600  -64.6200 O.2       2 ALA2        0.0000 
     30 O         163.6500   28.0100  -65.5900 O.2       2 ALA2        0.0000 
     31 N         165.3900   25.8800  -64.4000 N.am      2 ALA2        0.0000 
     32 N         166.2600   24.8100  -63.8100 N.am      2 ALA2        0.0000 
     33 N         165.6100   27.3000  -65.9600 N.am      2 ALA2        0.0000 
     34 N         166.4800   26.2300  -65.3700 N.am      2 ALA2        0.0000 
     35 N         166.7000   27.6500  -66.9300 N.am      2 ALA2        0.0000 
     36 O         166.0500   30.1300  -69.0900 O.2       2 ALA2        0.0000 
     37 O         166.9200   29.0700  -68.5000 O.2       2 ALA2        0.0000 
     38 N         168.6600   26.9300  -67.3100 N.am      2 ALA2        0.0000 
     39 O         167.1400   30.4800  -70.0600 O.2       2 ALA2        0.0000 
     40 N         168.0100   29.4200  -69.4600 N.am      2 ALA2        0.0000 
     41 O         163.1100   28.6500  -63.6400 O.2       2 ALA2        0.0000 
     42 O         164.2000   29.0100  -64.6100 O.2       2 ALA2        0.0000 
     43 O         165.2900   29.3600  -65.5800 O.2       2 ALA2        0.0000 
     44 N         166.1600   28.2900  -64.9900 N.am      2 ALA2        0.0000 
     45 N         166.3800   29.7100  -66.5500 N.am      2 ALA2        0.0000 
     46 N         166.6000   31.1300  -68.1100 N.am      2 ALA2        0.0000 
     47 N         169.2100   27.9200  -66.3300 N.am      2 ALA2        0.0000 
     48 O         167.6900   31.4800  -69.0800 O.2       2 ALA2        0.0000 
     49 N         165.6200   28.9300  -63.0400 N.am      2 ALA2        0.0000 
     50 N         166.7100   29.2800  -64.0100 N.am      2 ALA2        0.0000 
     51 N         165.3000   30.9900  -62.6500 N.am      2 ALA2        0.0000 
     52 OD1       166.2500   23.1700  -66.7400 O.co2     3 ASP3        0.0000 
     53 OD1       167.4700   30.0600  -67.5200 O.co2     3 ASP3        0.0000 
     54 OD1       168.3400   28.9900  -66.9200 O.co2     3 ASP3        0.0000 
     55 OD1       168.5600   30.4100  -68.4900 O.co2     3 ASP3        0.0000 
     56 OD1       169.4300   29.3400  -67.8900 O.co2     3 ASP3        0.0000 
     57 OD1       166.9300   30.7000  -65.5700 O.co2     3 ASP3        0.0000 
     58 OD1       167.8000   29.6300  -64.9700 O.co2     3 ASP3        0.0000 
     59 CZ        162.0200   28.3000  -62.6700 C.ar      4 PHE5        0.0000 
     60 CZ        162.2400   29.7200  -64.2300 C.ar      4 PHE5        0.0000 
     61 CZ        162.5700   29.3000  -61.6900 C.ar      4 PHE5        0.0000 
     62 CZ        163.6600   29.6500  -62.6600 C.ar      4 PHE5        0.0000 
     63 CZ        163.3400   31.7100  -62.2700 C.ar      4 PHE5        0.0000 
     64 CZ        164.2100   30.6400  -61.6800 C.ar      4 PHE5        0.0000 
     65 CA        161.5600   22.1900  -65.4000 C.3       5 GLY6        0.0000 
     66 CA        162.4300   21.1300  -64.8100 C.3       5 GLY6        0.0000 
     67 CA        161.2400   24.2500  -65.0200 C.3       5 GLY6        0.0000 
     68 CA        162.9800   22.1200  -63.8300 C.3       5 GLY6        0.0000 
     69 CA        163.7500   24.5300  -64.4100 C.3       5 GLY6        0.0000 
     70 CA        164.6200   23.4600  -63.8200 C.3       5 GLY6        0.0000 
     71 CA        165.7100   23.8200  -64.7900 C.3       5 GLY6        0.0000 
     72 CA        163.4300   26.5900  -64.0300 C.3       5 GLY6        0.0000 
     73 CA        164.3000   25.5300  -63.4300 C.3       5 GLY6        0.0000 
     74 CA        162.8900   27.2400  -62.0800 C.3       5 GLY6        0.0000 
     75 CA        163.9800   27.5900  -63.0500 C.3       5 GLY6        0.0000 
     76 CA        165.0700   27.9400  -64.0200 C.3       5 GLY6        0.0000 
     77 CA        167.2500   28.6400  -65.9500 C.3       5 GLY6        0.0000 
     78 CA        163.8800   31.0700  -64.2200 C.3       5 GLY6        0.0000 
     79 CA        164.7500   30.0000  -63.6300 C.3       5 GLY6        0.0000 
     80 CA        165.8400   30.3500  -64.6000 C.3       5 GLY6        0.0000 
     81 CA        164.4300   32.0600  -63.2400 C.3       5 GLY6        0.0000 
     82 DU        162.6500   22.5400  -66.3700 H         6 CUB7        0.0000 
     83 DU        163.2000   23.5400  -65.3900 H         6 CUB7        0.0000 
     84 DU        164.8400   24.8800  -65.3800 H         6 CUB7        0.0000 
     85 DU        164.5200   26.9400  -65.0000 H         6 CUB7        0.0000 
     86 DU        167.7900   28.0000  -67.9000 H         6 CUB7        0.0000 
@<TRIPOS>BOND
@<TRIPOS>SUBSTRUCTURE
     1 SER1        1 GROUP   
     2 ALA2        9 GROUP   
     3 ASP3       52 GROUP   
     4 PHE5       59 GROUP   
     5 GLY6       65 GROUP   
     6 CUB7       82 GROUP   
@<TRIPOS>SET

