#    Name: 5xfv_4_FMN_CAVITY_N1_6
#    Modification time : Fri May 22 19:13:51 2020

@<TRIPOS>MOLECULE
5xfv_4_FMN_CAVITY_N1_6
   77     0     6     0     0
SMALL
NO_CHARGES


@<TRIPOS>ATOM
      1 OG        144.1400   13.4900  -85.8300 O.3       1 SER1        0.0000 
      2 OG        144.4800   14.7000  -80.3600 O.3       1 SER1        0.0000 
      3 OG        145.5700   15.0500  -81.3300 O.3       1 SER1        0.0000 
      4 OG        142.8500   14.9900  -77.4400 O.3       1 SER1        0.0000 
      5 OG        145.2500   17.1100  -80.9400 O.3       1 SER1        0.0000 
      6 N         141.7400   11.3700  -82.3300 N.am      2 ALA2        0.0000 
      7 N         143.0500   13.1400  -84.8600 N.am      2 ALA2        0.0000 
      8 N         141.2000   12.0100  -80.3800 N.am      2 ALA2        0.0000 
      9 N         142.2900   12.3600  -81.3500 N.am      2 ALA2        0.0000 
     10 N         143.3800   12.7100  -82.3200 N.am      2 ALA2        0.0000 
     11 N         144.2500   11.6400  -81.7300 N.am      2 ALA2        0.0000 
     12 N         143.6000   14.1300  -83.8800 N.am      2 ALA2        0.0000 
     13 N         144.4700   13.0600  -83.2900 N.am      2 ALA2        0.0000 
     14 N         145.3400   11.9900  -82.7000 N.am      2 ALA2        0.0000 
     15 O         144.6900   14.4800  -84.8500 O.2       2 ALA2        0.0000 
     16 N         145.5600   13.4100  -84.2600 N.am      2 ALA2        0.0000 
     17 O         146.4300   12.3500  -83.6700 O.2       2 ALA2        0.0000 
     18 O         142.6200   11.9300  -78.8100 O.2       2 ALA2        0.0000 
     19 O         143.5000   10.8700  -78.2200 O.2       2 ALA2        0.0000 
     20 O         143.7100   12.2900  -79.7800 O.2       2 ALA2        0.0000 
     21 N         143.0600   14.7700  -81.9300 N.am      2 ALA2        0.0000 
     22 N         143.9300   13.7000  -81.3400 N.am      2 ALA2        0.0000 
     23 O         144.8000   12.6400  -80.7500 O.2       2 ALA2        0.0000 
     24 N         144.1500   15.1200  -82.9000 N.am      2 ALA2        0.0000 
     25 N         145.0200   14.0600  -82.3100 N.am      2 ALA2        0.0000 
     26 O         145.2400   15.4700  -83.8700 O.2       2 ALA2        0.0000 
     27 N         146.1100   14.4100  -83.2800 N.am      2 ALA2        0.0000 
     28 O         143.1700   12.9300  -77.8300 O.2       2 ALA2        0.0000 
     29 O         144.0500   11.8600  -77.2400 O.2       2 ALA2        0.0000 
     30 O         144.2600   13.2800  -78.8000 O.2       2 ALA2        0.0000 
     31 N         142.7400   16.8300  -81.5500 N.am      2 ALA2        0.0000 
     32 N         143.6100   15.7700  -80.9500 N.am      2 ALA2        0.0000 
     33 O         145.3500   13.6300  -79.7700 O.2       2 ALA2        0.0000 
     34 N         144.7000   16.1200  -81.9200 N.am      2 ALA2        0.0000 
     35 O         141.9800   16.0600  -78.0400 O.2       2 ALA2        0.0000 
     36 O         143.6200   17.4000  -78.0300 O.2       2 ALA2        0.0000 
     37 N         143.8400   18.8200  -79.5900 N.am      2 ALA2        0.0000 
     38 N         144.9300   19.1700  -80.5600 N.am      2 ALA2        0.0000 
     39 O         145.8000   18.1000  -79.9600 O.2       2 ALA2        0.0000 
     40 N         144.3900   19.8100  -78.6100 N.am      2 ALA2        0.0000 
     41 N         145.4800   20.1600  -79.5800 N.am      2 ALA2        0.0000 
     42 OD1       142.8300   11.7200  -83.3000 O.co2     3 ASP3        0.0000 
     43 OD1       143.7000   10.6500  -82.7100 O.co2     3 ASP3        0.0000 
     44 OD1       143.9200   12.0700  -84.2700 O.co2     3 ASP3        0.0000 
     45 OD1       144.7900   11.0000  -83.6800 O.co2     3 ASP3        0.0000 
     46 OD1       145.0100   12.4200  -85.2400 O.co2     3 ASP3        0.0000 
     47 OD1       145.8800   11.3500  -84.6400 O.co2     3 ASP3        0.0000 
     48 OD1       143.8300   17.1800  -82.5200 O.co2     3 ASP3        0.0000 
     49 OD1       144.3800   18.1800  -81.5400 O.co2     3 ASP3        0.0000 
     50 CZ        141.5300   11.5800  -77.8400 C.ar      4 PHE5        0.0000 
     51 CZ        142.0900   12.5800  -76.8600 C.ar      4 PHE5        0.0000 
     52 CA        141.5200    9.9500  -80.7700 C.3       5 GLY6        0.0000 
     53 CA        142.6100   10.3000  -81.7400 C.3       5 GLY6        0.0000 
     54 CA        142.0700   10.9400  -79.7900 C.3       5 GLY6        0.0000 
     55 CA        142.9500    9.8700  -79.2000 C.3       5 GLY6        0.0000 
     56 CA        141.4200   13.4300  -81.9400 C.3       5 GLY6        0.0000 
     57 CA        143.1600   11.2900  -80.7600 C.3       5 GLY6        0.0000 
     58 CA        141.7500   13.0000  -79.4000 C.3       5 GLY6        0.0000 
     59 CA        141.9700   14.4200  -80.9700 C.3       5 GLY6        0.0000 
     60 CA        142.8400   13.3500  -80.3700 C.3       5 GLY6        0.0000 
     61 CA        141.2100   13.6400  -77.4500 C.3       5 GLY6        0.0000 
     62 CA        142.3000   14.0000  -78.4200 C.3       5 GLY6        0.0000 
     63 CA        142.5200   15.4100  -79.9900 C.3       5 GLY6        0.0000 
     64 CA        143.3900   14.3500  -79.3900 C.3       5 GLY6        0.0000 
     65 CA        142.2000   17.4700  -79.6000 C.3       5 GLY6        0.0000 
     66 CA        143.0700   16.4100  -79.0100 C.3       5 GLY6        0.0000 
     67 CA        143.2900   17.8300  -80.5700 C.3       5 GLY6        0.0000 
     68 CA        142.7500   18.4700  -78.6200 C.3       5 GLY6        0.0000 
     69 CA        143.3000   19.4600  -77.6400 C.3       5 GLY6        0.0000 
     70 CA        144.1700   18.4000  -77.0500 C.3       5 GLY6        0.0000 
     71 CA        145.2600   18.7500  -78.0200 C.3       5 GLY6        0.0000 
     72 CA        146.1400   17.6800  -77.4200 C.3       5 GLY6        0.0000 
     73 CA        146.3500   19.1000  -78.9800 C.3       5 GLY6        0.0000 
     74 CA        145.8100   19.7400  -77.0400 C.3       5 GLY6        0.0000 
     75 CA        146.9000   20.0900  -78.0100 C.3       5 GLY6        0.0000 
     76 DU        144.1600   16.7600  -79.9700 H         6 CUB7        0.0000 
     77 DU        144.7100   17.7500  -79.0000 H         6 CUB7        0.0000 
@<TRIPOS>BOND
@<TRIPOS>SUBSTRUCTURE
     1 SER1        1 GROUP   
     2 ALA2        6 GROUP   
     3 ASP3       42 GROUP   
     4 PHE5       50 GROUP   
     5 GLY6       52 GROUP   
     6 CUB7       76 GROUP   
@<TRIPOS>SET

