#    Name: 5xfv_2_FMN
#    Modification time : Fri May 22 19:13:36 2020

@<TRIPOS>MOLECULE
5xfv_2_FMN
   31    33     1     0     1
SMALL
NO_CHARGES


@<TRIPOS>ATOM
      1 N1        167.3400   54.1610  -57.2120 N.2       1 FMN401      0.0000 
      2 C2        168.6890   54.2680  -57.2350 C.2       1 FMN401      0.0000 
      3 O2        169.2080   55.2860  -56.7300 O.2       1 FMN401      0.0000 
      4 N3        169.4760   53.3320  -57.7960 N.am      1 FMN401      0.0000 
      5 C4        168.9810   52.2180  -58.3800 C.2       1 FMN401      0.0000 
      6 O4        169.7460   51.3640  -58.9140 O.2       1 FMN401      0.0000 
      7 C4A       167.5160   52.0230  -58.3810 C.2       1 FMN401      0.0000 
      8 N5        166.9090   50.9320  -58.9220 N.2       1 FMN401      0.0000 
      9 C5A       165.5680   50.8990  -59.0980 C.ar      1 FMN401      0.0000 
     10 C6        164.9840   49.8760  -59.8350 C.ar      1 FMN401      0.0000 
     11 C7        163.6120   49.8320  -60.0400 C.ar      1 FMN401      0.0000 
     12 C7M       162.9970   48.7140  -60.8360 C.3       1 FMN401      0.0000 
     13 C8        162.7580   50.8890  -59.4560 C.ar      1 FMN401      0.0000 
     14 C8M       161.2630   50.8670  -59.6500 C.3       1 FMN401      0.0000 
     15 C9        163.3360   51.9170  -58.7230 C.ar      1 FMN401      0.0000 
     16 C9A       164.7120   51.9660  -58.5100 C.ar      1 FMN401      0.0000 
     17 N10       165.3060   52.9880  -57.7390 N.pl3     1 FMN401      0.0000 
     18 C10       166.7070   53.0920  -57.7460 C.2       1 FMN401      0.0000 
     19 C1'       164.5710   54.1260  -57.1800 C.3       1 FMN401      0.0000 
     20 C2'       164.2210   55.1300  -58.2750 C.3       1 FMN401      0.0000 
     21 O2'       165.4150   55.7530  -58.7410 O.3       1 FMN401      0.0000 
     22 C3'       163.2980   56.2260  -57.7520 C.3       1 FMN401      0.0000 
     23 O3'       163.9950   56.9320  -56.7090 O.3       1 FMN401      0.0000 
     24 C4'       161.9690   55.7200  -57.1910 C.3       1 FMN401      0.0000 
     25 O4'       161.4400   54.6520  -57.9970 O.3       1 FMN401      0.0000 
     26 C5'       160.9580   56.8580  -57.0830 C.3       1 FMN401      0.0000 
     27 O5'       160.6490   57.4170  -58.3700 O.3       1 FMN401      0.0000 
     28 P         159.2720   57.0400  -59.1380 P.3       1 FMN401      0.0000 
     29 O1P       158.1360   57.4050  -58.2170 O.co2     1 FMN401      0.0000 
     30 O2P       159.3690   55.5390  -59.3290 O.co2     1 FMN401      0.0000 
     31 O3P       159.3520   57.8340  -60.4140 O.co2     1 FMN401      0.0000 
@<TRIPOS>BOND
     1    1    2 1    
     2    1   18 2    
     3    2    3 2    
     4    2    4 am   
     5    4    5 am   
     6    5    6 2    
     7    5    7 1    
     8    7    8 2    
     9    7   18 1    
    10    8    9 1    
    11    9   10 ar   
    12    9   16 ar   
    13   10   11 ar   
    14   11   12 1    
    15   11   13 ar   
    16   13   14 1    
    17   13   15 ar   
    18   15   16 ar   
    19   16   17 1    
    20   17   18 1    
    21   17   19 1    
    22   19   20 1    
    23   20   21 1    
    24   20   22 1    
    25   22   23 1    
    26   22   24 1    
    27   24   25 1    
    28   24   26 1    
    29   26   27 1    
    30   27   28 1    
    31   28   29 ar   
    32   28   30 ar   
    33   28   31 ar   
@<TRIPOS>SUBSTRUCTURE
     1 FMN401      1 GROUP   
@<TRIPOS>SET
ATOM$ORANGE STATIC     ATOMS   COLORGROUP SYSTEM 
34 2 2 5 5 7 7 9 9 10 10 11 11 12 12 13 13 14 \
14 15 15 16 16 18 18 19 19 20 20 22 22 24 24 26 26 

