#    Name: 5xfv_1_FMN
#    Modification time : Fri May 22 19:13:28 2020

@<TRIPOS>MOLECULE
5xfv_1_FMN
   31    33     1     0     1
SMALL
NO_CHARGES


@<TRIPOS>ATOM
      1 N1        146.7780   59.8980  -34.9830 N.2       1 FMN401      0.0000 
      2 C2        146.8870   59.9010  -33.6320 C.2       1 FMN401      0.0000 
      3 O2        147.5290   58.9690  -33.0820 O.2       1 FMN401      0.0000 
      4 N3        146.3280   60.8600  -32.8670 N.am      1 FMN401      0.0000 
      5 C4        145.6200   61.8740  -33.3960 C.2       1 FMN401      0.0000 
      6 O4        145.0960   62.7430  -32.6710 O.2       1 FMN401      0.0000 
      7 C4A       145.4540   61.9420  -34.8640 C.2       1 FMN401      0.0000 
      8 N5        144.7540   62.9340  -35.4730 N.2       1 FMN401      0.0000 
      9 C5A       144.4240   62.8410  -36.7830 C.ar      1 FMN401      0.0000 
     10 C6        143.5240   63.7300  -37.3580 C.ar      1 FMN401      0.0000 
     11 C7        143.1730   63.6180  -38.7030 C.ar      1 FMN401      0.0000 
     12 C7M       142.2030   64.5990  -39.3110 C.3       1 FMN401      0.0000 
     13 C8        143.7540   62.5340  -39.5200 C.ar      1 FMN401      0.0000 
     14 C8M       143.4110   62.3750  -40.9800 C.3       1 FMN401      0.0000 
     15 C9        144.6400   61.6450  -38.9460 C.ar      1 FMN401      0.0000 
     16 C9A       145.0090   61.7470  -37.6070 C.ar      1 FMN401      0.0000 
     17 N10       145.9410   60.8370  -37.0400 N.pl3     1 FMN401      0.0000 
     18 C10       146.0870   60.8580  -35.6390 C.2       1 FMN401      0.0000 
     19 C1'       146.4750   59.6820  -37.7680 C.3       1 FMN401      0.0000 
     20 C2'       145.4460   58.5630  -37.9180 C.3       1 FMN401      0.0000 
     21 O2'       145.1160   58.0330  -36.6280 O.3       1 FMN401      0.0000 
     22 C3'       145.9970   57.4280  -38.7800 C.3       1 FMN401      0.0000 
     23 O3'       147.1690   56.9060  -38.1390 O.3       1 FMN401      0.0000 
     24 C4'       146.3600   57.8610  -40.2060 C.3       1 FMN401      0.0000 
     25 O4'       145.4150   58.8220  -40.7020 O.3       1 FMN401      0.0000 
     26 C5'       146.4470   56.6710  -41.1700 C.3       1 FMN401      0.0000 
     27 O5'       145.2000   55.9660  -41.2700 O.3       1 FMN401      0.0000 
     28 P         144.2500   56.2260  -42.5390 P.3       1 FMN401      0.0000 
     29 O1P       145.1100   55.8390  -43.7140 O.co2     1 FMN401      0.0000 
     30 O2P       143.9420   57.7070  -42.5490 O.co2     1 FMN401      0.0000 
     31 O3P       143.0630   55.3530  -42.2640 O.co2     1 FMN401      0.0000 
@<TRIPOS>BOND
     1    1    2 1    
     2    1   18 2    
     3    2    3 2    
     4    2    4 am   
     5    4    5 am   
     6    5    6 2    
     7    5    7 1    
     8    7    8 2    
     9    7   18 1    
    10    8    9 1    
    11    9   10 ar   
    12    9   16 ar   
    13   10   11 ar   
    14   11   12 1    
    15   11   13 ar   
    16   13   14 1    
    17   13   15 ar   
    18   15   16 ar   
    19   16   17 1    
    20   17   18 1    
    21   17   19 1    
    22   19   20 1    
    23   20   21 1    
    24   20   22 1    
    25   22   23 1    
    26   22   24 1    
    27   24   25 1    
    28   24   26 1    
    29   26   27 1    
    30   27   28 1    
    31   28   29 ar   
    32   28   30 ar   
    33   28   31 ar   
@<TRIPOS>SUBSTRUCTURE
     1 FMN401      1 GROUP   
@<TRIPOS>SET
ATOM$ORANGE STATIC     ATOMS   COLORGROUP SYSTEM 
34 2 2 5 5 7 7 9 9 10 10 11 11 12 12 13 13 14 \
14 15 15 16 16 18 18 19 19 20 20 22 22 24 24 26 26 

