#    Name: 5xfv_1_FMN_CAVITY_N1_4
#    Modification time : Fri May 22 19:13:30 2020

@<TRIPOS>MOLECULE
5xfv_1_FMN_CAVITY_N1_4
   79     0     6     0     0
SMALL
NO_CHARGES


@<TRIPOS>ATOM
      1 OG        143.8200   58.7000  -41.9300 O.3       1 SER1        0.0000 
      2 OG        143.5000   60.7600  -41.5500 O.3       1 SER1        0.0000 
      3 OG        144.3700   59.6900  -40.9600 O.3       1 SER1        0.0000 
      4 OG        144.9200   60.6900  -39.9800 O.3       1 SER1        0.0000 
      5 OG        145.7900   59.6200  -39.3800 O.3       1 SER1        0.0000 
      6 OG        146.6600   58.5500  -38.7900 O.3       1 SER1        0.0000 
      7 OG        146.3400   60.6100  -38.4000 O.3       1 SER1        0.0000 
      8 OG        146.8900   61.6100  -37.4200 O.3       1 SER1        0.0000 
      9 OG        146.6900   61.8300  -32.9300 O.3       1 SER1        0.0000 
     10 O         144.1400   56.6400  -42.3200 O.2       2 ALA2        0.0000 
     11 O         145.2300   56.9900  -43.2900 O.2       2 ALA2        0.0000 
     12 N         144.4700   56.2100  -39.7800 N.am      2 ALA2        0.0000 
     13 O         144.6900   57.6300  -41.3400 O.2       2 ALA2        0.0000 
     14 N         145.5600   56.5700  -40.7500 N.am      2 ALA2        0.0000 
     15 N         146.4300   55.5000  -40.1600 N.am      2 ALA2        0.0000 
     16 N         147.5200   55.8500  -41.1200 N.am      2 ALA2        0.0000 
     17 N         146.1100   57.5600  -39.7700 N.am      2 ALA2        0.0000 
     18 N         146.9800   56.4900  -39.1800 N.am      2 ALA2        0.0000 
     19 O         147.2000   57.9100  -40.7400 O.2       2 ALA2        0.0000 
     20 N         148.0700   56.8400  -40.1400 N.am      2 ALA2        0.0000 
     21 N         144.7000   59.2700  -38.4100 N.am      2 ALA2        0.0000 
     22 O         144.0500   61.7600  -40.5700 O.2       2 ALA2        0.0000 
     23 N         144.3800   61.3300  -38.0300 N.am      2 ALA2        0.0000 
     24 N         145.2500   60.2600  -37.4300 N.am      2 ALA2        0.0000 
     25 N         146.1200   59.2000  -36.8400 N.am      2 ALA2        0.0000 
     26 O         143.7300   63.8200  -40.1800 O.2       2 ALA2        0.0000 
     27 O         144.6000   62.7500  -39.5900 O.2       2 ALA2        0.0000 
     28 O         145.4700   61.6800  -39.0000 O.2       2 ALA2        0.0000 
     29 N         147.2100   59.5500  -37.8100 N.am      2 ALA2        0.0000 
     30 N         142.1000   64.1100  -37.2700 N.am      2 ALA2        0.0000 
     31 O         144.0600   63.3900  -37.6400 O.2       2 ALA2        0.0000 
     32 N         144.9300   62.3200  -37.0500 N.am      2 ALA2        0.0000 
     33 N         145.8000   61.2600  -36.4500 N.am      2 ALA2        0.0000 
     34 N         146.6700   60.1900  -35.8600 N.am      2 ALA2        0.0000 
     35 O         146.0200   62.6800  -38.0200 O.2       2 ALA2        0.0000 
     36 N         145.2600   61.9000  -34.5100 N.am      2 ALA2        0.0000 
     37 N         146.1400   60.8300  -33.9100 N.am      2 ALA2        0.0000 
     38 N         146.3500   62.2500  -35.4800 N.am      2 ALA2        0.0000 
     39 N         147.2300   61.1800  -34.8800 N.am      2 ALA2        0.0000 
     40 N         146.5700   63.6700  -37.0400 N.am      2 ALA2        0.0000 
     41 N         147.4400   62.6000  -36.4400 N.am      2 ALA2        0.0000 
     42 N         146.2500   65.7300  -36.6500 N.am      2 ALA2        0.0000 
     43 O         147.1200   64.6600  -36.0600 O.2       2 ALA2        0.0000 
     44 O         147.9900   63.6000  -35.4600 O.2       2 ALA2        0.0000 
     45 OD1       145.5700   58.2000  -37.8200 O.co2     3 ASP3        0.0000 
     46 OD1       143.5200   64.0300  -35.6900 O.co2     3 ASP3        0.0000 
     47 OD1       144.6100   64.3800  -36.6600 O.co2     3 ASP3        0.0000 
     48 OD1       145.4800   63.3200  -36.0700 O.co2     3 ASP3        0.0000 
     49 OD1       145.8100   62.8900  -33.5300 O.co2     3 ASP3        0.0000 
     50 OD1       145.1600   65.3800  -35.6800 O.co2     3 ASP3        0.0000 
     51 OD1       146.0300   64.3100  -35.0900 O.co2     3 ASP3        0.0000 
     52 OD1       146.9000   63.2400  -34.5000 O.co2     3 ASP3        0.0000 
     53 OD1       146.5800   65.3100  -34.1100 O.co2     3 ASP3        0.0000 
     54 CZ        141.7700   64.5300  -39.8100 C.ar      4 PHE5        0.0000 
     55 CA        145.0100   55.5700  -41.7300 C.3       5 GLY6        0.0000 
     56 CA        146.1000   55.9200  -42.7000 C.3       5 GLY6        0.0000 
     57 CA        143.6000   57.2800  -40.3700 C.3       5 GLY6        0.0000 
     58 CA        145.7800   57.9800  -42.3100 C.3       5 GLY6        0.0000 
     59 CA        146.6500   56.9200  -41.7200 C.3       5 GLY6        0.0000 
     60 CA        147.7400   57.2700  -42.6900 C.3       5 GLY6        0.0000 
     61 CA        148.6100   56.2000  -42.0900 C.3       5 GLY6        0.0000 
     62 CA        142.4100   60.4100  -40.5800 C.3       5 GLY6        0.0000 
     63 CA        143.2800   59.3400  -39.9900 C.3       5 GLY6        0.0000 
     64 CA        144.1500   58.2800  -39.3900 C.3       5 GLY6        0.0000 
     65 CA        145.0200   57.2100  -38.8000 C.3       5 GLY6        0.0000 
     66 CA        142.0900   62.4700  -40.1900 C.3       5 GLY6        0.0000 
     67 CA        142.9600   61.4000  -39.6000 C.3       5 GLY6        0.0000 
     68 CA        143.8300   60.3400  -39.0100 C.3       5 GLY6        0.0000 
     69 CA        147.5300   57.4900  -38.2000 C.3       5 GLY6        0.0000 
     70 CA        141.5500   63.1100  -38.2400 C.3       5 GLY6        0.0000 
     71 CA        142.4200   62.0500  -37.6500 C.3       5 GLY6        0.0000 
     72 CA        142.6400   63.4600  -39.2100 C.3       5 GLY6        0.0000 
     73 CA        143.5100   62.4000  -38.6200 C.3       5 GLY6        0.0000 
     74 CA        142.9700   63.0400  -36.6700 C.3       5 GLY6        0.0000 
     75 CA        143.8400   61.9700  -36.0800 C.3       5 GLY6        0.0000 
     76 CA        143.1900   64.4600  -38.2300 C.3       5 GLY6        0.0000 
     77 CA        144.3900   62.9700  -35.1000 C.3       5 GLY6        0.0000 
     78 CA        147.4500   64.2400  -33.5200 C.3       5 GLY6        0.0000 
     79 DU        145.2400   58.6300  -40.3600 H         6 CUB7        0.0000 
@<TRIPOS>BOND
@<TRIPOS>SUBSTRUCTURE
     1 SER1        1 GROUP   
     2 ALA2       10 GROUP   
     3 ASP3       45 GROUP   
     4 PHE5       54 GROUP   
     5 GLY6       55 GROUP   
     6 CUB7       79 GROUP   
@<TRIPOS>SET

