#    Name: 5xfv_3_FMN
#    Modification time : Fri May 22 19:13:44 2020

@<TRIPOS>MOLECULE
5xfv_3_FMN
   31    33     1     0     1
SMALL
NO_CHARGES


@<TRIPOS>ATOM
      1 N1        168.4430   25.4910  -67.6390 N.2       1 FMN401      0.0000 
      2 C2        169.7660   25.5750  -67.9080 C.2       1 FMN401      0.0000 
      3 O2        170.3140   24.6050  -68.4910 O.2       1 FMN401      0.0000 
      4 N3        170.5010   26.6500  -67.5650 N.am      1 FMN401      0.0000 
      5 C4        169.9700   27.7160  -66.9250 C.2       1 FMN401      0.0000 
      6 O4        170.6620   28.7090  -66.6050 O.2       1 FMN401      0.0000 
      7 C4A       168.5270   27.7010  -66.6020 C.2       1 FMN401      0.0000 
      8 N5        167.8980   28.7290  -65.9760 N.2       1 FMN401      0.0000 
      9 C5A       166.6390   28.5760  -65.5040 C.ar      1 FMN401      0.0000 
     10 C6        166.0690   29.5550  -64.6880 C.ar      1 FMN401      0.0000 
     11 C7        164.7840   29.4030  -64.1730 C.ar      1 FMN401      0.0000 
     12 C7M       164.2040   30.4860  -63.2920 C.3       1 FMN401      0.0000 
     13 C8        164.0070   28.1820  -64.5140 C.ar      1 FMN401      0.0000 
     14 C8M       162.6070   27.9460  -64.0160 C.3       1 FMN401      0.0000 
     15 C9        164.5730   27.2170  -65.3350 C.ar      1 FMN401      0.0000 
     16 C9A       165.8600   27.3610  -65.8480 C.ar      1 FMN401      0.0000 
     17 N10       166.4200   26.3770  -66.6980 N.pl3     1 FMN401      0.0000 
     18 C10       167.7820   26.4860  -67.0070 C.2       1 FMN401      0.0000 
     19 C1'       165.7260   25.1340  -67.0090 C.3       1 FMN401      0.0000 
     20 C2'       165.7710   24.1520  -65.8320 C.3       1 FMN401      0.0000 
     21 O2'       167.1300   23.7430  -65.6100 O.3       1 FMN401      0.0000 
     22 C3'       164.9420   22.8960  -66.1170 C.3       1 FMN401      0.0000 
     23 O3'       165.5110   22.2380  -67.2600 O.3       1 FMN401      0.0000 
     24 C4'       163.4590   23.1570  -66.3910 C.3       1 FMN401      0.0000 
     25 O4'       162.9390   24.1560  -65.5050 O.3       1 FMN401      0.0000 
     26 C5'       162.6020   21.9020  -66.2670 C.3       1 FMN401      0.0000 
     27 O5'       162.6680   21.4120  -64.9240 O.3       1 FMN401      0.0000 
     28 P         161.4900   21.6630  -63.8630 P.3       1 FMN401      0.0000 
     29 O1P       160.2410   21.0570  -64.4310 O.co2     1 FMN401      0.0000 
     30 O2P       161.4430   23.1620  -63.6790 O.co2     1 FMN401      0.0000 
     31 O3P       161.9740   20.9490  -62.6240 O.co2     1 FMN401      0.0000 
@<TRIPOS>BOND
     1    1    2 1    
     2    1   18 2    
     3    2    3 2    
     4    2    4 am   
     5    4    5 am   
     6    5    6 2    
     7    5    7 1    
     8    7    8 2    
     9    7   18 1    
    10    8    9 1    
    11    9   10 ar   
    12    9   16 ar   
    13   10   11 ar   
    14   11   12 1    
    15   11   13 ar   
    16   13   14 1    
    17   13   15 ar   
    18   15   16 ar   
    19   16   17 1    
    20   17   18 1    
    21   17   19 1    
    22   19   20 1    
    23   20   21 1    
    24   20   22 1    
    25   22   23 1    
    26   22   24 1    
    27   24   25 1    
    28   24   26 1    
    29   26   27 1    
    30   27   28 1    
    31   28   29 ar   
    32   28   30 ar   
    33   28   31 ar   
@<TRIPOS>SUBSTRUCTURE
     1 FMN401      1 GROUP   
@<TRIPOS>SET
ATOM$ORANGE STATIC     ATOMS   COLORGROUP SYSTEM 
34 2 2 5 5 7 7 9 9 10 10 11 11 12 12 13 13 14 \
14 15 15 16 16 18 18 19 19 20 20 22 22 24 24 26 26 

