#    Name: 5xfv_4_FMN
#    Modification time : Fri May 22 19:13:49 2020

@<TRIPOS>MOLECULE
5xfv_4_FMN
   31    33     1     0     1
SMALL
NO_CHARGES


@<TRIPOS>ATOM
      1 N1        144.4820   15.6770  -84.4480 N.2       1 FMN401      0.0000 
      2 C2        144.3010   15.5980  -85.7860 C.2       1 FMN401      0.0000 
      3 O2        144.6780   16.5570  -86.5020 O.2       1 FMN401      0.0000 
      4 N3        143.7320   14.5270  -86.3750 N.am      1 FMN401      0.0000 
      5 C4        143.3020   13.4690  -85.6670 C.2       1 FMN401      0.0000 
      6 O4        142.7730   12.4850  -86.2440 O.2       1 FMN401      0.0000 
      7 C4A       143.4740   13.4770  -84.1960 C.2       1 FMN401      0.0000 
      8 N5        143.0780   12.4520  -83.3960 N.2       1 FMN401      0.0000 
      9 C5A       143.0580   12.5750  -82.0480 C.ar      1 FMN401      0.0000 
     10 C6        142.4690   11.5900  -81.2510 C.ar      1 FMN401      0.0000 
     11 C7        142.4380   11.7210  -79.8700 C.ar      1 FMN401      0.0000 
     12 C7M       141.8080   10.6450  -79.0230 C.3       1 FMN401      0.0000 
     13 C8        143.0370   12.9280  -79.2340 C.ar      1 FMN401      0.0000 
     14 C8M       143.0550   13.1330  -77.7460 C.3       1 FMN401      0.0000 
     15 C9        143.6290   13.8960  -80.0290 C.ar      1 FMN401      0.0000 
     16 C9A       143.6560   13.7810  -81.4140 C.ar      1 FMN401      0.0000 
     17 N10       144.2640   14.7680  -82.2260 N.pl3     1 FMN401      0.0000 
     18 C10       144.1090   14.6820  -83.6140 C.2       1 FMN401      0.0000 
     19 C1'       144.8290   15.9900  -81.6460 C.3       1 FMN401      0.0000 
     20 C2'       143.7100   16.9620  -81.2810 C.3       1 FMN401      0.0000 
     21 O2'       143.0420   17.3740  -82.4800 O.3       1 FMN401      0.0000 
     22 C3'       144.2800   18.1960  -80.5960 C.3       1 FMN401      0.0000 
     23 O3'       145.1750   18.8280  -81.5210 O.3       1 FMN401      0.0000 
     24 C4'       145.0180   17.8730  -79.3000 C.3       1 FMN401      0.0000 
     25 O4'       144.2940   16.8730  -78.5620 O.3       1 FMN401      0.0000 
     26 C5'       145.1920   19.1230  -78.4400 C.3       1 FMN401      0.0000 
     27 O5'       143.9110   19.6520  -78.0670 O.3       1 FMN401      0.0000 
     28 P         143.2980   19.3810  -76.6120 P.3       1 FMN401      0.0000 
     29 O1P       144.2490   19.9510  -75.5770 O.co2     1 FMN401      0.0000 
     30 O2P       143.1980   17.8720  -76.5690 O.co2     1 FMN401      0.0000 
     31 O3P       141.9450   20.0750  -76.5950 O.co2     1 FMN401      0.0000 
@<TRIPOS>BOND
     1    1    2 1    
     2    1   18 2    
     3    2    3 2    
     4    2    4 am   
     5    4    5 am   
     6    5    6 2    
     7    5    7 1    
     8    7    8 2    
     9    7   18 1    
    10    8    9 1    
    11    9   10 ar   
    12    9   16 ar   
    13   10   11 ar   
    14   11   12 1    
    15   11   13 ar   
    16   13   14 1    
    17   13   15 ar   
    18   15   16 ar   
    19   16   17 1    
    20   17   18 1    
    21   17   19 1    
    22   19   20 1    
    23   20   21 1    
    24   20   22 1    
    25   22   23 1    
    26   22   24 1    
    27   24   25 1    
    28   24   26 1    
    29   26   27 1    
    30   27   28 1    
    31   28   29 ar   
    32   28   30 ar   
    33   28   31 ar   
@<TRIPOS>SUBSTRUCTURE
     1 FMN401      1 GROUP   
@<TRIPOS>SET
ATOM$ORANGE STATIC     ATOMS   COLORGROUP SYSTEM 
34 2 2 5 5 7 7 9 9 10 10 11 11 12 12 13 13 14 \
14 15 15 16 16 18 18 19 19 20 20 22 22 24 24 26 26 

