#    Name: 6b4j_1_ANP
#    Modification time : Fri May 22 19:24:31 2020

@<TRIPOS>MOLECULE
6b4j_1_ANP
   48    51     1     0     1
SMALL
NO_CHARGES


@<TRIPOS>ATOM
      1 PG         47.9650  -13.5900   20.1750 P.3       1 ANP504      0.0000 
      2 O1G        48.1300  -12.2530   19.6260 O.co2     1 ANP504      0.0000 
      3 O2G        49.1200  -14.5650   19.7160 O.co2     1 ANP504      0.0000 
      4 O3G        46.5880  -14.2280   19.7320 O.co2     1 ANP504      0.0000 
      5 PB         47.3030  -14.5640   22.9160 P.3       1 ANP504      0.0000 
      6 O1B        48.2460  -15.6600   23.0750 Du        1 ANP504      0.0000 
      7 O2B        46.5010  -15.7480   22.2670 O.co2     1 ANP504      0.0000 
      8 N3B        48.0030  -13.5580   21.8090 N.3       1 ANP504      0.0000 
      9 PA         49.4170  -15.0010   25.0160 P.3       1 ANP504      0.0000 
     10 O1A        49.6690  -16.4570   25.0000 O.co2     1 ANP504      0.0000 
     11 O2A        50.4590  -14.1530   24.2860 O.co2     1 ANP504      0.0000 
     12 O3A        47.9950  -14.6460   24.3910 O.3       1 ANP504      0.0000 
     13 O5'        49.3170  -14.4460   26.5280 O.3       1 ANP504      0.0000 
     14 C5'        48.4320  -13.3560   26.8580 C.3       1 ANP504      0.0000 
     15 C4'        48.7280  -12.8710   28.2550 C.3       1 ANP504      0.0000 
     16 O4'        48.0530  -13.7140   29.2160 O.3       1 ANP504      0.0000 
     17 C3'        50.2040  -12.8760   28.6510 C.3       1 ANP504      0.0000 
     18 O3'        50.5110  -11.7540   29.4710 O.3       1 ANP504      0.0000 
     19 C2'        50.3500  -14.1960   29.4140 C.3       1 ANP504      0.0000 
     20 O2'        51.3870  -14.1290   30.3860 O.3       1 ANP504      0.0000 
     21 C1'        48.9900  -14.2960   30.1020 C.3       1 ANP504      0.0000 
     22 N9         48.5570  -15.6590   30.3860 N.pl3     1 ANP504      0.0000 
     23 C8         48.3330  -16.6580   29.4720 C.2       1 ANP504      0.0000 
     24 N7         47.8970  -17.7750   29.9970 N.2       1 ANP504      0.0000 
     25 C5         47.8290  -17.4980   31.3590 C.ar      1 ANP504      0.0000 
     26 C6         47.4270  -18.2670   32.4620 C.ar      1 ANP504      0.0000 
     27 N6         46.9820  -19.5230   32.3720 N.pl3     1 ANP504      0.0000 
     28 N1         47.4810  -17.6870   33.6820 N.ar      1 ANP504      0.0000 
     29 C2         47.9070  -16.4240   33.7760 C.ar      1 ANP504      0.0000 
     30 N3         48.3060  -15.6000   32.8040 N.ar      1 ANP504      0.0000 
     31 C4         48.2410  -16.1990   31.6050 C.ar      1 ANP504      0.0000 
     32 HOG2       49.1380  -14.8750   18.7730 H         1 ANP504      0.0000 
     33 HOG3       46.3000  -14.3380   18.7880 H         1 ANP504      0.0000 
     34 HOB2       45.6230  -16.0770   22.5940 H         1 ANP504      0.0000 
     35 HNB1       48.5460  -12.7960   22.2020 H         1 ANP504      0.0000 
     36 HOA2       51.4190  -14.3300   24.1040 H         1 ANP504      0.0000 
     37 H5'1       47.4330  -13.7760   26.7520 H         1 ANP504      0.0000 
     38 H5'2       48.5240  -12.5400   26.1440 H         1 ANP504      0.0000 
     39 H4'        48.2810  -11.8920   28.4210 H         1 ANP504      0.0000 
     40 H3'        50.8400  -12.8300   27.7690 H         1 ANP504      0.0000 
     41 HO3'       51.2860  -11.2740   29.0770 H         1 ANP504      0.0000 
     42 H2'        50.5080  -15.0160   28.7150 H         1 ANP504      0.0000 
     43 HO2'       52.1040  -14.7350   30.0630 H         1 ANP504      0.0000 
     44 H1'        48.9670  -13.7260   31.0300 H         1 ANP504      0.0000 
     45 H8         48.5110  -16.5100   28.4080 H         1 ANP504      0.0000 
     46 HN61       46.9200  -19.9710   31.4640 H         1 ANP504      0.0000 
     47 HN62       46.6960  -20.0590   33.1850 H         1 ANP504      0.0000 
     48 H2         47.9280  -16.0240   34.7890 H         1 ANP504      0.0000 
@<TRIPOS>BOND
     1    1    2 ar   
     2    1    3 ar   
     3    1    4 ar   
     4    1    8 1    
     5    3   32 1    
     6    4   33 1    
     7    5    6 du   
     8    5    7 ar   
     9    5    8 1    
    10    5   12 1    
    11    6   12 du   
    12    7   34 1    
    13    8   35 1    
    14    9   10 ar   
    15    9   11 ar   
    16    9   12 1    
    17    9   13 1    
    18   11   36 1    
    19   13   14 1    
    20   14   15 1    
    21   14   37 1    
    22   14   38 1    
    23   15   16 1    
    24   15   17 1    
    25   15   39 1    
    26   16   21 1    
    27   17   18 1    
    28   17   19 1    
    29   17   40 1    
    30   18   41 1    
    31   19   20 1    
    32   19   21 1    
    33   19   42 1    
    34   20   43 1    
    35   21   22 1    
    36   21   44 1    
    37   22   23 1    
    38   22   31 1    
    39   23   24 2    
    40   23   45 1    
    41   24   25 1    
    42   25   26 ar   
    43   25   31 ar   
    44   26   27 1    
    45   26   28 ar   
    46   27   46 1    
    47   27   47 1    
    48   28   29 ar   
    49   29   30 ar   
    50   29   48 1    
    51   30   31 ar   
@<TRIPOS>SUBSTRUCTURE
     1 ANP504      1 GROUP   
@<TRIPOS>SET
ATOM$ORANGE STATIC     ATOMS   COLORGROUP SYSTEM 
20 14 14 15 15 17 17 19 19 21 21 23 23 25 25 26 26 29 \
29 31 31 

