#    Name: 6b4j_2_ANP
#    Modification time : Fri May 22 19:24:39 2020

@<TRIPOS>MOLECULE
6b4j_2_ANP
   47    50     1     0     1
SMALL
NO_CHARGES


@<TRIPOS>ATOM
      1 PG         81.6080    1.7770   19.6540 P.3       1 ANP504      0.0000 
      2 O1G        81.4100    0.3750   19.3190 O.co2     1 ANP504      0.0000 
      3 O2G        80.3920    2.6750   19.2010 O.co2     1 ANP504      0.0000 
      4 O3G        82.9130    2.3510   18.9760 O.co2     1 ANP504      0.0000 
      5 PB         82.3420    3.2480   22.1430 P.3       1 ANP504      0.0000 
      6 O1B        81.3380    4.2920   22.0050 Du        1 ANP504      0.0000 
      7 O2B        83.1250    4.2940   21.2850 O.co2     1 ANP504      0.0000 
      8 N3B        81.7570    1.9760   21.2690 N.3       1 ANP504      0.0000 
      9 PA         80.1090    3.9710   24.0130 P.3       1 ANP504      0.0000 
     10 O1A        79.8000    5.4050   23.8280 O.co2     1 ANP504      0.0000 
     11 O2A        79.1580    3.0030   23.3140 O.co2     1 ANP504      0.0000 
     12 O3A        81.5830    3.6220   23.5260 O.3       1 ANP504      0.0000 
     13 O5'        80.1450    3.5640   25.5710 O.3       1 ANP504      0.0000 
     14 C5'        80.7850    2.3430   25.9970 C.3       1 ANP504      0.0000 
     15 C4'        80.3560    2.0390   27.4100 C.3       1 ANP504      0.0000 
     16 O4'        80.9870    2.9700   28.3160 O.3       1 ANP504      0.0000 
     17 C3'        78.8540    2.1440   27.6700 C.3       1 ANP504      0.0000 
     18 O3'        78.4230    1.1470   28.5890 O.3       1 ANP504      0.0000 
     19 C2'        78.7070    3.5550   28.2420 C.3       1 ANP504      0.0000 
     20 O2'        77.5870    3.6520   29.1140 O.3       1 ANP504      0.0000 
     21 C1'        80.0060    3.6950   29.0340 C.3       1 ANP504      0.0000 
     22 N9         80.4750    5.0670   29.1840 N.pl3     1 ANP504      0.0000 
     23 C8         80.5750    6.0180   28.1990 C.2       1 ANP504      0.0000 
     24 N7         81.0320    7.1710   28.6210 N.2       1 ANP504      0.0000 
     25 C5         81.2480    6.9730   29.9650 C.ar      1 ANP504      0.0000 
     26 C6         81.7210    7.8170   30.9950 C.ar      1 ANP504      0.0000 
     27 N6         82.0870    9.0880   30.7960 N.pl3     1 ANP504      0.0000 
     28 N1         81.8060    7.3090   32.2410 N.ar      1 ANP504      0.0000 
     29 C2         81.4430    6.0380   32.4440 C.ar      1 ANP504      0.0000 
     30 N3         80.9880    5.1450   31.5600 N.ar      1 ANP504      0.0000 
     31 C4         80.9140    5.6790   30.3400 C.ar      1 ANP504      0.0000 
     32 HOG2       80.4060    3.0760   18.2930 H         1 ANP504      0.0000 
     33 HOG3       83.0700    2.3750   17.9960 H         1 ANP504      0.0000 
     34 HOB2       83.9790    4.7190   21.5610 H         1 ANP504      0.0000 
     35 HNB1       81.4360    1.1870   21.8200 H         1 ANP504      0.0000 
     36 HOA2       78.1890    3.0850   23.1120 H         1 ANP504      0.0000 
     37 H5'1       81.8510    2.5430   25.9020 H         1 ANP504      0.0000 
     38 H5'2       80.5420    1.5130   25.3350 H         1 ANP504      0.0000 
     39 H4'        80.7440    1.0730   27.7280 H         1 ANP504      0.0000 
     40 H3'        78.2940    2.0080   26.7460 H         1 ANP504      0.0000 
     41 H2'        78.6490    4.2820   27.4340 H         1 ANP504      0.0000 
     42 HO2'       76.8100    3.8780   28.5370 H         1 ANP504      0.0000 
     43 H1'        79.9230    3.2480   30.0230 H         1 ANP504      0.0000 
     44 H8         80.2930    5.8080   27.1690 H         1 ANP504      0.0000 
     45 HN61       82.0310    9.4870   29.8640 H         1 ANP504      0.0000 
     46 HN62       82.4250    9.6820   31.5460 H         1 ANP504      0.0000 
     47 H2         81.5350    5.6970   33.4740 H         1 ANP504      0.0000 
@<TRIPOS>BOND
     1    1    2 ar   
     2    1    3 ar   
     3    1    4 ar   
     4    1    8 1    
     5    3   32 1    
     6    4   33 1    
     7    5    6 du   
     8    5    7 ar   
     9    5    8 1    
    10    5   12 1    
    11    6   12 du   
    12    7   34 1    
    13    8   35 1    
    14    9   10 ar   
    15    9   11 ar   
    16    9   12 1    
    17    9   13 1    
    18   11   36 1    
    19   13   14 1    
    20   14   15 1    
    21   14   37 1    
    22   14   38 1    
    23   15   16 1    
    24   15   17 1    
    25   15   39 1    
    26   16   21 1    
    27   17   18 1    
    28   17   19 1    
    29   17   40 1    
    30   19   20 1    
    31   19   21 1    
    32   19   41 1    
    33   20   42 1    
    34   21   22 1    
    35   21   43 1    
    36   22   23 1    
    37   22   31 1    
    38   23   24 2    
    39   23   44 1    
    40   24   25 1    
    41   25   26 ar   
    42   25   31 ar   
    43   26   27 1    
    44   26   28 ar   
    45   27   45 1    
    46   27   46 1    
    47   28   29 ar   
    48   29   30 ar   
    49   29   47 1    
    50   30   31 ar   
@<TRIPOS>SUBSTRUCTURE
     1 ANP504      1 GROUP   
@<TRIPOS>SET
ATOM$ORANGE STATIC     ATOMS   COLORGROUP SYSTEM 
20 14 14 15 15 17 17 19 19 21 21 23 23 25 25 26 26 29 \
29 31 31 

