#    Name: 6gnq_5_CRS_CAVITY_N1_6
#    Modification time : Fri May 22 19:28:59 2020

@<TRIPOS>MOLECULE
6gnq_5_CRS_CAVITY_N1_6
   43     0     5     0     0
SMALL
NO_CHARGES


@<TRIPOS>ATOM
      1 OG        -34.3900    9.9700   34.7500 O.3       1 SER1        0.0000 
      2 OG        -33.3400    8.8900   34.6800 O.3       1 SER1        0.0000 
      3 OG        -39.0500    9.4300   37.8200 O.3       1 SER1        0.0000 
      4 OG        -33.9800   10.2800   36.1500 O.3       1 SER1        0.0000 
      5 N         -39.8700    8.8000   35.0000 N.am      2 ALA2        0.0000 
      6 N         -40.9700   11.9500   34.6200 N.am      2 ALA2        0.0000 
      7 N         -40.5100   10.1900   36.4800 N.am      2 ALA2        0.0000 
      8 N         -39.5100   11.1900   35.9600 N.am      2 ALA2        0.0000 
      9 O         -39.5600   13.2600   35.5200 O.2       2 ALA2        0.0000 
     10 N         -38.5200   12.1900   35.4500 N.am      2 ALA2        0.0000 
     11 O         -32.3500    9.8900   34.1700 O.2       2 ALA2        0.0000 
     12 N         -40.1500   12.5800   37.4400 N.am      2 ALA2        0.0000 
     13 N         -39.1000   11.5100   37.3700 N.am      2 ALA2        0.0000 
     14 N         -37.0600   11.4300   36.8000 N.am      2 ALA2        0.0000 
     15 N         -35.0200   11.3500   36.2200 N.am      2 ALA2        0.0000 
     16 N         -30.8900    9.1300   35.5100 N.am      2 ALA2        0.0000 
     17 O         -34.6100   11.6700   37.6300 O.2       2 ALA2        0.0000 
     18 N         -33.5700   10.5900   37.5600 N.am      2 ALA2        0.0000 
     19 N         -32.5700   11.5900   37.0500 N.am      2 ALA2        0.0000 
     20 N         -31.5300   10.5200   36.9900 N.am      2 ALA2        0.0000 
     21 CZ        -39.4600    9.1200   36.4100 C.ar      3 PHE5        0.0000 
     22 CZ        -38.4700   10.1200   35.9000 C.ar      3 PHE5        0.0000 
     23 CZ        -36.4300   10.0400   35.3200 C.ar      3 PHE5        0.0000 
     24 CZ        -36.0200   10.3600   36.7300 C.ar      3 PHE5        0.0000 
     25 CZ        -32.9300    9.2100   36.0900 C.ar      3 PHE5        0.0000 
     26 CZ        -34.5600    9.6000   38.0800 C.ar      3 PHE5        0.0000 
     27 CZ        -33.5200    8.5200   38.0100 C.ar      3 PHE5        0.0000 
     28 CA        -40.5600   12.2700   36.0300 C.3       4 GLY6        0.0000 
     29 CA        -37.4700   11.1200   35.3900 C.3       4 GLY6        0.0000 
     30 CA        -36.4800   12.1100   34.8800 C.3       4 GLY6        0.0000 
     31 CA        -35.4300   11.0400   34.8100 C.3       4 GLY6        0.0000 
     32 CA        -34.4400   12.0400   34.3000 C.3       4 GLY6        0.0000 
     33 CA        -33.3900   10.9600   34.2300 C.3       4 GLY6        0.0000 
     34 CA        -38.0600   10.4300   37.3100 C.3       4 GLY6        0.0000 
     35 CA        -31.8900    8.1300   36.0300 C.3       4 GLY6        0.0000 
     36 CA        -34.0300   12.3500   35.7100 C.3       4 GLY6        0.0000 
     37 CA        -32.9800   11.2800   35.6400 C.3       4 GLY6        0.0000 
     38 CA        -31.9400   10.2000   35.5800 C.3       4 GLY6        0.0000 
     39 CA        -38.6400    9.7500   39.2300 C.3       4 GLY6        0.0000 
     40 CA        -36.6000    9.6700   38.6500 C.3       4 GLY6        0.0000 
     41 CA        -35.6100   10.6700   38.1400 C.3       4 GLY6        0.0000 
     42 CA        -32.5200    9.5200   37.5000 C.3       4 GLY6        0.0000 
     43 DU        -40.1000   10.5100   37.8800 H         5 CUB7        0.0000 
@<TRIPOS>BOND
@<TRIPOS>SUBSTRUCTURE
     1 SER1        1 GROUP   
     2 ALA2        5 GROUP   
     3 PHE5       21 GROUP   
     4 GLY6       28 GROUP   
     5 CUB7       43 GROUP   
@<TRIPOS>SET

