#    Name: 6gnq_5_CRS
#    Modification time : Fri May 22 19:28:59 2020

@<TRIPOS>MOLECULE
6gnq_5_CRS
    8     8     1     0     0
SMALL
NO_CHARGES


@<TRIPOS>ATOM
      1 C1        -33.5500   11.7960   37.1070 C.ar      1 CRS101      0.0000 
      2 C2        -34.6300   11.9450   36.2530 C.ar      1 CRS101      0.0000 
      3 C3        -34.6960   11.1840   35.0990 C.ar      1 CRS101      0.0000 
      4 C4        -33.6950   10.2680   34.7850 C.ar      1 CRS101      0.0000 
      5 C5        -32.6140   10.1140   35.6400 C.ar      1 CRS101      0.0000 
      6 C6        -32.5400   10.8780   36.8050 C.ar      1 CRS101      0.0000 
      7 C7        -35.8760   11.3630   34.1970 C.3       1 CRS101      0.0000 
      8 O1        -33.5150   12.5620   38.2320 O.3       1 CRS101      0.0000 
@<TRIPOS>BOND
     1    1    2 ar   
     2    1    6 ar   
     3    1    8 1    
     4    2    3 ar   
     5    3    4 ar   
     6    3    7 1    
     7    4    5 ar   
     8    5    6 ar   
@<TRIPOS>SUBSTRUCTURE
     1 CRS101      1 GROUP   
@<TRIPOS>SET

