#    Name: 6gnq_4_CRS
#    Modification time : Fri May 22 19:28:56 2020

@<TRIPOS>MOLECULE
6gnq_4_CRS
    8     8     1     0     0
SMALL
NO_CHARGES


@<TRIPOS>ATOM
      1 C1        -42.3070    7.4410   19.2230 C.ar      1 CRS101      0.0000 
      2 C2        -41.8910    8.2630   20.2580 C.ar      1 CRS101      0.0000 
      3 C3        -40.8770    7.8550   21.1130 C.ar      1 CRS101      0.0000 
      4 C4        -40.2680    6.6180   20.9470 C.ar      1 CRS101      0.0000 
      5 C5        -40.6790    5.7880   19.9060 C.ar      1 CRS101      0.0000 
      6 C6        -41.6970    6.2020   19.0430 C.ar      1 CRS101      0.0000 
      7 C7        -40.4470    8.7650   22.2210 C.3       1 CRS101      0.0000 
      8 O1        -43.2990    7.8710   18.3940 O.3       1 CRS101      0.0000 
@<TRIPOS>BOND
     1    1    2 ar   
     2    1    6 ar   
     3    1    8 1    
     4    2    3 ar   
     5    3    4 ar   
     6    3    7 1    
     7    4    5 ar   
     8    5    6 ar   
@<TRIPOS>SUBSTRUCTURE
     1 CRS101      1 GROUP   
@<TRIPOS>SET

