#    Name: 6gnq_8_CRS_CAVITY_N1_6
#    Modification time : Fri May 22 19:29:05 2020

@<TRIPOS>MOLECULE
6gnq_8_CRS_CAVITY_N1_6
   46     0     5     0     0
SMALL
NO_CHARGES


@<TRIPOS>ATOM
      1 OG        -46.8000   11.7200  -21.1400 O.3       1 SER1        0.0000 
      2 OG        -45.8000   12.7200  -21.6500 O.3       1 SER1        0.0000 
      3 OG        -44.7600   11.6400  -21.7200 O.3       1 SER1        0.0000 
      4 OG        -48.1200   16.5700  -18.6400 O.3       1 SER1        0.0000 
      5 OG        -46.0800   16.4900  -19.2200 O.3       1 SER1        0.0000 
      6 N         -47.2600   13.4800  -23.0000 N.am      2 ALA2        0.0000 
      7 O         -46.2600   14.4700  -23.5100 O.2       2 ALA2        0.0000 
      8 N         -45.2200   13.4000  -23.5700 N.am      2 ALA2        0.0000 
      9 N         -50.9800   16.0100  -20.8800 N.am      2 ALA2        0.0000 
     10 N         -49.9300   14.9400  -20.9500 N.am      2 ALA2        0.0000 
     11 N         -48.8900   13.8600  -21.0100 N.am      2 ALA2        0.0000 
     12 N         -44.7100    9.5700  -21.2700 N.am      2 ALA2        0.0000 
     13 N         -49.9800   17.0100  -21.3900 N.am      2 ALA2        0.0000 
     14 N         -48.9400   15.9400  -21.4600 N.am      2 ALA2        0.0000 
     15 N         -47.8900   14.8600  -21.5200 N.am      2 ALA2        0.0000 
     16 N         -46.8500   13.7900  -21.5900 N.am      2 ALA2        0.0000 
     17 N         -43.8100   14.7100  -22.6800 N.am      2 ALA2        0.0000 
     18 N         -45.3000    8.8800  -19.3500 N.am      2 ALA2        0.0000 
     19 N         -49.5200   15.2500  -19.5400 N.am      2 ALA2        0.0000 
     20 N         -49.1200   15.5700  -18.1300 N.am      2 ALA2        0.0000 
     21 CZ        -44.8100   13.7100  -22.1600 C.ar      3 PHE5        0.0000 
     22 CZ        -43.7600   12.6400  -22.2300 C.ar      3 PHE5        0.0000 
     23 CZ        -48.4800   14.1800  -19.6000 C.ar      3 PHE5        0.0000 
     24 CZ        -47.4800   15.1800  -20.1200 C.ar      3 PHE5        0.0000 
     25 CZ        -45.4400   15.1000  -20.6900 C.ar      3 PHE5        0.0000 
     26 CZ        -43.4000   15.0300  -21.2700 C.ar      3 PHE5        0.0000 
     27 CA        -46.6200   12.0900  -24.4700 C.3       4 GLY6        0.0000 
     28 CA        -48.2500   12.4800  -22.4800 C.3       4 GLY6        0.0000 
     29 CA        -47.2100   11.4000  -22.5500 C.3       4 GLY6        0.0000 
     30 CA        -46.1600   10.3300  -22.6100 C.3       4 GLY6        0.0000 
     31 CA        -46.2100   12.4000  -23.0600 C.3       4 GLY6        0.0000 
     32 CA        -45.1700   11.3300  -23.1300 C.3       4 GLY6        0.0000 
     33 CA        -44.1700   12.3300  -23.6400 C.3       4 GLY6        0.0000 
     34 CA        -50.9300   13.9400  -20.4400 C.3       4 GLY6        0.0000 
     35 CA        -47.8400   12.7900  -21.0800 C.3       4 GLY6        0.0000 
     36 CA        -45.7500   10.6400  -21.2100 C.3       4 GLY6        0.0000 
     37 CA        -43.7100   10.5700  -21.7800 C.3       4 GLY6        0.0000 
     38 CA        -45.8500   14.7900  -22.1000 C.3       4 GLY6        0.0000 
     39 CA        -44.8600   15.7900  -22.6100 C.3       4 GLY6        0.0000 
     40 CA        -44.3000    9.8800  -19.8600 C.3       4 GLY6        0.0000 
     41 CA        -48.5300   16.2500  -20.0500 C.3       4 GLY6        0.0000 
     42 CA        -46.4900   16.1800  -20.6300 C.3       4 GLY6        0.0000 
     43 CA        -44.4500   16.1000  -21.2000 C.3       4 GLY6        0.0000 
     44 CA        -47.1200   17.5600  -19.1500 C.3       4 GLY6        0.0000 
     45 CA        -45.0800   17.4900  -19.7300 C.3       4 GLY6        0.0000 
     46 DU        -50.5700   16.3300  -19.4700 H         5 CUB7        0.0000 
@<TRIPOS>BOND
@<TRIPOS>SUBSTRUCTURE
     1 SER1        1 GROUP   
     2 ALA2        6 GROUP   
     3 PHE5       21 GROUP   
     4 GLY6       27 GROUP   
     5 CUB7       46 GROUP   
@<TRIPOS>SET

