#    Name: 6gnq_7_CRS_CAVITY_N1_6
#    Modification time : Fri May 22 19:29:03 2020

@<TRIPOS>MOLECULE
6gnq_7_CRS_CAVITY_N1_6
   47     0     5     0     0
SMALL
NO_CHARGES


@<TRIPOS>ATOM
      1 OG        -31.6800    1.5100  -24.8600 O.3       1 SER1        0.0000 
      2 OG        -31.8600    1.1400  -21.5300 O.3       1 SER1        0.0000 
      3 OG        -30.8700    2.1400  -22.0400 O.3       1 SER1        0.0000 
      4 OG        -32.5000    2.5200  -20.0600 O.3       1 SER1        0.0000 
      5 OG        -31.4500    1.4500  -20.1200 O.3       1 SER1        0.0000 
      6 OG        -30.4600    2.4500  -20.6300 O.3       1 SER1        0.0000 
      7 N         -32.4000   -3.2700  -26.7800 N.am      2 ALA2        0.0000 
      8 N         -33.0400   -1.8800  -25.3100 N.am      2 ALA2        0.0000 
      9 N         -32.0400   -0.8800  -25.8200 N.am      2 ALA2        0.0000 
     10 N         -31.0000   -1.9500  -25.8800 N.am      2 ALA2        0.0000 
     11 N         -31.6400   -0.5700  -24.4100 N.am      2 ALA2        0.0000 
     12 N         -30.6400    0.4300  -24.9200 N.am      2 ALA2        0.0000 
     13 N         -31.2300   -0.2500  -23.0000 N.am      2 ALA2        0.0000 
     14 N         -30.2300    0.7500  -23.5100 N.am      2 ALA2        0.0000 
     15 N         -29.8200    1.0600  -22.1100 N.am      2 ALA2        0.0000 
     16 N         -28.7800   -0.0100  -22.1700 N.am      2 ALA2        0.0000 
     17 O         -28.8300    2.0600  -22.6200 O.2       2 ALA2        0.0000 
     18 N         -29.4600    3.4500  -21.1400 N.am      2 ALA2        0.0000 
     19 N         -28.4200    2.3700  -21.2100 N.am      2 ALA2        0.0000 
     20 N         -31.0900    3.8400  -19.1600 N.am      2 ALA2        0.0000 
     21 CZ        -33.0900    0.1900  -25.7500 C.ar      3 PHE5        0.0000 
     22 CZ        -31.2800    1.8200  -23.4500 C.ar      3 PHE5        0.0000 
     23 CZ        -30.9200    4.2100  -22.4900 C.ar      3 PHE5        0.0000 
     24 CZ        -29.8700    3.1300  -22.5500 C.ar      3 PHE5        0.0000 
     25 CZ        -31.5000    3.5200  -20.5700 C.ar      3 PHE5        0.0000 
     26 CA        -33.5000   -0.1200  -27.1600 C.3       4 GLY6        0.0000 
     27 CA        -32.4500   -1.1900  -27.2300 C.3       4 GLY6        0.0000 
     28 CA        -30.3600   -3.3400  -27.3600 C.3       4 GLY6        0.0000 
     29 CA        -32.5000    0.8800  -27.6700 C.3       4 GLY6        0.0000 
     30 CA        -31.4600   -0.1900  -27.7400 C.3       4 GLY6        0.0000 
     31 CA        -30.4100   -1.2700  -27.8000 C.3       4 GLY6        0.0000 
     32 CA        -32.0900    1.1900  -26.2700 C.3       4 GLY6        0.0000 
     33 CA        -31.0500    0.1200  -26.3300 C.3       4 GLY6        0.0000 
     34 CA        -32.1400    3.2700  -26.7100 C.3       4 GLY6        0.0000 
     35 CA        -30.2800    2.8200  -23.9600 C.3       4 GLY6        0.0000 
     36 CA        -32.8600    0.1400  -21.0200 C.3       4 GLY6        0.0000 
     37 CA        -31.8100   -0.9400  -21.0800 C.3       4 GLY6        0.0000 
     38 CA        -30.8200    0.0600  -21.5900 C.3       4 GLY6        0.0000 
     39 CA        -32.4500    0.4500  -19.6100 C.3       4 GLY6        0.0000 
     40 CA        -30.4100    0.3800  -20.1800 C.3       4 GLY6        0.0000 
     41 CA        -29.3600   -0.7000  -20.2500 C.3       4 GLY6        0.0000 
     42 CA        -29.4100    1.3700  -20.7000 C.3       4 GLY6        0.0000 
     43 CA        -28.3700    0.3000  -20.7600 C.3       4 GLY6        0.0000 
     44 CA        -30.5100    4.5200  -21.0800 C.3       4 GLY6        0.0000 
     45 CA        -31.0400    1.7600  -18.7100 C.3       4 GLY6        0.0000 
     46 CA        -30.0500    2.7600  -19.2200 C.3       4 GLY6        0.0000 
     47 DU        -31.4100   -2.2700  -27.2900 H         5 CUB7        0.0000 
@<TRIPOS>BOND
@<TRIPOS>SUBSTRUCTURE
     1 SER1        1 GROUP   
     2 ALA2        7 GROUP   
     3 PHE5       21 GROUP   
     4 GLY6       26 GROUP   
     5 CUB7       47 GROUP   
@<TRIPOS>SET

