#    Name: 6gnq_7_CRS
#    Modification time : Fri May 22 19:29:02 2020

@<TRIPOS>MOLECULE
6gnq_7_CRS
    8     8     1     0     0
SMALL
NO_CHARGES


@<TRIPOS>ATOM
      1 C1        -29.0290    2.3370  -21.4050 C.ar      1 CRS101      0.0000 
      2 C2        -29.5830    1.2120  -21.9950 C.ar      1 CRS101      0.0000 
      3 C3        -30.7810    0.6950  -21.5200 C.ar      1 CRS101      0.0000 
      4 C4        -31.4370    1.3000  -20.4490 C.ar      1 CRS101      0.0000 
      5 C5        -30.8820    2.4330  -19.8540 C.ar      1 CRS101      0.0000 
      6 C6        -29.6750    2.9520  -20.3330 C.ar      1 CRS101      0.0000 
      7 C7        -31.3510   -0.5260  -22.1780 C.3       1 CRS101      0.0000 
      8 O1        -27.8530    2.8150  -21.8950 O.3       1 CRS101      0.0000 
@<TRIPOS>BOND
     1    1    2 ar   
     2    1    6 ar   
     3    1    8 1    
     4    2    3 ar   
     5    3    4 ar   
     6    3    7 1    
     7    4    5 ar   
     8    5    6 ar   
@<TRIPOS>SUBSTRUCTURE
     1 CRS101      1 GROUP   
@<TRIPOS>SET

