#    Name: 6gnq_8_CRS
#    Modification time : Fri May 22 19:29:04 2020

@<TRIPOS>MOLECULE
6gnq_8_CRS
    8     8     1     0     0
SMALL
NO_CHARGES


@<TRIPOS>ATOM
      1 C1        -44.8140   13.2110  -23.5250 C.ar      1 CRS101      0.0000 
      2 C2        -45.9530   12.9530  -22.7820 C.ar      1 CRS101      0.0000 
      3 C3        -45.9540   11.9140  -21.8570 C.ar      1 CRS101      0.0000 
      4 C4        -44.8210   11.1360  -21.6650 C.ar      1 CRS101      0.0000 
      5 C5        -43.6760   11.3970  -22.4080 C.ar      1 CRS101      0.0000 
      6 C6        -43.6740   12.4320  -23.3400 C.ar      1 CRS101      0.0000 
      7 C7        -47.1970   11.6530  -21.0590 C.3       1 CRS101      0.0000 
      8 O1        -44.8360   14.2230  -24.4320 O.3       1 CRS101      0.0000 
@<TRIPOS>BOND
     1    1    2 ar   
     2    1    6 ar   
     3    1    8 1    
     4    2    3 ar   
     5    3    4 ar   
     6    3    7 1    
     7    4    5 ar   
     8    5    6 ar   
@<TRIPOS>SUBSTRUCTURE
     1 CRS101      1 GROUP   
@<TRIPOS>SET

