#    Name: 6gnq_4_CRS_CAVITY_N1_6
#    Modification time : Fri May 22 19:28:57 2020

@<TRIPOS>MOLECULE
6gnq_4_CRS_CAVITY_N1_6
   45     0     5     0     0
SMALL
NO_CHARGES


@<TRIPOS>ATOM
      1 OG        -40.3500    7.2700   17.9100 O.3       1 SER1        0.0000 
      2 OG        -39.9400    7.5900   19.3200 O.3       1 SER1        0.0000 
      3 OG        -40.6200   11.0500   20.3400 O.3       1 SER1        0.0000 
      4 OG        -40.6700   13.1200   19.9000 O.3       1 SER1        0.0000 
      5 OG        -40.2100   11.3600   21.7500 O.3       1 SER1        0.0000 
      6 OG        -36.0300    7.0700   21.4900 O.3       1 SER1        0.0000 
      7 OG        -40.2600   13.4400   21.3000 O.3       1 SER1        0.0000 
      8 OG        -35.6200    7.3800   22.9000 O.3       1 SER1        0.0000 
      9 N         -42.3900    7.3500   18.4900 N.am      2 ALA2        0.0000 
     10 N         -41.3400    6.2800   18.4200 N.am      2 ALA2        0.0000 
     11 N         -43.0200    8.7400   19.9600 N.am      2 ALA2        0.0000 
     12 N         -42.0300    9.7400   19.4500 N.am      2 ALA2        0.0000 
     13 N         -42.6100    9.0500   21.3700 N.am      2 ALA2        0.0000 
     14 N         -41.6200   10.0500   20.8500 N.am      2 ALA2        0.0000 
     15 N         -39.0700    6.1400   22.5800 N.am      2 ALA2        0.0000 
     16 N         -41.2600   12.4400   21.8200 N.am      2 ALA2        0.0000 
     17 N         -36.6200    6.3800   23.4100 N.am      2 ALA2        0.0000 
     18 NZ        -35.2100    7.6900   24.3100 N.4       3 LYS4        0.0000 
     19 CZ        -40.9800    8.6600   19.3800 C.ar      4 PHE5        0.0000 
     20 CZ        -40.5700    8.9800   20.7900 C.ar      4 PHE5        0.0000 
     21 CZ        -39.5300    7.9000   20.7300 C.ar      4 PHE5        0.0000 
     22 CZ        -38.4800    6.8300   20.6600 C.ar      4 PHE5        0.0000 
     23 CZ        -39.1200    8.2200   22.1300 C.ar      4 PHE5        0.0000 
     24 CZ        -38.0700    7.1400   22.0700 C.ar      4 PHE5        0.0000 
     25 CA        -41.3900    8.3500   17.9700 C.3       5 GLY6        0.0000 
     26 CA        -41.9800    7.6600   19.8900 C.3       5 GLY6        0.0000 
     27 CA        -40.9300    6.5900   19.8300 C.3       5 GLY6        0.0000 
     28 CA        -39.8900    5.5200   19.7600 C.3       5 GLY6        0.0000 
     29 CA        -38.8900    6.5100   19.2500 C.3       5 GLY6        0.0000 
     30 CA        -42.5600    6.9800   21.8100 C.3       5 GLY6        0.0000 
     31 CA        -41.5200    5.9000   21.7500 C.3       5 GLY6        0.0000 
     32 CA        -41.5700    7.9800   21.3000 C.3       5 GLY6        0.0000 
     33 CA        -40.5200    6.9000   21.2400 C.3       5 GLY6        0.0000 
     34 CA        -39.4800    5.8300   21.1700 C.3       5 GLY6        0.0000 
     35 CA        -41.7200   14.2000   19.9600 C.3       5 GLY6        0.0000 
     36 CA        -41.1600    8.2900   22.7100 C.3       5 GLY6        0.0000 
     37 CA        -40.1100    7.2200   22.6500 C.3       5 GLY6        0.0000 
     38 CA        -41.2100   10.3600   22.2600 C.3       5 GLY6        0.0000 
     39 CA        -40.1600    9.2900   22.2000 C.3       5 GLY6        0.0000 
     40 CA        -42.3000   13.5100   21.8800 C.3       5 GLY6        0.0000 
     41 CA        -41.3100   14.5100   21.3700 C.3       5 GLY6        0.0000 
     42 CA        -37.6600    7.4600   23.4800 C.3       5 GLY6        0.0000 
     43 CA        -41.8900   13.8300   23.2900 C.3       5 GLY6        0.0000 
     44 CA        -36.6700    8.4500   22.9700 C.3       5 GLY6        0.0000 
     45 CA        -36.2100    6.7000   24.8200 C.3       5 GLY6        0.0000 
@<TRIPOS>BOND
@<TRIPOS>SUBSTRUCTURE
     1 SER1        1 GROUP   
     2 ALA2        9 GROUP   
     3 LYS4       18 GROUP   
     4 PHE5       19 GROUP   
     5 GLY6       25 GROUP   
@<TRIPOS>SET

