#    Name: 5umx_2_RBF
#    Modification time : Fri May 22 19:14:25 2020

@<TRIPOS>MOLECULE
5umx_2_RBF
   27    29     1     0     0
SMALL
NO_CHARGES


@<TRIPOS>ATOM
      1 N1         18.3710    5.8530  -22.8950 N.2       1 RBF202      0.0000 
      2 C2         18.5820    5.0410  -23.9620 C.2       1 RBF202      0.0000 
      3 O2         19.7760    4.8120  -24.2600 O.2       1 RBF202      0.0000 
      4 N3         17.5630    4.4860  -24.6750 N.am      1 RBF202      0.0000 
      5 C4         16.2780    4.7200  -24.3640 C.2       1 RBF202      0.0000 
      6 O4         15.3350    4.2320  -25.0170 O.2       1 RBF202      0.0000 
      7 C4A        15.9780    5.5950  -23.2110 C.2       1 RBF202      0.0000 
      8 N5         14.7130    5.8680  -22.8660 N.2       1 RBF202      0.0000 
      9 C5A        14.4560    6.6560  -21.7950 C.ar      1 RBF202      0.0000 
     10 C6         13.1280    6.8900  -21.4780 C.ar      1 RBF202      0.0000 
     11 C7         12.8000    7.7120  -20.4120 C.ar      1 RBF202      0.0000 
     12 C7M        11.3340    7.9160  -20.1270 C.3       1 RBF202      0.0000 
     13 C8         13.8970    8.3300  -19.6110 C.ar      1 RBF202      0.0000 
     14 C8M        13.6280    9.2320  -18.4500 C.3       1 RBF202      0.0000 
     15 C9         15.2260    8.1060  -19.9210 C.ar      1 RBF202      0.0000 
     16 C9A        15.5680    7.2860  -21.0060 C.ar      1 RBF202      0.0000 
     17 N10        16.9160    7.0120  -21.3450 N.pl3     1 RBF202      0.0000 
     18 C10        17.1340    6.1650  -22.4640 C.2       1 RBF202      0.0000 
     19 C1'        18.0400    7.6550  -20.5990 C.3       1 RBF202      0.0000 
     20 C2'        19.2230    6.7930  -20.1830 C.3       1 RBF202      0.0000 
     21 O2'        19.3680    6.9580  -18.7610 O.3       1 RBF202      0.0000 
     22 C3'        20.4970    7.1370  -20.9740 C.3       1 RBF202      0.0000 
     23 O3'        21.1110    5.9220  -21.4280 O.3       1 RBF202      0.0000 
     24 C4'        21.4680    7.9950  -20.1660 C.3       1 RBF202      0.0000 
     25 O4'        20.8530    9.2820  -19.9990 O.3       1 RBF202      0.0000 
     26 C5'        22.8230    8.1180  -20.8530 C.3       1 RBF202      0.0000 
     27 O5'        23.6180    6.9770  -20.5110 O.3       1 RBF202      0.0000 
@<TRIPOS>BOND
     1    1    2 1    
     2    1   18 2    
     3    2    3 2    
     4    2    4 am   
     5    4    5 am   
     6    5    6 2    
     7    5    7 1    
     8    7    8 2    
     9    7   18 1    
    10    8    9 1    
    11    9   10 ar   
    12    9   16 ar   
    13   10   11 ar   
    14   11   12 1    
    15   11   13 ar   
    16   13   14 1    
    17   13   15 ar   
    18   15   16 ar   
    19   16   17 1    
    20   17   18 1    
    21   17   19 1    
    22   19   20 1    
    23   20   21 1    
    24   20   22 1    
    25   22   23 1    
    26   22   24 1    
    27   24   25 1    
    28   24   26 1    
    29   26   27 1    
@<TRIPOS>SUBSTRUCTURE
     1 RBF202      1 GROUP   
@<TRIPOS>SET

