#    Name: 5umx_2_RBF_CAVITY_N1_6
#    Modification time : Fri May 22 19:14:27 2020

@<TRIPOS>MOLECULE
5umx_2_RBF_CAVITY_N1_6
   93     0     4     0     0
SMALL
NO_CHARGES


@<TRIPOS>ATOM
      1 O          12.4300    6.1400  -25.7300 O.2       1 ALA2        0.0000 
      2 O          12.7800    5.1600  -24.6500 O.2       1 ALA2        0.0000 
      3 N          12.4600    5.5400  -22.1000 N.am      1 ALA2        0.0000 
      4 O          13.7700    5.2800  -22.7800 O.2       1 ALA2        0.0000 
      5 O          14.7300    5.9900  -24.5300 O.2       1 ALA2        0.0000 
      6 O          10.4700    7.1800  -19.9600 O.2       1 ALA2        0.0000 
      7 N          11.7800    6.9100  -20.6300 N.am      1 ALA2        0.0000 
      8 N          13.0900    6.6500  -21.3100 N.am      1 ALA2        0.0000 
      9 O          14.4100    6.3800  -21.9900 O.2       1 ALA2        0.0000 
     10 N          11.1000    8.2800  -19.1600 N.am      1 ALA2        0.0000 
     11 N          12.4200    8.0200  -19.8400 N.am      1 ALA2        0.0000 
     12 O          20.6400    5.4400  -22.8200 O.2       1 ALA2        0.0000 
     13 N          13.0500    9.1200  -19.0400 N.am      1 ALA2        0.0000 
     14 N          16.6600    8.7100  -18.5200 N.am      1 ALA2        0.0000 
     15 N          17.6200    9.4200  -20.2800 N.am      1 ALA2        0.0000 
     16 N          17.9800    8.4400  -19.2000 N.am      1 ALA2        0.0000 
     17 O          19.2900    8.1800  -19.8800 O.2       1 ALA2        0.0000 
     18 O          18.9700    8.5700  -17.3300 O.2       1 ALA2        0.0000 
     19 O          19.9200    9.2800  -19.0800 O.2       1 ALA2        0.0000 
     20 O          20.2800    8.3000  -18.0100 O.2       1 ALA2        0.0000 
     21 O          21.2300    9.0100  -19.7600 O.2       1 ALA2        0.0000 
     22 O          20.9100    9.4000  -17.2100 O.2       1 ALA2        0.0000 
     23 O          21.8700   10.1200  -18.9600 O.2       1 ALA2        0.0000 
     24 O          22.2200    9.1400  -17.8900 O.2       1 ALA2        0.0000 
     25 O          22.5000   11.2200  -18.1700 O.2       1 ALA2        0.0000 
     26 CZ         13.1400    4.1800  -23.5800 C.ar      2 PHE5        0.0000 
     27 CZ         14.4500    3.9100  -24.2500 C.ar      2 PHE5        0.0000 
     28 CZ         12.1000    6.5300  -23.1800 C.ar      2 PHE5        0.0000 
     29 CZ         15.0800    5.0100  -23.4600 C.ar      2 PHE5        0.0000 
     30 CZ         16.4000    4.7500  -24.1300 C.ar      2 PHE5        0.0000 
     31 CZ         11.4300    7.8900  -21.7100 C.ar      2 PHE5        0.0000 
     32 CZ         15.7200    6.1200  -22.6600 C.ar      2 PHE5        0.0000 
     33 CZ         17.0300    5.8500  -23.3400 C.ar      2 PHE5        0.0000 
     34 CZ         17.3900    4.8700  -22.2600 C.ar      2 PHE5        0.0000 
     35 CZ         18.3400    5.5800  -24.0200 C.ar      2 PHE5        0.0000 
     36 CZ         18.7000    4.6000  -22.9400 C.ar      2 PHE5        0.0000 
     37 CZ         14.0800    6.7700  -19.4400 C.ar      2 PHE5        0.0000 
     38 CZ         15.0400    7.4800  -21.1900 C.ar      2 PHE5        0.0000 
     39 CZ         16.3500    7.2200  -21.8700 C.ar      2 PHE5        0.0000 
     40 CZ         16.7100    6.2400  -20.7900 C.ar      2 PHE5        0.0000 
     41 CZ         17.6600    6.9500  -22.5400 C.ar      2 PHE5        0.0000 
     42 CZ         18.0200    5.9700  -21.4700 C.ar      2 PHE5        0.0000 
     43 CZ         18.9800    6.6900  -23.2200 C.ar      2 PHE5        0.0000 
     44 CZ         19.3300    5.7100  -22.1400 C.ar      2 PHE5        0.0000 
     45 CZ         19.9300    7.4000  -24.9700 C.ar      2 PHE5        0.0000 
     46 CZ         20.2900    6.4200  -23.9000 C.ar      2 PHE5        0.0000 
     47 CZ         16.0300    7.6100  -19.3200 C.ar      2 PHE5        0.0000 
     48 CZ         16.9900    8.3200  -21.0700 C.ar      2 PHE5        0.0000 
     49 CZ         17.3400    7.3400  -20.0000 C.ar      2 PHE5        0.0000 
     50 CZ         18.3000    8.0600  -21.7500 C.ar      2 PHE5        0.0000 
     51 CZ         18.6500    7.0700  -20.6700 C.ar      2 PHE5        0.0000 
     52 CZ         19.0100    6.0900  -19.5900 C.ar      2 PHE5        0.0000 
     53 CZ         19.6100    7.7900  -22.4300 C.ar      2 PHE5        0.0000 
     54 CZ         20.3200    5.8300  -20.2700 C.ar      2 PHE5        0.0000 
     55 CZ         20.5700    8.5000  -24.1800 C.ar      2 PHE5        0.0000 
     56 CZ         20.9200    7.5200  -23.1000 C.ar      2 PHE5        0.0000 
     57 CZ         18.3300    7.4600  -18.1200 C.ar      2 PHE5        0.0000 
     58 CZ         18.9300    9.1600  -20.9500 C.ar      2 PHE5        0.0000 
     59 CZ         19.6400    7.2000  -18.8000 C.ar      2 PHE5        0.0000 
     60 CZ         19.8900    9.8700  -22.7100 C.ar      2 PHE5        0.0000 
     61 CZ         20.2400    8.8900  -21.6300 C.ar      2 PHE5        0.0000 
     62 CZ         22.6300    5.6800  -19.0800 C.ar      2 PHE5        0.0000 
     63 CA         12.1500    4.0500  -25.4500 C.3       3 GLY6        0.0000 
     64 CA         11.4700    5.4200  -23.9800 C.3       3 GLY6        0.0000 
     65 CA         14.0900    4.8900  -25.3300 C.3       3 GLY6        0.0000 
     66 CA         19.6500    5.3200  -24.6900 C.3       3 GLY6        0.0000 
     67 CA         12.0600    9.0000  -20.9100 C.3       3 GLY6        0.0000 
     68 CA         12.7700    7.0400  -18.7600 C.3       3 GLY6        0.0000 
     69 CA         13.7300    7.7500  -20.5100 C.3       3 GLY6        0.0000 
     70 CA         13.4100    8.1400  -17.9700 C.3       3 GLY6        0.0000 
     71 CA         14.3600    8.8500  -19.7200 C.3       3 GLY6        0.0000 
     72 CA         14.7200    7.8700  -18.6400 C.3       3 GLY6        0.0000 
     73 CA         15.6700    8.5900  -20.4000 C.3       3 GLY6        0.0000 
     74 CA         22.5900    6.2800  -22.7000 C.3       3 GLY6        0.0000 
     75 CA         17.0200    7.7300  -17.4500 C.3       3 GLY6        0.0000 
     76 CA         21.2700    8.4200  -16.1300 C.3       3 GLY6        0.0000 
     77 CA         22.5800    8.1600  -16.8100 C.3       3 GLY6        0.0000 
     78 CA         21.5500   10.5100  -16.4200 C.3       3 GLY6        0.0000 
     79 CA         23.2100    9.2600  -16.0200 C.3       3 GLY6        0.0000 
     80 CA         23.1300   12.3200  -17.3700 C.3       3 GLY6        0.0000 
     81 DU         19.9700    6.8100  -21.3500 H         4 CUB7        0.0000 
     82 DU         21.2800    6.5400  -22.0300 H         4 CUB7        0.0000 
     83 DU         20.6000    7.9100  -20.5500 H         4 CUB7        0.0000 
     84 DU         20.9600    6.9300  -19.4800 H         4 CUB7        0.0000 
     85 DU         21.3100    5.9500  -18.4000 H         4 CUB7        0.0000 
     86 DU         21.5600    8.6300  -22.3100 H         4 CUB7        0.0000 
     87 DU         21.9100    7.6500  -21.2300 H         4 CUB7        0.0000 
     88 DU         21.5900    8.0300  -18.6800 H         4 CUB7        0.0000 
     89 DU         22.5500    8.7500  -20.4400 H         4 CUB7        0.0000 
     90 DU         22.9000    7.7700  -19.3600 H         4 CUB7        0.0000 
     91 DU         23.2600    6.7900  -18.2800 H         4 CUB7        0.0000 
     92 DU         23.8900    7.8900  -17.4900 H         4 CUB7        0.0000 
     93 DU         24.2500    6.9100  -16.4100 H         4 CUB7        0.0000 
@<TRIPOS>BOND
@<TRIPOS>SUBSTRUCTURE
     1 ALA2        1 GROUP   
     2 PHE5       26 GROUP   
     3 GLY6       63 GROUP   
     4 CUB7       81 GROUP   
@<TRIPOS>SET

