#    Name: 6awv_3_28E
#    Modification time : Fri May 22 19:28:02 2020

@<TRIPOS>MOLECULE
6awv_3_28E
   21    23     1     0     0
SMALL
NO_CHARGES


@<TRIPOS>ATOM
      1 OAB       -36.0390   -5.1260   19.1970 O.3       1 28E202      0.0000 
      2 CAT       -37.1530   -5.8970   19.2510 C.ar      1 28E202      0.0000 
      3 CAK       -37.1860   -7.0290   20.0530 C.ar      1 28E202      0.0000 
      4 CAY       -38.3380   -7.8000   20.0920 C.ar      1 28E202      0.0000 
      5 OAG       -38.3610   -8.8900   20.8900 O.3       1 28E202      0.0000 
      6 CBD       -39.4450   -7.4510   19.3380 C.ar      1 28E202      0.0000 
      7 CAP       -40.7170   -8.2730   19.3640 C.3       1 28E202      0.0000 
      8 CAN       -38.2620   -5.5480   18.4910 C.ar      1 28E202      0.0000 
      9 CBC       -39.4110   -6.3270   18.5370 C.ar      1 28E202      0.0000 
     10 OAR       -40.5230   -6.0100   17.7770 O.3       1 28E202      0.0000 
     11 CBF       -41.2940   -7.0930   17.2820 C.3       1 28E202      0.0000 
     12 CBE       -41.8550   -7.6430   18.5580 C.3       1 28E202      0.0000 
     13 OAQ       -42.3950   -6.5050   19.2250 O.3       1 28E202      0.0000 
     14 CBA       -42.3710   -6.6990   16.3980 C.ar      1 28E202      0.0000 
     15 CAO       -42.5180   -7.4180   15.2270 C.ar      1 28E202      0.0000 
     16 CAV       -43.5360   -7.0870   14.3580 C.ar      1 28E202      0.0000 
     17 OAD       -43.6790   -7.7780   13.2010 O.3       1 28E202      0.0000 
     18 CAU       -44.4110   -6.0580   14.6670 C.ar      1 28E202      0.0000 
     19 OAC       -45.4080   -5.7570   13.7870 O.3       1 28E202      0.0000 
     20 CAI       -44.2660   -5.3490   15.8660 C.ar      1 28E202      0.0000 
     21 CAJ       -43.2430   -5.6720   16.7440 C.ar      1 28E202      0.0000 
@<TRIPOS>BOND
     1    1    2 1    
     2    2    3 ar   
     3    2    8 ar   
     4    3    4 ar   
     5    4    5 1    
     6    4    6 ar   
     7    6    7 1    
     8    6    9 ar   
     9    7   12 1    
    10    8    9 ar   
    11    9   10 1    
    12   10   11 1    
    13   11   12 1    
    14   11   14 1    
    15   12   13 1    
    16   14   15 ar   
    17   14   21 ar   
    18   15   16 ar   
    19   16   17 1    
    20   16   18 ar   
    21   18   19 1    
    22   18   20 ar   
    23   20   21 ar   
@<TRIPOS>SUBSTRUCTURE
     1 28E202      1 GROUP   
@<TRIPOS>SET

