#    Name: 6awv_1_28E
#    Modification time : Fri May 22 19:27:54 2020

@<TRIPOS>MOLECULE
6awv_1_28E
   21    23     1     0     0
SMALL
NO_CHARGES


@<TRIPOS>ATOM
      1 OAB       -28.0910   -1.4650   -2.4050 O.3       1 28E201      0.0000 
      2 CAT       -26.8700   -2.0270   -2.4740 C.ar      1 28E201      0.0000 
      3 CAK       -26.5020   -2.6290   -3.6630 C.ar      1 28E201      0.0000 
      4 CAY       -25.2600   -3.2120   -3.7630 C.ar      1 28E201      0.0000 
      5 OAG       -24.8840   -3.8010   -4.9300 O.3       1 28E201      0.0000 
      6 CBD       -24.4090   -3.1840   -2.6850 C.ar      1 28E201      0.0000 
      7 CAP       -23.0690   -3.8450   -2.8460 C.3       1 28E201      0.0000 
      8 CAN       -26.0160   -1.9970   -1.3820 C.ar      1 28E201      0.0000 
      9 CBC       -24.7730   -2.5880   -1.4900 C.ar      1 28E201      0.0000 
     10 OAR       -23.8840   -2.5970   -0.4340 O.3       1 28E201      0.0000 
     11 CBF       -22.9930   -3.7070   -0.3200 C.3       1 28E201      0.0000 
     12 CBE       -22.2030   -3.6120   -1.6230 C.3       1 28E201      0.0000 
     13 OAQ       -21.7320   -2.2860   -1.7640 O.3       1 28E201      0.0000 
     14 CBA       -21.9420   -3.7700    0.7100 C.ar      1 28E201      0.0000 
     15 CAO       -21.8500   -4.9200    1.4700 C.ar      1 28E201      0.0000 
     16 CAV       -20.8240   -5.0190    2.3770 C.ar      1 28E201      0.0000 
     17 OAD       -20.6700   -6.0830    3.1920 O.3       1 28E201      0.0000 
     18 CAU       -19.9000   -4.0250    2.5060 C.ar      1 28E201      0.0000 
     19 OAC       -18.9280   -4.1810    3.4290 O.3       1 28E201      0.0000 
     20 CAI       -19.9600   -2.8970    1.7370 C.ar      1 28E201      0.0000 
     21 CAJ       -20.9760   -2.7830    0.8180 C.ar      1 28E201      0.0000 
@<TRIPOS>BOND
     1    1    2 1    
     2    2    3 ar   
     3    2    8 ar   
     4    3    4 ar   
     5    4    5 1    
     6    4    6 ar   
     7    6    7 1    
     8    6    9 ar   
     9    7   12 1    
    10    8    9 ar   
    11    9   10 1    
    12   10   11 1    
    13   11   12 1    
    14   11   14 1    
    15   12   13 1    
    16   14   15 ar   
    17   14   21 ar   
    18   15   16 ar   
    19   16   17 1    
    20   16   18 ar   
    21   18   19 1    
    22   18   20 ar   
    23   20   21 ar   
@<TRIPOS>SUBSTRUCTURE
     1 28E201      1 GROUP   
@<TRIPOS>SET

