#    Name: 6awv_2_28E
#    Modification time : Fri May 22 19:27:57 2020

@<TRIPOS>MOLECULE
6awv_2_28E
   21    23     1     0     0
SMALL
NO_CHARGES


@<TRIPOS>ATOM
      1 OAB       -11.8200  -19.4750  -20.7880 O.3       1 28E202      0.0000 
      2 CAT       -10.4600  -19.5170  -20.7780 C.ar      1 28E202      0.0000 
      3 CAK        -9.8190  -19.4070  -22.0060 C.ar      1 28E202      0.0000 
      4 CAY        -8.4410  -19.4440  -22.0820 C.ar      1 28E202      0.0000 
      5 OAG        -7.8720  -19.3410  -23.2960 O.3       1 28E202      0.0000 
      6 CBD        -7.6800  -19.5610  -20.9430 C.ar      1 28E202      0.0000 
      7 CAP        -6.1980  -19.6260  -21.0630 C.3       1 28E202      0.0000 
      8 CAN        -9.6920  -19.6620  -19.6040 C.ar      1 28E202      0.0000 
      9 CBC        -8.2910  -19.6850  -19.6990 C.ar      1 28E202      0.0000 
     10 OAR        -7.4640  -19.8200  -18.6020 O.3       1 28E202      0.0000 
     11 CBF        -6.2020  -20.5060  -18.7120 C.3       1 28E202      0.0000 
     12 CBE        -5.7680  -20.7620  -20.1660 C.3       1 28E202      0.0000 
     13 OAQ        -4.3610  -21.0490  -20.3380 O.3       1 28E202      0.0000 
     14 CBA        -5.1170  -19.7430  -18.1210 C.ar      1 28E202      0.0000 
     15 CAO        -4.4520  -20.2810  -17.0330 C.ar      1 28E202      0.0000 
     16 CAV        -3.3980  -19.5840  -16.4810 C.ar      1 28E202      0.0000 
     17 OAD        -2.7630  -20.1150  -15.4150 O.3       1 28E202      0.0000 
     18 CAU        -3.0030  -18.3610  -16.9970 C.ar      1 28E202      0.0000 
     19 OAC        -1.9740  -17.6470  -16.4590 O.3       1 28E202      0.0000 
     20 CAI        -3.6740  -17.8490  -18.0940 C.ar      1 28E202      0.0000 
     21 CAJ        -4.7270  -18.5350  -18.6690 C.ar      1 28E202      0.0000 
@<TRIPOS>BOND
     1    1    2 1    
     2    2    3 ar   
     3    2    8 ar   
     4    3    4 ar   
     5    4    5 1    
     6    4    6 ar   
     7    6    7 1    
     8    6    9 ar   
     9    7   12 1    
    10    8    9 ar   
    11    9   10 1    
    12   10   11 1    
    13   11   12 1    
    14   11   14 1    
    15   12   13 1    
    16   14   15 ar   
    17   14   21 ar   
    18   15   16 ar   
    19   16   17 1    
    20   16   18 ar   
    21   18   19 1    
    22   18   20 ar   
    23   20   21 ar   
@<TRIPOS>SUBSTRUCTURE
     1 28E202      1 GROUP   
@<TRIPOS>SET

