#    Name: 6awv_4_28E
#    Modification time : Fri May 22 19:28:05 2020

@<TRIPOS>MOLECULE
6awv_4_28E
   21    23     1     0     0
SMALL
NO_CHARGES


@<TRIPOS>ATOM
      1 OAB       -44.0100    7.3940   18.5790 O.3       1 28E203      0.0000 
      2 CAT       -44.0660    6.0510   18.4550 C.ar      1 28E203      0.0000 
      3 CAK       -43.5120    5.2540   19.4460 C.ar      1 28E203      0.0000 
      4 CAY       -43.5730    3.8750   19.3230 C.ar      1 28E203      0.0000 
      5 OAG       -43.0400    3.0730   20.2770 O.3       1 28E203      0.0000 
      6 CBD       -44.1900    3.3170   18.2240 C.ar      1 28E203      0.0000 
      7 CAP       -44.2440    1.8140   18.1060 C.3       1 28E203      0.0000 
      8 CAN       -44.6800    5.4880   17.3490 C.ar      1 28E203      0.0000 
      9 CBC       -44.7370    4.1140   17.2360 C.ar      1 28E203      0.0000 
     10 OAR       -45.3370    3.5460   16.1460 O.3       1 28E203      0.0000 
     11 CBF       -44.8500    2.2940   15.6590 C.3       1 28E203      0.0000 
     12 CBE       -44.8890    1.2990   16.8190 C.3       1 28E203      0.0000 
     13 OAQ       -46.2520    0.9580   17.0890 O.3       1 28E203      0.0000 
     14 CBA       -45.6400    1.8380   14.4950 C.ar      1 28E203      0.0000 
     15 CAO       -45.8570    0.4910   14.2640 C.ar      1 28E203      0.0000 
     16 CAV       -46.5820    0.0590   13.1780 C.ar      1 28E203      0.0000 
     17 OAD       -46.7950   -1.2620   12.9840 O.3       1 28E203      0.0000 
     18 CAU       -47.1010    0.9760   12.2940 C.ar      1 28E203      0.0000 
     19 OAC       -47.8140    0.5350   11.2230 O.3       1 28E203      0.0000 
     20 CAI       -46.8850    2.3340   12.5040 C.ar      1 28E203      0.0000 
     21 CAJ       -46.1530    2.7650   13.6020 C.ar      1 28E203      0.0000 
@<TRIPOS>BOND
     1    1    2 1    
     2    2    3 ar   
     3    2    8 ar   
     4    3    4 ar   
     5    4    5 1    
     6    4    6 ar   
     7    6    7 1    
     8    6    9 ar   
     9    7   12 1    
    10    8    9 ar   
    11    9   10 1    
    12   10   11 1    
    13   11   12 1    
    14   11   14 1    
    15   12   13 1    
    16   14   15 ar   
    17   14   21 ar   
    18   15   16 ar   
    19   16   17 1    
    20   16   18 ar   
    21   18   19 1    
    22   18   20 ar   
    23   20   21 ar   
@<TRIPOS>SUBSTRUCTURE
     1 28E203      1 GROUP   
@<TRIPOS>SET

