#    Name: 6ugm_2_THR_MET_GLN_CAVITY_N1_4
#    Modification time : Fri May 22 19:32:47 2020

@<TRIPOS>MOLECULE
6ugm_2_THR_MET_GLN_CAVITY_N1_4
  118     0     7     0     0
SMALL
NO_CHARGES


@<TRIPOS>ATOM
      1 OG        209.0600  150.9600  162.2200 O.3       1 SER1        0.0000 
      2 OG        210.2900  149.5500  161.2300 O.3       1 SER1        0.0000 
      3 OG        212.1600  150.1600  160.4100 O.3       1 SER1        0.0000 
      4 OG        210.2200  150.4000  164.4700 O.3       1 SER1        0.0000 
      5 OG        213.3600  152.9500  162.4900 O.3       1 SER1        0.0000 
      6 OG        210.2200  157.9400  167.3600 O.3       1 SER1        0.0000 
      7 OG        209.5800  158.0200  168.7100 O.3       1 SER1        0.0000 
      8 OG        210.8100  156.6100  167.7200 O.3       1 SER1        0.0000 
      9 OG        215.1700  152.3000  163.3900 O.3       1 SER1        0.0000 
     10 N         208.4100  151.0400  163.5700 N.am      2 ALA2        0.0000 
     11 N         209.6500  149.6300  162.5800 N.am      2 ALA2        0.0000 
     12 N         209.0100  149.7100  163.9300 N.am      2 ALA2        0.0000 
     13 N         210.2400  148.3000  162.9400 N.am      2 ALA2        0.0000 
     14 N         211.5100  150.2400  161.7700 N.am      2 ALA2        0.0000 
     15 N         210.8700  150.3200  163.1200 N.am      2 ALA2        0.0000 
     16 N         211.4600  148.9900  163.4800 N.am      2 ALA2        0.0000 
     17 N         212.0900  151.0100  163.6600 N.am      2 ALA2        0.0000 
     18 N         211.4400  151.0800  165.0100 N.am      2 ALA2        0.0000 
     19 N         213.3000  151.6900  164.2000 N.am      2 ALA2        0.0000 
     20 N         208.9300  158.1000  170.0600 N.am      2 ALA2        0.0000 
     21 N         211.4600  156.5300  166.3700 N.am      2 ALA2        0.0000 
     22 N         212.6900  155.1200  165.3700 N.am      2 ALA2        0.0000 
     23 N         214.5200  152.3800  164.7400 N.am      2 ALA2        0.0000 
     24 N         213.8800  152.4600  166.0900 N.am      2 ALA2        0.0000 
     25 N         215.1200  151.0500  165.1000 N.am      2 ALA2        0.0000 
     26 N         211.4400  158.6300  167.9000 N.am      2 ALA2        0.0000 
     27 N         212.6700  157.2200  166.9100 N.am      2 ALA2        0.0000 
     28 N         211.3900  157.3800  169.6100 N.am      2 ALA2        0.0000 
     29 N         210.7400  157.4600  170.9600 N.am      2 ALA2        0.0000 
     30 N         213.9100  155.8100  165.9100 N.am      2 ALA2        0.0000 
     31 O         212.6200  155.9700  168.6200 O.2       2 ALA2        0.0000 
     32 N         211.9800  156.0500  169.9700 N.am      2 ALA2        0.0000 
     33 O         213.8600  154.5600  167.6300 O.2       2 ALA2        0.0000 
     34 N         213.3000  159.2400  167.0900 N.am      2 ALA2        0.0000 
     35 N         214.5400  157.8300  166.1000 N.am      2 ALA2        0.0000 
     36 N         213.8900  157.9100  167.4500 N.am      2 ALA2        0.0000 
     37 N         212.6000  158.0700  170.1500 N.am      2 ALA2        0.0000 
     38 N         216.3100  153.8400  167.1700 N.am      2 ALA2        0.0000 
     39 N         216.9100  152.5100  167.5300 N.am      2 ALA2        0.0000 
     40 N         215.7600  158.5200  166.6400 N.am      2 ALA2        0.0000 
     41 OD1       208.3400  159.4300  169.7000 O.co2     3 ASP3        0.0000 
     42 OD1       209.5600  160.1200  170.2400 O.co2     3 ASP3        0.0000 
     43 OD1       210.7900  158.7100  169.2500 O.co2     3 ASP3        0.0000 
     44 OD1       216.9400  155.8600  167.3500 O.co2     3 ASP3        0.0000 
     45 OD1       218.1800  154.4500  166.3600 O.co2     3 ASP3        0.0000 
     46 OD1       217.5300  154.5300  167.7100 O.co2     3 ASP3        0.0000 
     47 OD1       218.7700  153.1200  166.7200 O.co2     3 ASP3        0.0000 
     48 OD1       218.1200  153.2000  168.0700 O.co2     3 ASP3        0.0000 
     49 OD1       218.1600  156.5500  167.9000 O.co2     3 ASP3        0.0000 
     50 OD1       220.5800  152.4800  167.6200 O.co2     3 ASP3        0.0000 
     51 NZ        218.8400  152.2700  163.4800 N.4       4 LYS4        0.0000 
     52 NZ        219.4300  150.9400  163.8400 N.4       4 LYS4        0.0000 
     53 NZ        219.4100  153.0400  165.3700 N.4       4 LYS4        0.0000 
     54 NZ        220.0100  151.7100  165.7300 N.4       4 LYS4        0.0000 
     55 CZ        210.2800  151.6500  162.7600 C.ar      5 PHE5        0.0000 
     56 CZ        209.6300  151.7300  164.1100 C.ar      5 PHE5        0.0000 
     57 CZ        210.2600  153.7400  164.2900 C.ar      5 PHE5        0.0000 
     58 CZ        212.1400  152.2600  161.9500 C.ar      5 PHE5        0.0000 
     59 CZ        211.4900  152.3400  163.3000 C.ar      5 PHE5        0.0000 
     60 CZ        210.8500  152.4100  164.6500 C.ar      5 PHE5        0.0000 
     61 CZ        210.2400  155.8400  165.8300 C.ar      5 PHE5        0.0000 
     62 CZ        212.1200  154.3500  163.4800 C.ar      5 PHE5        0.0000 
     63 CZ        211.4800  154.4300  164.8300 C.ar      5 PHE5        0.0000 
     64 CZ        210.8300  154.5100  166.1900 C.ar      5 PHE5        0.0000 
     65 CZ        212.0700  153.1000  165.1900 C.ar      5 PHE5        0.0000 
     66 CZ        210.1700  156.6900  169.0700 C.ar      5 PHE5        0.0000 
     67 CZ        213.3400  155.0400  164.0200 C.ar      5 PHE5        0.0000 
     68 CZ        212.0500  155.2000  166.7300 C.ar      5 PHE5        0.0000 
     69 CZ        211.4000  155.2800  168.0800 C.ar      5 PHE5        0.0000 
     70 CZ        214.5700  153.6300  163.0300 C.ar      5 PHE5        0.0000 
     71 CZ        213.9300  153.7100  164.3800 C.ar      5 PHE5        0.0000 
     72 CZ        212.6400  153.8700  167.0900 C.ar      5 PHE5        0.0000 
     73 CZ        215.1500  154.4000  164.9200 C.ar      5 PHE5        0.0000 
     74 CZ        216.3900  152.9900  163.9300 C.ar      5 PHE5        0.0000 
     75 CZ        215.7400  153.0700  165.2800 C.ar      5 PHE5        0.0000 
     76 CZ        215.7700  156.4200  165.1000 C.ar      5 PHE5        0.0000 
     77 CZ        216.3700  155.0900  165.4600 C.ar      5 PHE5        0.0000 
     78 CZ        217.6000  153.6800  164.4700 C.ar      5 PHE5        0.0000 
     79 CZ        216.9900  157.1100  165.6400 C.ar      5 PHE5        0.0000 
     80 CZ        218.2300  155.7000  164.6500 C.ar      5 PHE5        0.0000 
     81 CZ        218.8200  154.3700  165.0100 C.ar      5 PHE5        0.0000 
     82 CA        210.8800  155.7600  164.4700 C.3       6 GLY6        0.0000 
     83 CA        213.2900  153.7900  165.7300 C.3       6 GLY6        0.0000 
     84 CA        210.1500  158.7900  170.6000 C.3       6 GLY6        0.0000 
     85 CA        214.5000  154.4800  166.2700 C.3       6 GLY6        0.0000 
     86 CA        215.1000  153.1500  166.6300 C.3       6 GLY6        0.0000 
     87 CA        217.6200  151.5800  162.9400 C.3       6 GLY6        0.0000 
     88 CA        216.9800  151.6600  164.2900 C.3       6 GLY6        0.0000 
     89 CA        216.3300  151.7400  165.6400 C.3       6 GLY6        0.0000 
     90 CA        217.5700  150.3300  164.6500 C.3       6 GLY6        0.0000 
     91 CA        212.0600  160.6500  168.0800 C.3       6 GLY6        0.0000 
     92 CA        211.3700  159.4700  171.1400 C.3       6 GLY6        0.0000 
     93 CA        213.2500  157.9900  168.8000 C.3       6 GLY6        0.0000 
     94 CA        214.4900  156.5800  167.8100 C.3       6 GLY6        0.0000 
     95 CA        213.8400  156.6600  169.1600 C.3       6 GLY6        0.0000 
     96 CA        215.0800  155.2500  168.1700 C.3       6 GLY6        0.0000 
     97 CA        217.5500  152.4300  166.1800 C.3       6 GLY6        0.0000 
     98 CA        218.7900  151.0200  165.1900 C.3       6 GLY6        0.0000 
     99 CA        216.4000  158.4400  165.2800 C.3       6 GLY6        0.0000 
    100 CA        214.4700  158.6800  169.3400 C.3       6 GLY6        0.0000 
    101 CA        213.8200  158.7500  170.6900 C.3       6 GLY6        0.0000 
    102 CA        215.7000  157.2700  168.3500 C.3       6 GLY6        0.0000 
    103 CA        216.3000  155.9400  168.7100 C.3       6 GLY6        0.0000 
    104 CA        219.3600  151.7900  167.0800 C.3       6 GLY6        0.0000 
    105 CA        216.9200  157.9500  168.8900 C.3       6 GLY6        0.0000 
    106 CA        216.2800  158.0300  170.2400 C.3       6 GLY6        0.0000 
    107 DU        212.7100  153.0200  163.8400 H         7 CUB7        0.0000 
    108 DU        212.0300  157.3000  168.2600 H         7 CUB7        0.0000 
    109 DU        213.2700  155.8900  167.2700 H         7 CUB7        0.0000 
    110 DU        212.6600  159.3200  168.4400 H         7 CUB7        0.0000 
    111 DU        212.0100  159.4000  169.7900 H         7 CUB7        0.0000 
    112 DU        215.1300  156.5000  166.4500 H         7 CUB7        0.0000 
    113 DU        215.7200  155.1700  166.8100 H         7 CUB7        0.0000 
    114 DU        216.9600  153.7600  165.8200 H         7 CUB7        0.0000 
    115 DU        218.2000  152.3500  164.8300 H         7 CUB7        0.0000 
    116 DU        215.1100  158.6000  167.9900 H         7 CUB7        0.0000 
    117 DU        216.3500  157.1900  167.0000 H         7 CUB7        0.0000 
    118 DU        217.5800  155.7800  166.0000 H         7 CUB7        0.0000 
@<TRIPOS>BOND
@<TRIPOS>SUBSTRUCTURE
     1 SER1        1 GROUP   
     2 ALA2       10 GROUP   
     3 ASP3       41 GROUP   
     4 LYS4       51 GROUP   
     5 PHE5       55 GROUP   
     6 GLY6       82 GROUP   
     7 CUB7      107 GROUP   
@<TRIPOS>SET

