#    Name: 6ugm_2_THR_MET_GLN
#    Modification time : Fri May 22 19:32:46 2020

@<TRIPOS>MOLECULE
6ugm_2_THR_MET_GLN
   24    23     3     0     0
SMALL
NO_CHARGES


@<TRIPOS>ATOM
      1 N         217.7940  154.9340  166.5860 N.4       1 THR3        0.0000 
      2 CA        216.8420  154.3480  165.6530 C.3       1 THR3        0.0000 
      3 C         215.3840  154.5650  166.0860 C.2       1 THR3        0.0000 
      4 O         214.9880  154.2720  167.2160 O.2       1 THR3        0.0000 
      5 CB        217.1520  152.8320  165.4280 C.3       1 THR3        0.0000 
      6 OG1       216.1240  152.2170  164.6400 O.3       1 THR3        0.0000 
      7 CG2       217.3730  152.0860  166.7320 C.3       1 THR3        0.0000 
      8 N         214.6300  155.2020  165.1820 N.am      2 MET4        0.0000 
      9 CA        213.1700  155.3150  165.1740 C.3       2 MET4        0.0000 
     10 C         212.5440  156.0890  166.3360 C.2       2 MET4        0.0000 
     11 O         211.3120  156.1490  166.4190 O.2       2 MET4        0.0000 
     12 CB        212.5440  153.9170  165.0890 C.3       2 MET4        0.0000 
     13 CG        212.9920  153.1260  163.8800 C.3       2 MET4        0.0000 
     14 SD        212.0730  151.6080  163.6790 S.3       2 MET4        0.0000 
     15 CE        210.4110  152.2490  163.6560 C.3       2 MET4        0.0000 
     16 N         213.3670  156.7090  167.1890 N.am      3 GLN5        0.0000 
     17 CA        212.9740  157.5200  168.3600 C.3       3 GLN5        0.0000 
     18 C         212.0120  156.8340  169.3310 C.2       3 GLN5        0.0000 
     19 O         210.8080  157.0910  169.3060 O.2       3 GLN5        0.0000 
     20 CB        212.3730  158.8630  167.9140 C.3       3 GLN5        0.0000 
     21 CG        212.4400  159.9620  168.9770 C.3       3 GLN5        0.0000 
     22 CD        212.6090  161.3470  168.3840 C.2       3 GLN5        0.0000 
     23 OE1       212.8010  161.5000  167.1800 O.2       3 GLN5        0.0000 
     24 NE2       212.5480  162.3640  169.2330 N.am      3 GLN5        0.0000 
@<TRIPOS>BOND
     1    1    2 1    
     2    2    3 1    
     3    2    5 1    
     4    3    4 2    
     5    3    8 am   
     6    5    6 1    
     7    5    7 1    
     8    8    9 1    
     9    9   10 1    
    10    9   12 1    
    11   10   11 2    
    12   10   16 am   
    13   12   13 1    
    14   13   14 1    
    15   14   15 1    
    16   16   17 1    
    17   17   18 1    
    18   17   20 1    
    19   18   19 2    
    20   20   21 1    
    21   21   22 1    
    22   22   23 2    
    23   22   24 am   
@<TRIPOS>SUBSTRUCTURE
     1 THR3        1 RESIDUE 
     2 MET4        8 RESIDUE 
     3 GLN5       16 RESIDUE 
@<TRIPOS>SET

