#    Name: 6ugm_1_SAM
#    Modification time : Fri May 22 19:32:43 2020

@<TRIPOS>MOLECULE
6ugm_1_SAM
   27    29     1     0     0
SMALL
NO_CHARGES


@<TRIPOS>ATOM
      1 N         209.0670  147.2760  157.2100 N.4       1 SAM1101     0.0000 
      2 CA        209.3770  146.5240  158.4140 C.3       1 SAM1101     0.0000 
      3 C         208.5120  145.2880  158.5380 C.2       1 SAM1101     0.0000 
      4 O         208.9770  144.2320  158.9600 O.co2     1 SAM1101     0.0000 
      5 OXT       207.3280  145.3280  158.2200 O.co2     1 SAM1101     0.0000 
      6 CB        209.1960  147.4000  159.6370 C.3       1 SAM1101     0.0000 
      7 CG        209.8280  148.7730  159.5010 C.3       1 SAM1101     0.0000 
      8 SD        211.5680  148.7930  159.9910 S.3       1 SAM1101     0.0000 
      9 CE        211.5130  150.1630  161.1610 C.3       1 SAM1101     0.0000 
     10 C5'       212.3860  149.6220  158.6080 C.3       1 SAM1101     0.0000 
     11 C4'       212.0240  149.0520  157.2470 C.3       1 SAM1101     0.0000 
     12 O4'       211.0310  149.8520  156.6410 O.3       1 SAM1101     0.0000 
     13 C3'       213.2340  149.0500  156.3330 C.3       1 SAM1101     0.0000 
     14 O3'       213.5670  147.7250  155.9960 O.3       1 SAM1101     0.0000 
     15 C2'       212.8170  149.8120  155.0970 C.3       1 SAM1101     0.0000 
     16 O2'       212.9570  148.9940  153.9630 O.3       1 SAM1101     0.0000 
     17 C1'       211.3560  150.1480  155.3070 C.3       1 SAM1101     0.0000 
     18 N9        211.1590  151.5850  155.1110 N.pl3     1 SAM1101     0.0000 
     19 C8        211.8450  152.5810  155.7430 C.2       1 SAM1101     0.0000 
     20 N7        211.3780  153.7630  155.2910 N.2       1 SAM1101     0.0000 
     21 C5        210.4090  153.5350  154.3880 C.ar      1 SAM1101     0.0000 
     22 C6        209.6180  154.3840  153.6360 C.ar      1 SAM1101     0.0000 
     23 N6        209.7560  155.7000  153.7540 N.pl3     1 SAM1101     0.0000 
     24 N1        208.6920  153.8520  152.7680 N.ar      1 SAM1101     0.0000 
     25 C2        208.5700  152.4850  152.6560 C.ar      1 SAM1101     0.0000 
     26 N3        209.3530  151.6480  153.4110 N.ar      1 SAM1101     0.0000 
     27 C4        210.2590  152.1670  154.2630 C.ar      1 SAM1101     0.0000 
@<TRIPOS>BOND
     1    1    2 1    
     2    2    3 1    
     3    2    6 1    
     4    3    4 ar   
     5    3    5 ar   
     6    6    7 1    
     7    7    8 1    
     8    8    9 1    
     9    8   10 1    
    10   10   11 1    
    11   11   12 1    
    12   11   13 1    
    13   12   17 1    
    14   13   14 1    
    15   13   15 1    
    16   15   16 1    
    17   15   17 1    
    18   17   18 1    
    19   18   19 1    
    20   18   27 1    
    21   19   20 2    
    22   20   21 1    
    23   21   22 ar   
    24   21   27 ar   
    25   22   23 1    
    26   22   24 ar   
    27   24   25 ar   
    28   25   26 ar   
    29   26   27 ar   
@<TRIPOS>SUBSTRUCTURE
     1 SAM1101     1 GROUP   
@<TRIPOS>SET

