#    Name: 6ugm_1_SAM_CAVITY_N1_4
#    Modification time : Fri May 22 19:32:44 2020

@<TRIPOS>MOLECULE
6ugm_1_SAM_CAVITY_N1_4
  111     0     5     0     0
SMALL
NO_CHARGES


@<TRIPOS>ATOM
      1 OG        208.4900  142.6500  157.4400 O.3       1 SER1        0.0000 
      2 OG        209.0800  141.3200  157.8000 O.3       1 SER1        0.0000 
      3 OG        209.1700  145.9200  155.9100 O.3       1 SER1        0.0000 
      4 OG        210.4000  144.5100  154.9200 O.3       1 SER1        0.0000 
      5 OG        209.7600  144.5900  156.2700 O.3       1 SER1        0.0000 
      6 OG        209.1100  144.6700  157.6200 O.3       1 SER1        0.0000 
      7 OG        210.3500  143.2600  156.6300 O.3       1 SER1        0.0000 
      8 OG        209.7900  147.9400  156.0900 O.3       1 SER1        0.0000 
      9 OG        210.3800  146.6100  156.4500 O.3       1 SER1        0.0000 
     10 OG        211.6200  145.2000  155.4600 O.3       1 SER1        0.0000 
     11 OG        210.9800  145.2800  156.8100 O.3       1 SER1        0.0000 
     12 OG        211.7600  151.0500  151.8500 O.3       1 SER1        0.0000 
     13 OG        211.0600  149.8800  154.9200 O.3       1 SER1        0.0000 
     14 OG        209.7700  150.0300  157.6200 O.3       1 SER1        0.0000 
     15 OG        209.7200  148.7800  159.3300 O.3       1 SER1        0.0000 
     16 OG        212.2500  147.2200  155.6400 O.3       1 SER1        0.0000 
     17 OG        211.6000  147.3000  156.9900 O.3       1 SER1        0.0000 
     18 OG        210.9600  147.3700  158.3400 O.3       1 SER1        0.0000 
     19 OG        212.9200  150.4900  154.1100 O.3       1 SER1        0.0000 
     20 OG        210.9900  150.7200  158.1600 O.3       1 SER1        0.0000 
     21 OG        209.0600  150.9600  162.2200 O.3       1 SER1        0.0000 
     22 OG        211.5800  149.3900  158.5200 O.3       1 SER1        0.0000 
     23 OG        210.9400  149.4700  159.8700 O.3       1 SER1        0.0000 
     24 OG        210.2900  149.5500  161.2300 O.3       1 SER1        0.0000 
     25 OG        213.4700  147.9100  156.1800 O.3       1 SER1        0.0000 
     26 OG        212.8200  147.9800  157.5300 O.3       1 SER1        0.0000 
     27 OG        213.4500  150.0000  157.7100 O.3       1 SER1        0.0000 
     28 OG        212.8000  150.0800  159.0600 O.3       1 SER1        0.0000 
     29 OG        212.1600  150.1600  160.4100 O.3       1 SER1        0.0000 
     30 OG        210.2200  150.4000  164.4700 O.3       1 SER1        0.0000 
     31 OG        214.0700  152.0200  157.8900 O.3       1 SER1        0.0000 
     32 OG        214.6600  150.6900  158.2500 O.3       1 SER1        0.0000 
     33 OG        213.3600  152.9500  162.4900 O.3       1 SER1        0.0000 
     34 O         209.1300  142.5700  156.0900 O.2       2 ALA2        0.0000 
     35 O         209.7300  141.2400  156.4500 O.2       2 ALA2        0.0000 
     36 N         208.5200  146.0000  157.2600 N.am      2 ALA2        0.0000 
     37 N         208.0700  153.1800  153.3000 N.am      2 ALA2        0.0000 
     38 N         209.2000  149.2700  155.7300 N.am      2 ALA2        0.0000 
     39 N         209.7400  146.6900  157.8000 N.am      2 ALA2        0.0000 
     40 N         209.1000  146.7600  159.1500 N.am      2 ALA2        0.0000 
     41 N         209.2800  153.8700  153.8400 N.am      2 ALA2        0.0000 
     42 O         209.2300  152.6200  155.5500 O.2       2 ALA2        0.0000 
     43 O         209.8300  151.2900  155.9100 O.2       2 ALA2        0.0000 
     44 O         209.1800  151.3600  157.2600 O.2       2 ALA2        0.0000 
     45 N         210.3700  148.7000  157.9800 N.am      2 ALA2        0.0000 
     46 N         209.0800  148.8600  160.6900 N.am      2 ALA2        0.0000 
     47 N         209.6700  147.5300  161.0500 N.am      2 ALA2        0.0000 
     48 N         212.3800  153.0700  152.0300 N.am      2 ALA2        0.0000 
     49 N         211.7400  153.1500  153.3900 N.am      2 ALA2        0.0000 
     50 N         209.6500  149.6300  162.5800 N.am      2 ALA2        0.0000 
     51 N         209.0100  149.7100  163.9300 N.am      2 ALA2        0.0000 
     52 N         210.2400  148.3000  162.9400 N.am      2 ALA2        0.0000 
     53 N         213.6000  153.7600  152.5700 N.am      2 ALA2        0.0000 
     54 N         212.9600  153.8400  153.9300 N.am      2 ALA2        0.0000 
     55 N         214.1900  152.4300  152.9300 N.am      2 ALA2        0.0000 
     56 N         211.5100  150.2400  161.7700 N.am      2 ALA2        0.0000 
     57 N         210.8700  150.3200  163.1200 N.am      2 ALA2        0.0000 
     58 O         214.0400  148.6700  158.0700 O.2       2 ALA2        0.0000 
     59 N         211.4600  148.9900  163.4800 N.am      2 ALA2        0.0000 
     60 N         212.0900  151.0100  163.6600 N.am      2 ALA2        0.0000 
     61 N         211.4400  151.0800  165.0100 N.am      2 ALA2        0.0000 
     62 N         213.3000  151.6900  164.2000 N.am      2 ALA2        0.0000 
     63 CZ        209.3000  151.7700  152.3100 C.ar      3 PHE5        0.0000 
     64 CZ        208.6600  151.8500  153.6600 C.ar      3 PHE5        0.0000 
     65 CZ        209.2500  150.5200  154.0200 C.ar      3 PHE5        0.0000 
     66 CZ        211.1100  151.1300  153.2100 C.ar      3 PHE5        0.0000 
     67 CZ        210.4700  151.2100  154.5600 C.ar      3 PHE5        0.0000 
     68 CZ        211.6500  148.5500  155.2800 C.ar      3 PHE5        0.0000 
     69 CZ        211.0100  148.6300  156.6300 C.ar      3 PHE5        0.0000 
     70 CZ        210.3100  147.4500  159.6900 C.ar      3 PHE5        0.0000 
     71 CZ        211.5500  146.0400  158.7000 C.ar      3 PHE5        0.0000 
     72 CZ        211.0400  151.9700  156.4500 C.ar      3 PHE5        0.0000 
     73 CZ        211.5300  148.1400  160.2300 C.ar      3 PHE5        0.0000 
     74 CZ        210.8900  148.2200  161.5900 C.ar      3 PHE5        0.0000 
     75 CZ        212.8500  151.3300  157.3500 C.ar      3 PHE5        0.0000 
     76 CZ        212.2100  151.4100  158.7000 C.ar      3 PHE5        0.0000 
     77 CZ        210.2800  151.6500  162.7600 C.ar      3 PHE5        0.0000 
     78 CZ        209.6300  151.7300  164.1100 C.ar      3 PHE5        0.0000 
     79 CZ        212.1400  152.2600  161.9500 C.ar      3 PHE5        0.0000 
     80 CZ        211.4900  152.3400  163.3000 C.ar      3 PHE5        0.0000 
     81 CA        208.5400  143.9000  155.7300 C.3       4 GLY6        0.0000 
     82 CA        207.9000  143.9800  157.0800 C.3       4 GLY6        0.0000 
     83 CA        208.7100  153.1000  151.9500 C.3       4 GLY6        0.0000 
     84 CA        208.0100  151.9300  155.0100 C.3       4 GLY6        0.0000 
     85 CA        208.6100  150.6000  155.3700 C.3       4 GLY6        0.0000 
     86 CA        211.1700  152.3800  151.4900 C.3       4 GLY6        0.0000 
     87 CA        210.5200  152.4600  152.8500 C.3       4 GLY6        0.0000 
     88 CA        210.5000  154.5600  154.3800 C.3       4 GLY6        0.0000 
     89 CA        211.1000  153.2300  154.7400 C.3       4 GLY6        0.0000 
     90 CA        210.4500  153.3000  156.0900 C.3       4 GLY6        0.0000 
     91 CA        212.1800  148.0600  158.8800 C.3       4 GLY6        0.0000 
     92 CA        212.3100  153.9100  155.2800 C.3       4 GLY6        0.0000 
     93 CA        211.6700  153.9900  156.6300 C.3       4 GLY6        0.0000 
     94 CA        213.5500  152.5100  154.2900 C.3       4 GLY6        0.0000 
     95 CA        212.9100  152.5800  155.6400 C.3       4 GLY6        0.0000 
     96 CA        212.2600  152.6600  156.9900 C.3       4 GLY6        0.0000 
     97 CA        214.7700  153.1900  154.8300 C.3       4 GLY6        0.0000 
     98 CA        214.7200  151.9400  156.5400 C.3       4 GLY6        0.0000 
     99 CA        215.9000  149.2800  157.2600 C.3       4 GLY6        0.0000 
    100 DU        209.8800  152.5400  154.2000 H         5 CUB7        0.0000 
    101 DU        210.4200  149.9600  156.2700 H         5 CUB7        0.0000 
    102 DU        212.9800  151.7400  152.3900 H         5 CUB7        0.0000 
    103 DU        212.3300  151.8200  153.7500 H         5 CUB7        0.0000 
    104 DU        211.6900  151.9000  155.1000 H         5 CUB7        0.0000 
    105 DU        212.2800  150.5700  155.4600 H         5 CUB7        0.0000 
    106 DU        211.6400  150.6400  156.8100 H         5 CUB7        0.0000 
    107 DU        212.8700  149.2400  155.8200 H         5 CUB7        0.0000 
    108 DU        212.2300  149.3100  157.1700 H         5 CUB7        0.0000 
    109 DU        214.1400  151.1800  154.6500 H         5 CUB7        0.0000 
    110 DU        214.0900  149.9200  156.3600 H         5 CUB7        0.0000 
    111 DU        215.3100  150.6100  156.9000 H         5 CUB7        0.0000 
@<TRIPOS>BOND
@<TRIPOS>SUBSTRUCTURE
     1 SER1        1 GROUP   
     2 ALA2       34 GROUP   
     3 PHE5       63 GROUP   
     4 GLY6       81 GROUP   
     5 CUB7      100 GROUP   
@<TRIPOS>SET

