#    Name: 5xke_4_GTP
#    Modification time : Fri May 22 19:19:33 2020

@<TRIPOS>MOLECULE
5xke_4_GTP
   32    34     1     0     1
SMALL
NO_CHARGES


@<TRIPOS>ATOM
      1 PG         26.8190  146.1950  -44.9750 P.3       1 GTP501      0.0000 
      2 O1G        27.1890  147.3160  -45.9220 O.co2     1 GTP501      0.0000 
      3 O2G        25.5160  145.5020  -45.3100 O.co2     1 GTP501      0.0000 
      4 O3G        27.9530  145.2570  -44.6450 O.co2     1 GTP501      0.0000 
      5 O3B        26.5600  146.9340  -43.5640 O.3       1 GTP501      0.0000 
      6 PB         25.2330  147.7990  -43.2720 P.3       1 GTP501      0.0000 
      7 O1B        24.6610  148.3090  -44.5710 O.co2     1 GTP501      0.0000 
      8 O2B        25.5520  148.7730  -42.1650 O.co2     1 GTP501      0.0000 
      9 O3A        24.2470  146.6680  -42.6950 O.3       1 GTP501      0.0000 
     10 PA         22.6670  146.9150  -42.5280 P.3       1 GTP501      0.0000 
     11 O1A        21.9540  146.3020  -43.7120 O.co2     1 GTP501      0.0000 
     12 O2A        22.4410  148.3750  -42.2110 O.co2     1 GTP501      0.0000 
     13 O5'        22.4070  146.0510  -41.1900 O.3       1 GTP501      0.0000 
     14 C5'        21.7130  144.8040  -41.1610 C.3       1 GTP501      0.0000 
     15 C4'        20.7460  144.8010  -39.9770 C.3       1 GTP501      0.0000 
     16 O4'        19.9500  145.9880  -39.9830 O.3       1 GTP501      0.0000 
     17 C3'        19.7740  143.6350  -40.0240 C.3       1 GTP501      0.0000 
     18 O3'        19.7000  143.0650  -38.7130 O.3       1 GTP501      0.0000 
     19 C2'        18.4350  144.2150  -40.4530 C.3       1 GTP501      0.0000 
     20 O2'        17.3340  143.6180  -39.7560 O.3       1 GTP501      0.0000 
     21 C1'        18.5560  145.6980  -40.1330 C.3       1 GTP501      0.0000 
     22 N9         18.0160  146.5850  -41.1960 N.pl3     1 GTP501      0.0000 
     23 C8         18.5040  146.7260  -42.4450 C.2       1 GTP501      0.0000 
     24 N7         17.7860  147.6330  -43.1570 N.2       1 GTP501      0.0000 
     25 C5         16.8170  148.0970  -42.3510 C.2       1 GTP501      0.0000 
     26 C6         15.7080  149.0800  -42.4640 C.2       1 GTP501      0.0000 
     27 O6         15.5090  149.7030  -43.5280 O.2       1 GTP501      0.0000 
     28 N1         14.9210  149.2760  -41.3910 N.am      1 GTP501      0.0000 
     29 C2         15.1040  148.6200  -40.2230 C.2       1 GTP501      0.0000 
     30 N2         14.2590  148.8860  -39.1970 N.pl3     1 GTP501      0.0000 
     31 N3         16.1020  147.7060  -40.0460 N.2       1 GTP501      0.0000 
     32 C4         16.9700  147.4060  -41.0550 C.2       1 GTP501      0.0000 
@<TRIPOS>BOND
     1    1    2 ar   
     2    1    3 ar   
     3    1    4 ar   
     4    1    5 1    
     5    5    6 1    
     6    6    7 ar   
     7    6    8 ar   
     8    6    9 1    
     9    9   10 1    
    10   10   11 ar   
    11   10   12 ar   
    12   10   13 1    
    13   13   14 1    
    14   14   15 1    
    15   15   16 1    
    16   15   17 1    
    17   16   21 1    
    18   17   18 1    
    19   17   19 1    
    20   19   20 1    
    21   19   21 1    
    22   21   22 1    
    23   22   23 1    
    24   22   32 1    
    25   23   24 2    
    26   24   25 1    
    27   25   26 1    
    28   25   32 2    
    29   26   27 2    
    30   26   28 am   
    31   28   29 1    
    32   29   30 1    
    33   29   31 2    
    34   31   32 1    
@<TRIPOS>SUBSTRUCTURE
     1 GTP501      1 GROUP   
@<TRIPOS>SET
ATOM$ORANGE STATIC     ATOMS   COLORGROUP SYSTEM 
20 14 14 15 15 17 17 19 19 21 21 23 23 25 25 26 26 29 \
29 32 32 

