#    Name: 5xke_2_GDP
#    Modification time : Fri May 22 19:19:29 2020

@<TRIPOS>MOLECULE
5xke_2_GDP
   28    30     1     0     1
SMALL
NO_CHARGES


@<TRIPOS>ATOM
      1 PB         18.6710  207.9000   15.8540 P.3       1 GDP501      0.0000 
      2 O1B        18.0350  208.7520   14.7880 O.co2     1 GDP501      0.0000 
      3 O2B        19.1670  208.6910   17.0420 O.co2     1 GDP501      0.0000 
      4 O3B        19.6920  206.9070   15.3470 O.co2     1 GDP501      0.0000 
      5 O3A        17.4780  206.9470   16.3790 O.3       1 GDP501      0.0000 
      6 PA         16.0720  207.4710   16.9840 P.3       1 GDP501      0.0000 
      7 O1A        14.9750  207.2940   15.9600 O.co2     1 GDP501      0.0000 
      8 O2A        16.2630  208.8430   17.5740 O.co2     1 GDP501      0.0000 
      9 O5'        15.9080  206.4250   18.1960 O.3       1 GDP501      0.0000 
     10 C5'        14.9280  205.3960   18.2560 C.3       1 GDP501      0.0000 
     11 C4'        14.3030  205.4830   19.6460 C.3       1 GDP501      0.0000 
     12 O4'        13.8100  206.8030   19.8920 O.3       1 GDP501      0.0000 
     13 C3'        13.1150  204.5650   19.8520 C.3       1 GDP501      0.0000 
     14 O3'        13.1960  204.1090   21.2110 O.3       1 GDP501      0.0000 
     15 C2'        11.8920  205.4430   19.6310 C.3       1 GDP501      0.0000 
     16 O2'        10.8010  205.0190   20.4490 O.3       1 GDP501      0.0000 
     17 C1'        12.3870  206.8160   20.0450 C.3       1 GDP501      0.0000 
     18 N9         11.9020  207.9660   19.2470 N.pl3     1 GDP501      0.0000 
     19 C8         12.1520  208.2250   17.9480 C.2       1 GDP501      0.0000 
     20 N7         11.5780  209.3930   17.5630 N.2       1 GDP501      0.0000 
     21 C5         10.9620  209.9080   18.6420 C.2       1 GDP501      0.0000 
     22 C6         10.1660  211.1200   18.9500 C.2       1 GDP501      0.0000 
     23 O6          9.9300  211.9670   18.0650 O.2       1 GDP501      0.0000 
     24 N1          9.7070  211.2790   20.2040 N.am      1 GDP501      0.0000 
     25 C2          9.9420  210.3840   21.1890 C.2       1 GDP501      0.0000 
     26 N2          9.4430  210.6170   22.4230 N.pl3     1 GDP501      0.0000 
     27 N3         10.6650  209.2500   20.9800 N.2       1 GDP501      0.0000 
     28 C4         11.1850  208.9670   19.7530 C.2       1 GDP501      0.0000 
@<TRIPOS>BOND
     1    1    2 ar   
     2    1    3 ar   
     3    1    4 ar   
     4    1    5 1    
     5    5    6 1    
     6    6    7 ar   
     7    6    8 ar   
     8    6    9 1    
     9    9   10 1    
    10   10   11 1    
    11   11   12 1    
    12   11   13 1    
    13   12   17 1    
    14   13   14 1    
    15   13   15 1    
    16   15   16 1    
    17   15   17 1    
    18   17   18 1    
    19   18   19 1    
    20   18   28 1    
    21   19   20 2    
    22   20   21 1    
    23   21   22 1    
    24   21   28 2    
    25   22   23 2    
    26   22   24 am   
    27   24   25 1    
    28   25   26 1    
    29   25   27 2    
    30   27   28 1    
@<TRIPOS>SUBSTRUCTURE
     1 GDP501      1 GROUP   
@<TRIPOS>SET
ATOM$ORANGE STATIC     ATOMS   COLORGROUP SYSTEM 
20 10 10 11 11 13 13 15 15 17 17 19 19 21 21 22 22 25 \
25 28 28 

