#    Name: 5xke_2_GDP_CAVITY_N1_6
#    Modification time : Fri May 22 19:19:30 2020

@<TRIPOS>MOLECULE
5xke_2_GDP_CAVITY_N1_6
   11     0     5     0     0
SMALL
NO_CHARGES


@<TRIPOS>ATOM
      1 OG          6.9800  203.7400   16.1700 O.3       1 SER1        0.0000 
      2 N           9.6500  207.6800   12.2200 N.am      2 ALA2        0.0000 
      3 N          10.4800  209.5100   12.9000 N.am      2 ALA2        0.0000 
      4 O           9.1600  210.1800   12.6800 O.2       2 ALA2        0.0000 
      5 N           9.7800  208.3500   13.5500 N.am      2 ALA2        0.0000 
      6 NZ         14.8800  207.2700   10.2200 N.4       3 LYS4        0.0000 
      7 CZ          8.4600  209.0300   13.3400 C.ar      4 PHE5        0.0000 
      8 CZ          9.0800  207.2000   14.2100 C.ar      4 PHE5        0.0000 
      9 CZ          7.7600  207.8800   13.9900 C.ar      4 PHE5        0.0000 
     10 CZ          5.7900  205.0900   17.2900 C.ar      4 PHE5        0.0000 
     11 CA          6.4100  203.2600   18.1600 C.3       5 GLY6        0.0000 
@<TRIPOS>BOND
@<TRIPOS>SUBSTRUCTURE
     1 SER1        1 GROUP   
     2 ALA2        2 GROUP   
     3 LYS4        6 GROUP   
     4 PHE5        7 GROUP   
     5 GLY6       11 GROUP   
@<TRIPOS>SET

