#    Name: 5xke_4_GTP_CAVITY_N1_12
#    Modification time : Fri May 22 19:19:34 2020

@<TRIPOS>MOLECULE
5xke_4_GTP_CAVITY_N1_12
  104     0     7     0     0
SMALL
NO_CHARGES


@<TRIPOS>ATOM
      1 OG         20.7300  142.1000  -43.4100 O.3       1 SER1        0.0000 
      2 OG         19.4100  142.7800  -43.6200 O.3       1 SER1        0.0000 
      3 OG         18.7100  141.6200  -42.9700 O.3       1 SER1        0.0000 
      4 OG         28.3200  146.5100  -44.7100 O.3       1 SER1        0.0000 
      5 OG         27.0000  147.1900  -44.9200 O.3       1 SER1        0.0000 
      6 OG         18.9200  145.2900  -43.1600 O.3       1 SER1        0.0000 
      7 OG         19.5400  143.4500  -42.2900 O.3       1 SER1        0.0000 
      8 OG         23.0900  146.9100  -42.7100 O.3       1 SER1        0.0000 
      9 OG         21.0700  146.4400  -42.2600 O.3       1 SER1        0.0000 
     10 OG         18.3500  144.8100  -41.1700 O.3       1 SER1        0.0000 
     11 OG         17.6500  143.6600  -40.5100 O.3       1 SER1        0.0000 
     12 OG         20.5000  145.9600  -40.2800 O.3       1 SER1        0.0000 
     13 O          27.9200  144.4800  -48.7000 O.2       2 ALA2        0.0000 
     14 O          28.0500  145.1600  -47.3700 O.2       2 ALA2        0.0000 
     15 N          24.0100  144.2100  -46.4900 N.am      2 ALA2        0.0000 
     16 O          22.6900  144.8800  -46.7000 O.2       2 ALA2        0.0000 
     17 N          23.3100  143.0500  -45.8300 N.am      2 ALA2        0.0000 
     18 O          21.9900  143.7300  -46.0500 O.2       2 ALA2        0.0000 
     19 O          28.1900  145.8300  -46.0400 O.2       2 ALA2        0.0000 
     20 O          27.4900  144.6800  -45.3800 O.2       2 ALA2        0.0000 
     21 N          26.1700  145.3600  -45.6000 N.am      2 ALA2        0.0000 
     22 N          24.1500  144.8800  -45.1600 N.am      2 ALA2        0.0000 
     23 O          22.8300  145.5600  -45.3700 O.2       2 ALA2        0.0000 
     24 O          22.1300  144.4100  -44.7200 O.2       2 ALA2        0.0000 
     25 O          20.8100  145.0900  -44.9300 O.2       2 ALA2        0.0000 
     26 O          21.4300  143.2500  -44.0600 O.2       2 ALA2        0.0000 
     27 N          20.1100  143.9300  -44.2700 N.am      2 ALA2        0.0000 
     28 N          18.7900  144.6100  -44.4900 N.am      2 ALA2        0.0000 
     29 N          26.3000  146.0300  -44.2600 N.am      2 ALA2        0.0000 
     30 N          24.2800  145.5600  -43.8200 N.am      2 ALA2        0.0000 
     31 N          17.6800  148.9500  -44.8900 N.am      2 ALA2        0.0000 
     32 N          23.5800  144.4000  -43.1700 N.am      2 ALA2        0.0000 
     33 N          20.9400  145.7600  -43.6000 N.am      2 ALA2        0.0000 
     34 N          19.6200  146.4400  -43.8100 N.am      2 ALA2        0.0000 
     35 N          18.3000  147.1200  -44.0300 N.am      2 ALA2        0.0000 
     36 N          16.9800  147.8000  -44.2400 N.am      2 ALA2        0.0000 
     37 O          21.5600  143.9300  -42.7300 O.2       2 ALA2        0.0000 
     38 O          26.4300  146.7100  -42.9300 O.2       2 ALA2        0.0000 
     39 O          25.1100  147.3900  -43.1500 O.2       2 ALA2        0.0000 
     40 O          23.7900  148.0700  -43.3600 O.2       2 ALA2        0.0000 
     41 O          21.7700  147.5900  -42.9200 O.2       2 ALA2        0.0000 
     42 O          15.7900  149.1500  -43.1200 O.2       2 ALA2        0.0000 
     43 O          21.6900  144.6000  -41.4000 O.2       2 ALA2        0.0000 
     44 N          17.2400  149.1500  -41.5700 N.am      2 ALA2        0.0000 
     45 O          21.8200  145.2800  -40.0600 O.2       2 ALA2        0.0000 
     46 N          16.5400  148.0000  -40.9200 N.am      2 ALA2        0.0000 
     47 N          15.2200  148.6800  -41.1300 N.am      2 ALA2        0.0000 
     48 O          18.4800  145.4900  -39.8400 O.2       2 ALA2        0.0000 
     49 O          17.1600  146.1600  -40.0500 O.2       2 ALA2        0.0000 
     50 O          17.7800  144.3300  -39.1800 O.2       2 ALA2        0.0000 
     51 N          15.3500  149.3500  -39.8000 N.am      2 ALA2        0.0000 
     52 O          18.6100  146.1600  -38.5000 O.2       2 ALA2        0.0000 
     53 N          15.9700  147.5200  -38.9300 N.am      2 ALA2        0.0000 
     54 N          14.6500  148.2000  -39.1500 N.am      2 ALA2        0.0000 
     55 O          19.2300  144.3300  -37.6400 O.2       2 ALA2        0.0000 
     56 OD1        24.5800  144.6800  -48.4800 O.co2     3 ASP3        0.0000 
     57 OD1        26.7300  145.8300  -47.5800 O.co2     3 ASP3        0.0000 
     58 OD1        26.0300  144.6800  -46.9300 O.co2     3 ASP3        0.0000 
     59 OD1        27.5700  147.6600  -46.9100 O.co2     3 ASP3        0.0000 
     60 OD1        26.8700  146.5100  -46.2500 O.co2     3 ASP3        0.0000 
     61 OD1        25.6800  147.8700  -45.1300 O.co2     3 ASP3        0.0000 
     62 OD1        24.9800  146.7100  -44.4800 O.co2     3 ASP3        0.0000 
     63 OD1        23.6600  147.3900  -44.6900 O.co2     3 ASP3        0.0000 
     64 NZ         27.7900  143.8000  -50.0300 N.4       4 LYS4        0.0000 
     65 NZ         26.6000  145.1600  -48.9200 N.4       4 LYS4        0.0000 
     66 NZ         20.8600  142.7700  -42.0700 N.4       4 LYS4        0.0000 
     67 NZ         20.9900  143.4500  -40.7400 N.4       4 LYS4        0.0000 
     68 NZ         19.6700  144.1300  -40.9500 N.4       4 LYS4        0.0000 
     69 NZ         21.1200  144.1300  -39.4100 N.4       4 LYS4        0.0000 
     70 NZ         19.1000  143.6500  -38.9700 N.4       4 LYS4        0.0000 
     71 CZ         15.5200  147.8000  -45.7900 C.ar      5 PHE5        0.0000 
     72 CZ         17.4700  145.2900  -44.7000 C.ar      5 PHE5        0.0000 
     73 CZ         15.6600  148.4800  -44.4500 C.ar      5 PHE5        0.0000 
     74 CZ         17.6000  145.9700  -43.3700 C.ar      5 PHE5        0.0000 
     75 CZ         17.7300  146.6400  -42.0400 C.ar      5 PHE5        0.0000 
     76 CZ         16.4100  147.3200  -42.2500 C.ar      5 PHE5        0.0000 
     77 CZ         17.0300  145.4900  -41.3800 C.ar      5 PHE5        0.0000 
     78 CZ         15.8400  146.8400  -40.2600 C.ar      5 PHE5        0.0000 
     79 CZ         14.5200  147.5200  -40.4800 C.ar      5 PHE5        0.0000 
     80 CA         28.6200  145.6300  -49.3600 C.3       6 GLY6        0.0000 
     81 CA         27.2200  143.3300  -48.0500 C.3       6 GLY6        0.0000 
     82 CA         28.7500  146.3100  -48.0200 C.3       6 GLY6        0.0000 
     83 CA         27.4300  146.9900  -48.2400 C.3       6 GLY6        0.0000 
     84 CA         22.9600  146.2400  -44.0400 C.3       6 GLY6        0.0000 
     85 CA         21.6400  146.9200  -44.2500 C.3       6 GLY6        0.0000 
     86 CA         25.8100  148.5400  -43.8000 C.3       6 GLY6        0.0000 
     87 CA         24.4100  146.2300  -42.4900 C.3       6 GLY6        0.0000 
     88 CA         22.3900  145.7600  -42.0500 C.3       6 GLY6        0.0000 
     89 CA         19.7500  147.1200  -42.4800 C.3       6 GLY6        0.0000 
     90 CA         18.4300  147.8000  -42.6900 C.3       6 GLY6        0.0000 
     91 CA         17.1100  148.4800  -42.9100 C.3       6 GLY6        0.0000 
     92 CA         19.0500  145.9600  -41.8200 C.3       6 GLY6        0.0000 
     93 CA         18.9700  142.9800  -40.3000 C.3       6 GLY6        0.0000 
     94 CA         19.1800  146.6400  -40.4900 C.3       6 GLY6        0.0000 
     95 CA         17.8600  147.3200  -40.7100 C.3       6 GLY6        0.0000 
     96 CA         18.4000  142.5000  -38.3100 C.3       6 GLY6        0.0000 
     97 CA         19.3100  147.3200  -39.1600 C.3       6 GLY6        0.0000 
     98 CA         21.2500  144.8000  -38.0800 C.3       6 GLY6        0.0000 
     99 CA         19.9300  145.4800  -38.2900 C.3       6 GLY6        0.0000 
    100 CA         20.5500  143.6500  -37.4200 C.3       6 GLY6        0.0000 
    101 DU         22.2600  145.0800  -43.3800 H         7 CUB7        0.0000 
    102 DU         20.2400  144.6100  -42.9400 H         7 CUB7        0.0000 
    103 DU         20.3700  145.2800  -41.6100 H         7 CUB7        0.0000 
    104 DU         19.8000  144.8100  -39.6200 H         7 CUB7        0.0000 
@<TRIPOS>BOND
@<TRIPOS>SUBSTRUCTURE
     1 SER1        1 GROUP   
     2 ALA2       13 GROUP   
     3 ASP3       56 GROUP   
     4 LYS4       64 GROUP   
     5 PHE5       71 GROUP   
     6 GLY6       80 GROUP   
     7 CUB7      101 GROUP   
@<TRIPOS>SET

