#    Name: 5xke_2_GDP_CAVITY_N1_8
#    Modification time : Fri May 22 19:19:30 2020

@<TRIPOS>MOLECULE
5xke_2_GDP_CAVITY_N1_8
   95     0     6     0     0
SMALL
NO_CHARGES


@<TRIPOS>ATOM
      1 OG         14.9600  210.2600    8.7000 O.3       1 SER1        0.0000 
      2 OG          6.9800  203.7400   16.1700 O.3       1 SER1        0.0000 
      3 O          13.4300  207.2700    8.6700 O.2       2 ALA2        0.0000 
      4 N          11.4100  206.8000    9.1100 N.am      2 ALA2        0.0000 
      5 N          10.7100  205.6400    9.7700 N.am      2 ALA2        0.0000 
      6 O          13.6400  210.9400    8.4800 O.2       2 ALA2        0.0000 
      7 O          14.2600  209.1000    9.3500 O.2       2 ALA2        0.0000 
      8 O          13.5600  207.9500   10.0100 O.2       2 ALA2        0.0000 
      9 O          10.9200  209.3100    9.5800 O.2       2 ALA2        0.0000 
     10 O          11.5400  207.4700   10.4500 O.2       2 ALA2        0.0000 
     11 O          10.2200  208.1500   10.2300 O.2       2 ALA2        0.0000 
     12 N          10.8400  206.3200   11.1000 N.am      2 ALA2        0.0000 
     13 N           9.5200  207.0000   10.8900 N.am      2 ALA2        0.0000 
     14 N           7.5000  206.5200   11.3300 N.am      2 ALA2        0.0000 
     15 O           9.7300  210.6600   10.7000 O.2       2 ALA2        0.0000 
     16 O          10.3500  208.8300   11.5700 O.2       2 ALA2        0.0000 
     17 N           9.0300  209.5100   11.3500 N.am      2 ALA2        0.0000 
     18 N           7.7100  210.1900   11.1400 N.am      2 ALA2        0.0000 
     19 N           9.6500  207.6800   12.2200 N.am      2 ALA2        0.0000 
     20 N           8.3300  208.3500   12.0100 N.am      2 ALA2        0.0000 
     21 N           7.0100  209.0300   11.7900 N.am      2 ALA2        0.0000 
     22 N           6.1500  201.9100   15.4900 N.am      2 ALA2        0.0000 
     23 N          10.4800  209.5100   12.9000 N.am      2 ALA2        0.0000 
     24 O           9.1600  210.1800   12.6800 O.2       2 ALA2        0.0000 
     25 O           7.8400  210.8600   12.4700 O.2       2 ALA2        0.0000 
     26 N           9.7800  208.3500   13.5500 N.am      2 ALA2        0.0000 
     27 N           6.2800  202.5800   16.8300 N.am      2 ALA2        0.0000 
     28 N           5.5800  201.4300   17.4800 N.am      2 ALA2        0.0000 
     29 N           6.2000  199.5900   18.3500 N.am      2 ALA2        0.0000 
     30 N           4.8800  200.2700   18.1400 N.am      2 ALA2        0.0000 
     31 O           5.2500  209.9100   14.9000 O.2       2 ALA2        0.0000 
     32 O           4.5500  208.7600   15.5500 O.2       2 ALA2        0.0000 
     33 O           3.8500  207.6000   16.2100 O.2       2 ALA2        0.0000 
     34 O           5.7100  202.1000   18.8100 O.2       2 ALA2        0.0000 
     35 N           5.0100  200.9500   19.4700 N.am      2 ALA2        0.0000 
     36 N           3.6900  201.6300   19.2500 N.am      2 ALA2        0.0000 
     37 NZ         14.1300  208.4300    8.0200 N.4       3 LYS4        0.0000 
     38 NZ         17.3900  205.2400    9.3200 N.4       3 LYS4        0.0000 
     39 NZ         16.0700  205.9100    9.1000 N.4       3 LYS4        0.0000 
     40 NZ         14.7500  206.5900    8.8900 N.4       3 LYS4        0.0000 
     41 NZ         16.6900  204.0800    9.9700 N.4       3 LYS4        0.0000 
     42 NZ         15.3700  204.7600    9.7600 N.4       3 LYS4        0.0000 
     43 NZ         14.0500  205.4400    9.5400 N.4       3 LYS4        0.0000 
     44 NZ         12.7300  206.1200    9.3300 N.4       3 LYS4        0.0000 
     45 NZ         12.0300  204.9600    9.9800 N.4       3 LYS4        0.0000 
     46 NZ         11.3300  203.8100   10.6400 N.4       3 LYS4        0.0000 
     47 NZ         14.8800  207.2700   10.2200 N.4       3 LYS4        0.0000 
     48 NZ         11.4600  204.4900   11.9700 N.4       3 LYS4        0.0000 
     49 NZ          8.7400  202.8600   13.0700 N.4       3 LYS4        0.0000 
     50 NZ          8.0400  201.7000   13.7200 N.4       3 LYS4        0.0000 
     51 NZ          9.5700  204.6900   13.7400 N.4       3 LYS4        0.0000 
     52 NZ          7.5500  204.2100   14.1800 N.4       3 LYS4        0.0000 
     53 NZ          6.8500  203.0600   14.8400 N.4       3 LYS4        0.0000 
     54 CZ          8.9500  206.5200   12.8800 C.ar      4 PHE5        0.0000 
     55 CZ          7.6300  207.2000   12.6600 C.ar      4 PHE5        0.0000 
     56 CZ          8.2500  205.3700   13.5300 C.ar      4 PHE5        0.0000 
     57 CZ          6.9300  206.0500   13.3200 C.ar      4 PHE5        0.0000 
     58 CZ          6.2300  204.8900   13.9700 C.ar      4 PHE5        0.0000 
     59 CZ          8.4600  209.0300   13.3400 C.ar      4 PHE5        0.0000 
     60 CZ          7.1400  209.7100   13.1200 C.ar      4 PHE5        0.0000 
     61 CZ          9.0800  207.2000   14.2100 C.ar      4 PHE5        0.0000 
     62 CZ          7.7600  207.8800   13.9900 C.ar      4 PHE5        0.0000 
     63 CZ          6.4400  208.5600   13.7800 C.ar      4 PHE5        0.0000 
     64 CZ          5.1200  209.2300   13.5700 C.ar      4 PHE5        0.0000 
     65 CZ          5.7400  207.4000   14.4300 C.ar      4 PHE5        0.0000 
     66 CZ          6.3600  205.5700   15.3000 C.ar      4 PHE5        0.0000 
     67 CZ          5.0400  206.2500   15.0900 C.ar      4 PHE5        0.0000 
     68 CZ          5.6600  204.4100   15.9600 C.ar      4 PHE5        0.0000 
     69 CZ          5.1700  206.9200   16.4200 C.ar      4 PHE5        0.0000 
     70 CZ          5.7900  205.0900   17.2900 C.ar      4 PHE5        0.0000 
     71 CZ          4.4700  205.7700   17.0800 C.ar      4 PHE5        0.0000 
     72 CZ          5.3000  207.6000   17.7500 C.ar      4 PHE5        0.0000 
     73 CA         10.0100  204.4900   10.4200 C.3       5 GLY6        0.0000 
     74 CA          9.4400  204.0100   12.4100 C.3       5 GLY6        0.0000 
     75 CA          8.1200  204.6900   12.2000 C.3       5 GLY6        0.0000 
     76 CA          6.3100  207.8800   12.4500 C.3       5 GLY6        0.0000 
     77 CA          5.6100  206.7300   13.1000 C.3       5 GLY6        0.0000 
     78 CA          4.4200  208.0800   14.2200 C.3       5 GLY6        0.0000 
     79 CA          3.9300  210.5900   14.6800 C.3       5 GLY6        0.0000 
     80 CA          6.4100  203.2600   18.1600 C.3       5 GLY6        0.0000 
     81 CA          5.0900  203.9400   17.9500 C.3       5 GLY6        0.0000 
     82 CA          4.3900  202.7800   18.6000 C.3       5 GLY6        0.0000 
     83 CA          4.6000  206.4500   18.4100 C.3       5 GLY6        0.0000 
     84 CA          3.9100  205.2900   19.0600 C.3       5 GLY6        0.0000 
     85 CA          4.5300  203.4600   19.9300 C.3       5 GLY6        0.0000 
     86 CA          3.2100  204.1400   19.7200 C.3       5 GLY6        0.0000 
     87 DU         10.1400  205.1700   11.7600 H         6 CUB7        0.0000 
     88 DU          8.8200  205.8500   11.5400 H         6 CUB7        0.0000 
     89 DU          5.5300  203.7400   14.6300 H         6 CUB7        0.0000 
     90 DU          6.5200  211.5400   12.2600 H         6 CUB7        0.0000 
     91 DU          5.8200  210.3900   12.9100 H         6 CUB7        0.0000 
     92 DU          4.3400  205.0900   15.7400 H         6 CUB7        0.0000 
     93 DU          4.9600  203.2600   16.6100 H         6 CUB7        0.0000 
     94 DU          4.2600  202.1100   17.2700 H         6 CUB7        0.0000 
     95 DU          3.7700  204.6200   17.7300 H         6 CUB7        0.0000 
@<TRIPOS>BOND
@<TRIPOS>SUBSTRUCTURE
     1 SER1        1 GROUP   
     2 ALA2        3 GROUP   
     3 LYS4       37 GROUP   
     4 PHE5       54 GROUP   
     5 GLY6       73 GROUP   
     6 CUB7       87 GROUP   
@<TRIPOS>SET

