#    Name: 6cgz_1_HL6
#    Modification time : Fri May 22 19:28:33 2020

@<TRIPOS>MOLECULE
6cgz_1_HL6
   14    14     1     0     0
SMALL
NO_CHARGES


@<TRIPOS>ATOM
      1 N         -30.1210  -43.7810   17.7950 N.am      1 HL6307      0.0000 
      2 C1        -27.8830  -44.2670   17.9290 C.2       1 HL6307      0.0000 
      3 O1        -27.7260  -44.2260   19.1990 O.2       1 HL6307      0.0000 
      4 C2        -27.3530  -44.6580   15.7820 C.3       1 HL6307      0.0000 
      5 O2        -26.9790  -43.8920   16.9230 O.3       1 HL6307      0.0000 
      6 C3        -28.8670  -44.7840   15.9250 C.3       1 HL6307      0.0000 
      7 O3        -30.5300  -44.8380   19.7550 O.2       1 HL6307      0.0000 
      8 C4        -29.0900  -44.7490   17.3920 C.3       1 HL6307      0.0000 
      9 C5        -30.7680  -43.9180   18.9680 C.2       1 HL6307      0.0000 
     10 C6        -31.7870  -42.8020   19.2480 C.3       1 HL6307      0.0000 
     11 C7        -32.8480  -43.1930   20.2410 C.3       1 HL6307      0.0000 
     12 C8        -33.9280  -43.9210   19.4410 C.3       1 HL6307      0.0000 
     13 C9        -35.2310  -43.6870   20.2030 C.3       1 HL6307      0.0000 
     14 C10       -36.1090  -44.9120   19.8890 C.3       1 HL6307      0.0000 
@<TRIPOS>BOND
     1    1    8 1    
     2    1    9 am   
     3    2    3 2    
     4    2    5 1    
     5    2    8 1    
     6    4    5 1    
     7    4    6 1    
     8    6    8 1    
     9    7    9 2    
    10    9   10 1    
    11   10   11 1    
    12   11   12 1    
    13   12   13 1    
    14   13   14 1    
@<TRIPOS>SUBSTRUCTURE
     1 HL6307      1 GROUP   
@<TRIPOS>SET

