#    Name: 6cgz_1_HL6_CAVITY_N1_ALL
#    Modification time : Fri May 22 19:28:34 2020

@<TRIPOS>MOLECULE
6cgz_1_HL6_CAVITY_N1_ALL
   75     0     7     0     0
SMALL
NO_CHARGES


@<TRIPOS>ATOM
      1 OG        -30.0500  -44.6000   20.2200 O.3       1 SER1        0.0000 
      2 OG        -29.7600  -44.1500   17.2700 O.3       1 SER1        0.0000 
      3 OG        -29.6100  -43.9300   15.7900 O.3       1 SER1        0.0000 
      4 OG        -31.1000  -43.4600   18.7600 O.3       1 SER1        0.0000 
      5 OG        -30.9500  -43.2400   17.2900 O.3       1 SER1        0.0000 
      6 OG        -30.8000  -43.0100   15.8100 O.3       1 SER1        0.0000 
      7 OG        -32.5800  -43.0000   21.7300 O.3       1 SER1        0.0000 
      8 OG        -32.2900  -42.5500   18.7800 O.3       1 SER1        0.0000 
      9 OG        -32.1400  -42.3300   17.3100 O.3       1 SER1        0.0000 
     10 OG        -31.9900  -42.1000   15.8300 O.3       1 SER1        0.0000 
     11 O         -35.2900  -46.5100   20.9300 O.2       2 ALA2        0.0000 
     12 N         -33.4800  -41.6400   18.8000 N.am      2 ALA2        0.0000 
     13 N         -33.1800  -41.1900   15.8500 N.am      2 ALA2        0.0000 
     14 N         -34.6700  -40.7200   18.8200 N.am      2 ALA2        0.0000 
     15 N         -34.5200  -40.5000   17.3500 N.am      2 ALA2        0.0000 
     16 OD1       -29.9100  -44.3800   18.7400 O.co2     3 ASP3        0.0000 
     17 NZ        -29.4700  -46.2300   16.9800 N.4       4 LYS4        0.0000 
     18 NZ        -28.7200  -45.2900   18.7200 N.4       4 LYS4        0.0000 
     19 NZ        -28.5700  -45.0600   17.2500 N.4       4 LYS4        0.0000 
     20 NZ        -28.4200  -44.8400   15.7700 N.4       4 LYS4        0.0000 
     21 CZ        -36.0400  -47.4500   19.1800 C.ar      5 PHE5        0.0000 
     22 CZ        -37.2300  -46.5400   19.2000 C.ar      5 PHE5        0.0000 
     23 CZ        -37.0800  -46.3100   17.7300 C.ar      5 PHE5        0.0000 
     24 CZ        -33.9500  -47.1900   19.4300 C.ar      5 PHE5        0.0000 
     25 CZ        -35.1400  -46.2800   19.4500 C.ar      5 PHE5        0.0000 
     26 CZ        -36.1800  -45.1400   18.0000 C.ar      5 PHE5        0.0000 
     27 CZ        -30.3700  -47.4000   16.7100 C.ar      5 PHE5        0.0000 
     28 CZ        -31.5600  -46.4900   16.7300 C.ar      5 PHE5        0.0000 
     29 CZ        -32.9000  -45.8000   18.2300 C.ar      5 PHE5        0.0000 
     30 CZ        -34.0900  -44.8900   18.2400 C.ar      5 PHE5        0.0000 
     31 CZ        -35.2800  -43.9800   18.2600 C.ar      5 PHE5        0.0000 
     32 CZ        -36.6200  -43.2900   19.7600 C.ar      5 PHE5        0.0000 
     33 CZ        -30.6600  -45.3200   17.0000 C.ar      5 PHE5        0.0000 
     34 CZ        -31.8500  -44.4100   17.0200 C.ar      5 PHE5        0.0000 
     35 CZ        -31.7000  -44.1800   15.5400 C.ar      5 PHE5        0.0000 
     36 CZ        -33.0400  -43.4900   17.0400 C.ar      5 PHE5        0.0000 
     37 CZ        -34.3800  -42.8100   18.5300 C.ar      5 PHE5        0.0000 
     38 CZ        -35.5700  -41.8900   18.5500 C.ar      5 PHE5        0.0000 
     39 CZ        -31.2400  -43.6900   20.2400 C.ar      5 PHE5        0.0000 
     40 CZ        -32.4300  -42.7800   20.2600 C.ar      5 PHE5        0.0000 
     41 CZ        -33.3300  -41.4100   17.3300 C.ar      5 PHE5        0.0000 
     42 CZ        -31.5300  -41.6100   20.5300 C.ar      5 PHE5        0.0000 
     43 CZ        -31.3900  -41.3800   19.0500 C.ar      5 PHE5        0.0000 
     44 CA        -36.1900  -47.6800   20.6600 C.3       6 GLY6        0.0000 
     45 CA        -37.3800  -46.7600   20.6800 C.3       6 GLY6        0.0000 
     46 CA        -31.8600  -46.9400   19.6800 C.3       6 GLY6        0.0000 
     47 CA        -31.7100  -46.7100   18.2100 C.3       6 GLY6        0.0000 
     48 CA        -33.0500  -46.0300   19.7000 C.3       6 GLY6        0.0000 
     49 CA        -34.3800  -45.3400   21.2000 C.3       6 GLY6        0.0000 
     50 CA        -34.2400  -45.1100   19.7200 C.3       6 GLY6        0.0000 
     51 CA        -29.6200  -46.4600   18.4500 C.3       6 GLY6        0.0000 
     52 CA        -29.3200  -46.0100   15.5000 C.3       6 GLY6        0.0000 
     53 CA        -30.9600  -45.7700   19.9500 C.3       6 GLY6        0.0000 
     54 CA        -30.8100  -45.5400   18.4700 C.3       6 GLY6        0.0000 
     55 CA        -30.5100  -45.1000   15.5200 C.3       6 GLY6        0.0000 
     56 CA        -32.1500  -44.8600   19.9700 C.3       6 GLY6        0.0000 
     57 CA        -33.4800  -44.1700   21.4600 C.3       6 GLY6        0.0000 
     58 CA        -33.3400  -43.9400   19.9900 C.3       6 GLY6        0.0000 
     59 CA        -32.8900  -43.2700   15.5600 C.3       6 GLY6        0.0000 
     60 CA        -34.8200  -43.4800   22.9600 C.3       6 GLY6        0.0000 
     61 CA        -35.8600  -42.3400   21.5000 C.3       6 GLY6        0.0000 
     62 CA        -35.7200  -42.1200   20.0300 C.3       6 GLY6        0.0000 
     63 CA        -34.9600  -41.1700   21.7700 C.3       6 GLY6        0.0000 
     64 CA        -34.8200  -40.9500   20.3000 C.3       6 GLY6        0.0000 
     65 CA        -36.1500  -40.2600   21.7900 C.3       6 GLY6        0.0000 
     66 DU        -36.4800  -45.5900   20.9500 H         7 CUB7        0.0000 
     67 DU        -36.3300  -45.3700   19.4700 H         7 CUB7        0.0000 
     68 DU        -35.5700  -44.4200   21.2200 H         7 CUB7        0.0000 
     69 DU        -35.4300  -44.2000   19.7400 H         7 CUB7        0.0000 
     70 DU        -32.0000  -44.6300   18.4900 H         7 CUB7        0.0000 
     71 DU        -33.1900  -43.7200   18.5100 H         7 CUB7        0.0000 
     72 DU        -34.6700  -43.2600   21.4800 H         7 CUB7        0.0000 
     73 DU        -34.5300  -43.0300   20.0100 H         7 CUB7        0.0000 
     74 DU        -33.7700  -42.0900   21.7500 H         7 CUB7        0.0000 
     75 DU        -33.6300  -41.8600   20.2800 H         7 CUB7        0.0000 
@<TRIPOS>BOND
@<TRIPOS>SUBSTRUCTURE
     1 SER1        1 GROUP   
     2 ALA2       11 GROUP   
     3 ASP3       16 GROUP   
     4 LYS4       17 GROUP   
     5 PHE5       21 GROUP   
     6 GLY6       44 GROUP   
     7 CUB7       66 GROUP   
@<TRIPOS>SET

