#    Name: 6q2q_2_UTP_CAVITY_N1_4
#    Modification time : Fri May 22 19:29:04 2020

@<TRIPOS>MOLECULE
6q2q_2_UTP_CAVITY_N1_4
   17     0     4     0     0
SMALL
NO_CHARGES


@<TRIPOS>ATOM
      1 OG          8.7000   14.5400   54.0500 O.3       1 SER1        0.0000 
      2 OG          7.2900   14.4000   54.5400 O.3       1 SER1        0.0000 
      3 OG          9.1300   13.4400   54.9700 O.3       1 SER1        0.0000 
      4 OG          9.4000   14.4600   56.0400 O.3       1 SER1        0.0000 
      5 O           5.8800   14.2600   55.0300 O.2       2 ALA2        0.0000 
      6 O           6.3100   13.1600   55.9600 O.2       2 ALA2        0.0000 
      7 CZ          8.4300   13.5300   52.9700 C.ar      3 PHE5        0.0000 
      8 CZ          7.0200   13.3900   53.4700 C.ar      3 PHE5        0.0000 
      9 CZ         10.2700   12.5700   53.4100 C.ar      3 PHE5        0.0000 
     10 CZ          8.8600   12.4300   53.9000 C.ar      3 PHE5        0.0000 
     11 CZ          7.4500   12.2900   54.3900 C.ar      3 PHE5        0.0000 
     12 CZ          6.0400   12.1500   54.8800 C.ar      3 PHE5        0.0000 
     13 CA          5.6100   13.2400   53.9600 C.3       4 GLY6        0.0000 
     14 CA          7.7200   13.3000   55.4600 C.3       4 GLY6        0.0000 
     15 CA          7.5600   15.4100   55.6100 C.3       4 GLY6        0.0000 
     16 CA          6.1500   15.2700   56.1000 C.3       4 GLY6        0.0000 
     17 CA          8.0000   14.3100   56.5400 C.3       4 GLY6        0.0000 
@<TRIPOS>BOND
@<TRIPOS>SUBSTRUCTURE
     1 SER1        1 GROUP   
     2 ALA2        5 GROUP   
     3 PHE5        7 GROUP   
     4 GLY6       13 GROUP   
@<TRIPOS>SET

