#    Name: 6q2q_1_SAH_CAVITY_N1_8
#    Modification time : Fri May 22 19:28:59 2020

@<TRIPOS>MOLECULE
6q2q_1_SAH_CAVITY_N1_8
   96     0     7     0     0
SMALL
NO_CHARGES


@<TRIPOS>ATOM
      1 OG          8.7000   14.5400   54.0500 O.3       1 SER1        0.0000 
      2 OG          7.2900   14.4000   54.5400 O.3       1 SER1        0.0000 
      3 OG          9.1300   13.4400   54.9700 O.3       1 SER1        0.0000 
      4 OG          6.7500   12.0600   56.8800 O.3       1 SER1        0.0000 
      5 OG          8.5900   11.1100   57.3200 O.3       1 SER1        0.0000 
      6 OG          7.1800   10.9600   57.8100 O.3       1 SER1        0.0000 
      7 OG          5.7700   10.8200   58.3000 O.3       1 SER1        0.0000 
      8 OG          9.4000   14.4600   56.0400 O.3       1 SER1        0.0000 
      9 OG         11.2500   13.5000   56.4800 O.3       1 SER1        0.0000 
     10 OG          8.8700   12.1200   58.3900 O.3       1 SER1        0.0000 
     11 OG          9.3000   11.0200   59.3100 O.3       1 SER1        0.0000 
     12 OG         10.5500   13.2700   58.9700 O.3       1 SER1        0.0000 
     13 O           5.8200    5.9000   52.4500 O.2       2 ALA2        0.0000 
     14 N          12.5500   10.5200   54.7600 N.am      2 ALA2        0.0000 
     15 N          11.1400   10.3800   55.2600 N.am      2 ALA2        0.0000 
     16 N          11.5700    9.2800   56.1800 N.am      2 ALA2        0.0000 
     17 N          12.0100    8.1900   57.1100 N.am      2 ALA2        0.0000 
     18 O           5.8800   14.2600   55.0300 O.2       2 ALA2        0.0000 
     19 N          10.5400   13.5900   54.4800 N.am      2 ALA2        0.0000 
     20 O           6.3100   13.1600   55.9600 O.2       2 ALA2        0.0000 
     21 N          10.9800   12.4900   55.4000 N.am      2 ALA2        0.0000 
     22 O          12.8200   11.5400   55.8400 O.2       2 ALA2        0.0000 
     23 N          13.2600   10.4400   56.7600 N.am      2 ALA2        0.0000 
     24 N          13.6900    9.3400   57.6900 N.am      2 ALA2        0.0000 
     25 N          11.6800   12.4100   57.4000 N.am      2 ALA2        0.0000 
     26 N          13.5300   11.4500   57.8400 N.am      2 ALA2        0.0000 
     27 N          13.9600   10.3500   58.7600 N.am      2 ALA2        0.0000 
     28 N          11.5200   14.5200   57.5500 N.am      2 ALA2        0.0000 
     29 N          11.9600   13.4200   58.4800 N.am      2 ALA2        0.0000 
     30 N          13.8000   12.4600   58.9100 N.am      2 ALA2        0.0000 
     31 O          10.9800   12.1800   59.8900 O.2       2 ALA2        0.0000 
     32 N          14.2400   11.3700   59.8300 N.am      2 ALA2        0.0000 
     33 OD1        10.1700    9.1400   56.6800 O.co2     3 ASP3        0.0000 
     34 OD1         8.7600    9.0000   57.1700 O.co2     3 ASP3        0.0000 
     35 OD1        10.6000    8.0400   57.6000 O.co2     3 ASP3        0.0000 
     36 OD1        10.4400   10.1500   57.7500 O.co2     3 ASP3        0.0000 
     37 OD1         9.0300   10.0100   58.2400 O.co2     3 ASP3        0.0000 
     38 OD1         7.6200    9.8700   58.7300 O.co2     3 ASP3        0.0000 
     39 OD1        12.2800    9.2000   58.1800 O.co2     3 ASP3        0.0000 
     40 OD1        10.8700    9.0500   58.6700 O.co2     3 ASP3        0.0000 
     41 OD1        10.7100   11.1600   58.8200 O.co2     3 ASP3        0.0000 
     42 OD1        12.5500   10.2100   59.2500 O.co2     3 ASP3        0.0000 
     43 OD1        12.9900    9.1100   60.1800 O.co2     3 ASP3        0.0000 
     44 OD1        11.4200   11.0800   60.8200 O.co2     3 ASP3        0.0000 
     45 NZ         12.3900   12.3200   59.4000 N.4       4 LYS4        0.0000 
     46 CZ          5.6600    8.0100   52.5900 C.ar      5 PHE5        0.0000 
     47 CZ          7.5000    7.0600   53.0300 C.ar      5 PHE5        0.0000 
     48 CZ          5.9300    9.0200   53.6700 C.ar      5 PHE5        0.0000 
     49 CZ          7.7800    8.0700   54.1000 C.ar      5 PHE5        0.0000 
     50 CZ          9.6200    7.1100   54.5300 C.ar      5 PHE5        0.0000 
     51 CZ          8.2100    6.9700   55.0200 C.ar      5 PHE5        0.0000 
     52 CZ          6.2000   10.0400   54.7400 C.ar      5 PHE5        0.0000 
     53 CZ         10.8700    9.3700   54.1800 C.ar      5 PHE5        0.0000 
     54 CZ          9.4600    9.2200   54.6800 C.ar      5 PHE5        0.0000 
     55 CZ          8.0500    9.0800   55.1700 C.ar      5 PHE5        0.0000 
     56 CZ          9.8900    8.1300   55.6000 C.ar      5 PHE5        0.0000 
     57 CZ          8.4800    7.9800   56.1000 C.ar      5 PHE5        0.0000 
     58 CZ         10.3300    7.0300   56.5300 C.ar      5 PHE5        0.0000 
     59 CZ          8.4300   13.5300   52.9700 C.ar      5 PHE5        0.0000 
     60 CZ          7.0200   13.3900   53.4700 C.ar      5 PHE5        0.0000 
     61 CZ         10.2700   12.5700   53.4100 C.ar      5 PHE5        0.0000 
     62 CZ          8.8600   12.4300   53.9000 C.ar      5 PHE5        0.0000 
     63 CZ          7.4500   12.2900   54.3900 C.ar      5 PHE5        0.0000 
     64 CZ          6.0400   12.1500   54.8800 C.ar      5 PHE5        0.0000 
     65 CZ         10.7000   11.4800   54.3300 C.ar      5 PHE5        0.0000 
     66 CZ          9.3000   11.3300   54.8200 C.ar      5 PHE5        0.0000 
     67 CZ          7.8900   11.1900   55.3200 C.ar      5 PHE5        0.0000 
     68 CZ          6.4800   11.0500   55.8100 C.ar      5 PHE5        0.0000 
     69 CZ          9.7300   10.2400   55.7500 C.ar      5 PHE5        0.0000 
     70 CZ          5.3400   11.9200   57.3800 C.ar      5 PHE5        0.0000 
     71 CA          6.0900    6.9100   53.5200 C.3       6 GLY6        0.0000 
     72 CA          6.3700    7.9300   54.5900 C.3       6 GLY6        0.0000 
     73 CA          6.6400    8.9400   55.6600 C.3       6 GLY6        0.0000 
     74 CA         11.3000    8.2700   55.1100 C.3       6 GLY6        0.0000 
     75 CA          5.6100   13.2400   53.9600 C.3       6 GLY6        0.0000 
     76 CA         12.1100   11.6200   53.8400 C.3       6 GLY6        0.0000 
     77 CA          6.9100    9.9500   56.7400 C.3       6 GLY6        0.0000 
     78 CA          5.5000    9.8100   57.2300 C.3       6 GLY6        0.0000 
     79 CA          7.3500    8.8500   57.6600 C.3       6 GLY6        0.0000 
     80 CA          7.7200   13.3000   55.4600 C.3       6 GLY6        0.0000 
     81 CA          7.5600   15.4100   55.6100 C.3       6 GLY6        0.0000 
     82 CA          6.1500   15.2700   56.1000 C.3       6 GLY6        0.0000 
     83 CA          8.0000   14.3100   56.5400 C.3       6 GLY6        0.0000 
     84 CA          9.8400   13.3600   56.9700 C.3       6 GLY6        0.0000 
     85 CA          8.4300   13.2200   57.4600 C.3       6 GLY6        0.0000 
     86 CA          7.0200   13.0700   57.9600 C.3       6 GLY6        0.0000 
     87 CA         10.1100   14.3700   58.0400 C.3       6 GLY6        0.0000 
     88 CA         12.8300   11.2200   60.3300 C.3       6 GLY6        0.0000 
     89 DU          8.3200   10.0900   56.2400 H         7 CUB7        0.0000 
     90 DU          9.5700   12.3500   55.9000 H         7 CUB7        0.0000 
     91 DU          8.1600   12.2000   56.3900 H         7 CUB7        0.0000 
     92 DU         11.4100   11.3900   56.3300 H         7 CUB7        0.0000 
     93 DU         10.0000   11.2500   56.8200 H         7 CUB7        0.0000 
     94 DU         11.8500   10.3000   57.2600 H         7 CUB7        0.0000 
     95 DU         10.2700   12.2600   57.9000 H         7 CUB7        0.0000 
     96 DU         12.1200   11.3100   58.3300 H         7 CUB7        0.0000 
@<TRIPOS>BOND
@<TRIPOS>SUBSTRUCTURE
     1 SER1        1 GROUP   
     2 ALA2       13 GROUP   
     3 ASP3       33 GROUP   
     4 LYS4       45 GROUP   
     5 PHE5       46 GROUP   
     6 GLY6       71 GROUP   
     7 CUB7       89 GROUP   
@<TRIPOS>SET

