#    Name: 6q2q_4_UTP_CAVITY_N1_6
#    Modification time : Fri May 22 19:29:13 2020

@<TRIPOS>MOLECULE
6q2q_4_UTP_CAVITY_N1_6
   72     0     5     0     0
SMALL
NO_CHARGES


@<TRIPOS>ATOM
      1 OG         -0.4900  -12.1600   29.1400 O.3       1 SER1        0.0000 
      2 OG          2.1600   -9.7600   28.3000 O.3       1 SER1        0.0000 
      3 OG          2.6000  -10.8600   29.2300 O.3       1 SER1        0.0000 
      4 OG          1.1900  -11.0000   29.7200 O.3       1 SER1        0.0000 
      5 OG         -0.2200  -11.1400   30.2100 O.3       1 SER1        0.0000 
      6 OG          3.4700  -13.0500   31.0800 O.3       1 SER1        0.0000 
      7 OG          2.0600  -13.2000   31.5700 O.3       1 SER1        0.0000 
      8 OG          3.4100   -7.5100   27.9600 O.3       1 SER1        0.0000 
      9 OG          3.6800   -6.4900   29.0300 O.3       1 SER1        0.0000 
     10 N           4.9800   -9.4700   27.3200 N.am      2 ALA2        0.0000 
     11 N           3.5700   -9.6200   27.8100 N.am      2 ALA2        0.0000 
     12 O           5.4200  -10.5700   28.2400 O.2       2 ALA2        0.0000 
     13 O           4.4400  -11.8100   29.6600 O.2       2 ALA2        0.0000 
     14 N          -0.3800   -9.0300   30.3600 N.am      2 ALA2        0.0000 
     15 N          -1.3600  -10.2700   31.7800 N.am      2 ALA2        0.0000 
     16 N           5.4700   -2.2200   30.8300 N.am      2 ALA2        0.0000 
     17 N           5.9100   -3.3100   31.7500 N.am      2 ALA2        0.0000 
     18 N           4.3400   -1.3500   32.3900 N.am      2 ALA2        0.0000 
     19 N           2.9300   -1.4900   32.8900 N.am      2 ALA2        0.0000 
     20 CZ          5.2600   -8.4600   28.3900 C.ar      3 PHE5        0.0000 
     21 CZ          2.4400   -8.7500   29.3800 C.ar      3 PHE5        0.0000 
     22 CZ          1.0300   -8.8900   29.8700 C.ar      3 PHE5        0.0000 
     23 CZ          5.6900   -9.5600   29.3100 C.ar      3 PHE5        0.0000 
     24 CZ          2.8700   -9.8400   30.3000 C.ar      3 PHE5        0.0000 
     25 CZ          1.4600   -9.9900   30.7900 C.ar      3 PHE5        0.0000 
     26 CZ          0.0500  -10.1300   31.2900 C.ar      3 PHE5        0.0000 
     27 CZ          4.7200  -10.8000   30.7300 C.ar      3 PHE5        0.0000 
     28 CZ          1.9000  -11.0900   31.7200 C.ar      3 PHE5        0.0000 
     29 CZ          0.4900  -11.2300   32.2100 C.ar      3 PHE5        0.0000 
     30 CZ          3.7400  -12.0400   32.1500 C.ar      3 PHE5        0.0000 
     31 CZ          5.0900   -6.3500   28.5400 C.ar      3 PHE5        0.0000 
     32 CZ          2.2700   -6.6400   29.5200 C.ar      3 PHE5        0.0000 
     33 CZ          5.5300   -7.4500   29.4600 C.ar      3 PHE5        0.0000 
     34 CZ          4.1200   -7.5900   29.9500 C.ar      3 PHE5        0.0000 
     35 CZ          2.7100   -7.7300   30.4500 C.ar      3 PHE5        0.0000 
     36 CZ          4.5500   -8.6900   30.8800 C.ar      3 PHE5        0.0000 
     37 CZ          3.5800   -9.9300   32.3000 C.ar      3 PHE5        0.0000 
     38 CZ          0.7600  -10.2200   33.2800 C.ar      3 PHE5        0.0000 
     39 CZ          4.0100  -11.0300   33.2200 C.ar      3 PHE5        0.0000 
     40 CZ          2.6000  -11.1700   33.7200 C.ar      3 PHE5        0.0000 
     41 CZ          5.3600   -5.3400   29.6100 C.ar      3 PHE5        0.0000 
     42 CZ          2.5500   -5.6200   30.6000 C.ar      3 PHE5        0.0000 
     43 CZ          4.3900   -6.5800   31.0300 C.ar      3 PHE5        0.0000 
     44 CZ          4.2900  -10.0100   34.3000 C.ar      3 PHE5        0.0000 
     45 CZ          2.8800  -10.1600   34.7900 C.ar      3 PHE5        0.0000 
     46 CZ          5.6400   -4.3300   30.6800 C.ar      3 PHE5        0.0000 
     47 CZ          4.5600   -9.0000   35.3700 C.ar      3 PHE5        0.0000 
     48 CZ          4.5000   -3.4600   32.2500 C.ar      3 PHE5        0.0000 
     49 CZ          3.0900   -3.6000   32.7400 C.ar      3 PHE5        0.0000 
     50 CA          1.3500  -13.1100   29.5700 C.3       4 GLY6        0.0000 
     51 CA          4.0100  -10.7100   28.7400 C.3       4 GLY6        0.0000 
     52 CA          3.0300  -11.9500   30.1500 C.3       4 GLY6        0.0000 
     53 CA          1.6300  -12.1000   30.6500 C.3       4 GLY6        0.0000 
     54 CA          4.1800  -13.1400   33.0800 C.3       4 GLY6        0.0000 
     55 CA          5.9600   -8.5500   30.3900 C.3       4 GLY6        0.0000 
     56 CA         -1.0800   -9.2600   32.8500 C.3       4 GLY6        0.0000 
     57 CA          4.9900   -9.7900   31.8100 C.3       4 GLY6        0.0000 
     58 CA          4.4500  -12.1200   34.1500 C.3       4 GLY6        0.0000 
     59 CA          3.9600   -5.4800   30.1000 C.3       4 GLY6        0.0000 
     60 CA          5.8000   -6.4400   30.5300 C.3       4 GLY6        0.0000 
     61 CA          5.7000   -9.8700   33.8000 C.3       4 GLY6        0.0000 
     62 CA          4.2300   -4.4700   31.1700 C.3       4 GLY6        0.0000 
     63 CA          5.9700   -8.8600   34.8800 C.3       4 GLY6        0.0000 
     64 CA          4.0600   -2.3600   31.3200 C.3       4 GLY6        0.0000 
     65 CA          2.6600   -2.5000   31.8100 C.3       4 GLY6        0.0000 
     66 CA          4.7700   -2.4400   33.3200 C.3       4 GLY6        0.0000 
     67 CA          3.3600   -2.5900   33.8100 C.3       4 GLY6        0.0000 
     68 DU          0.2200  -12.2400   31.1400 H         5 CUB7        0.0000 
     69 DU          3.8500   -8.6000   28.8800 H         5 CUB7        0.0000 
     70 DU          4.2800   -9.7000   29.8100 H         5 CUB7        0.0000 
     71 DU          3.3100  -10.9400   31.2300 H         5 CUB7        0.0000 
     72 DU          2.3300  -12.1800   32.6400 H         5 CUB7        0.0000 
@<TRIPOS>BOND
@<TRIPOS>SUBSTRUCTURE
     1 SER1        1 GROUP   
     2 ALA2       10 GROUP   
     3 PHE5       20 GROUP   
     4 GLY6       50 GROUP   
     5 CUB7       68 GROUP   
@<TRIPOS>SET

