#    Name: 6q2q_3_SAH
#    Modification time : Fri May 22 19:29:07 2020

@<TRIPOS>MOLECULE
6q2q_3_SAH
   26    28     1     0     0
SMALL
NO_CHARGES


@<TRIPOS>ATOM
      1 N          -2.3850  -14.4620   30.3940 N.4       1 SAH402      0.0000 
      2 CA         -1.0720  -14.5490   29.7000 C.3       1 SAH402      0.0000 
      3 CB         -0.6460  -13.1760   29.1480 C.3       1 SAH402      0.0000 
      4 CG         -1.0150  -11.9430   29.9870 C.3       1 SAH402      0.0000 
      5 SD          0.1990  -11.5420   31.2830 S.3       1 SAH402      0.0000 
      6 C          -0.0130  -15.1140   30.6370 C.2       1 SAH402      0.0000 
      7 O          -0.1630  -15.1340   31.8320 O.co2     1 SAH402      0.0000 
      8 OXT         1.1260  -15.6310   30.1680 O.co2     1 SAH402      0.0000 
      9 C5'         1.7410  -11.2050   30.3640 C.3       1 SAH402      0.0000 
     10 C4'         3.0190  -11.5820   31.1440 C.3       1 SAH402      0.0000 
     11 O4'         3.2120  -10.6720   32.2590 O.3       1 SAH402      0.0000 
     12 C3'         2.9640  -13.0030   31.7280 C.3       1 SAH402      0.0000 
     13 O3'         4.2580  -13.6040   31.6010 O.3       1 SAH402      0.0000 
     14 C2'         2.6430  -12.7400   33.2270 C.3       1 SAH402      0.0000 
     15 O2'         3.1750  -13.7420   34.0750 O.3       1 SAH402      0.0000 
     16 C1'         3.4290  -11.4290   33.4710 C.3       1 SAH402      0.0000 
     17 N9          2.9110  -10.6820   34.6280 N.pl3     1 SAH402      0.0000 
     18 C8          1.6340  -10.5890   35.1100 C.2       1 SAH402      0.0000 
     19 N7          1.6100   -9.8030   36.1580 N.2       1 SAH402      0.0000 
     20 C5          2.8780   -9.3720   36.4020 C.ar      1 SAH402      0.0000 
     21 C6          3.4680   -8.5330   37.3620 C.ar      1 SAH402      0.0000 
     22 N6          2.6760   -7.9740   38.3510 N.pl3     1 SAH402      0.0000 
     23 N1          4.7850   -8.3240   37.2940 N.ar      1 SAH402      0.0000 
     24 C2          5.5230   -8.8700   36.3380 C.ar      1 SAH402      0.0000 
     25 N3          5.0080   -9.6660   35.4130 N.ar      1 SAH402      0.0000 
     26 C4          3.7120   -9.9290   35.4240 C.ar      1 SAH402      0.0000 
@<TRIPOS>BOND
     1    1    2 1    
     2    2    3 1    
     3    2    6 1    
     4    3    4 1    
     5    4    5 1    
     6    5    9 1    
     7    6    7 ar   
     8    6    8 ar   
     9    9   10 1    
    10   10   11 1    
    11   10   12 1    
    12   11   16 1    
    13   12   13 1    
    14   12   14 1    
    15   14   15 1    
    16   14   16 1    
    17   16   17 1    
    18   17   18 1    
    19   17   26 1    
    20   18   19 2    
    21   19   20 1    
    22   20   21 ar   
    23   20   26 ar   
    24   21   22 1    
    25   21   23 ar   
    26   23   24 ar   
    27   24   25 ar   
    28   25   26 ar   
@<TRIPOS>SUBSTRUCTURE
     1 SAH402      1 GROUP   
@<TRIPOS>SET

