#    Name: 6q2q_1_SAH
#    Modification time : Fri May 22 19:28:58 2020

@<TRIPOS>MOLECULE
6q2q_1_SAH
   26    28     1     0     0
SMALL
NO_CHARGES


@<TRIPOS>ATOM
      1 N          12.8560   13.0030   59.0440 N.4       1 SAH402      0.0000 
      2 CA         11.5500   13.6760   59.1200 C.3       1 SAH402      0.0000 
      3 CB         11.1220   14.2390   57.7490 C.3       1 SAH402      0.0000 
      4 CG         11.5860   13.3840   56.5600 C.3       1 SAH402      0.0000 
      5 SD         10.3110   12.2190   55.9920 S.3       1 SAH402      0.0000 
      6 C          10.4940   12.7300   59.6340 C.2       1 SAH402      0.0000 
      7 O          10.6660   11.5390   59.6730 O.co2     1 SAH402      0.0000 
      8 OXT         9.3290   13.2110   60.0750 O.co2     1 SAH402      0.0000 
      9 C5'         8.8340   13.2780   55.7830 C.3       1 SAH402      0.0000 
     10 C4'         7.5620   12.4590   56.0760 C.3       1 SAH402      0.0000 
     11 O4'         7.4470   11.3850   55.1100 O.3       1 SAH402      0.0000 
     12 C3'         7.5700   11.8010   57.4780 C.3       1 SAH402      0.0000 
     13 O3'         6.2970   11.9630   58.1120 O.3       1 SAH402      0.0000 
     14 C2'         7.8340   10.3050   57.1630 C.3       1 SAH402      0.0000 
     15 O2'         7.2730    9.4400   58.1460 O.3       1 SAH402      0.0000 
     16 C1'         7.1080   10.1680   55.8010 C.3       1 SAH402      0.0000 
     17 N9          7.5940    9.0140   55.0210 N.pl3     1 SAH402      0.0000 
     18 C8          8.8690    8.5180   54.9470 C.2       1 SAH402      0.0000 
     19 N7          8.9080    7.4930   54.1390 N.2       1 SAH402      0.0000 
     20 C5          7.6380    7.2780   53.6760 C.ar      1 SAH402      0.0000 
     21 C6          7.0770    6.3370   52.8090 C.ar      1 SAH402      0.0000 
     22 N6          7.8900    5.3540   52.2340 N.pl3     1 SAH402      0.0000 
     23 N1          5.7630    6.4200   52.5600 N.ar      1 SAH402      0.0000 
     24 C2          5.0000    7.3610   53.1060 C.ar      1 SAH402      0.0000 
     25 N3          5.4830    8.2700   53.9350 N.ar      1 SAH402      0.0000 
     26 C4          6.7940    8.2540   54.2220 C.ar      1 SAH402      0.0000 
@<TRIPOS>BOND
     1    1    2 1    
     2    2    3 1    
     3    2    6 1    
     4    3    4 1    
     5    4    5 1    
     6    5    9 1    
     7    6    7 ar   
     8    6    8 ar   
     9    9   10 1    
    10   10   11 1    
    11   10   12 1    
    12   11   16 1    
    13   12   13 1    
    14   12   14 1    
    15   14   15 1    
    16   14   16 1    
    17   16   17 1    
    18   17   18 1    
    19   17   26 1    
    20   18   19 2    
    21   19   20 1    
    22   20   21 ar   
    23   20   26 ar   
    24   21   22 1    
    25   21   23 ar   
    26   23   24 ar   
    27   24   25 ar   
    28   25   26 ar   
@<TRIPOS>SUBSTRUCTURE
     1 SAH402      1 GROUP   
@<TRIPOS>SET

