#    Name: 6q2q_2_UTP
#    Modification time : Fri May 22 19:29:02 2020

@<TRIPOS>MOLECULE
6q2q_2_UTP
   29    30     1     0     0
SMALL
NO_CHARGES


@<TRIPOS>ATOM
      1 PA          3.2750   16.2800   55.1800 P.3       1 UTP404      0.0000 
      2 O1A         2.0340   15.6620   54.4060 O.co2     1 UTP404      0.0000 
      3 O2A         3.0240   16.4970   56.6200 O.co2     1 UTP404      0.0000 
      4 O3A         3.6610   17.6630   54.4890 O.3       1 UTP404      0.0000 
      5 O5'         4.5820   15.3580   55.0010 O.3       1 UTP404      0.0000 
      6 PB          2.9630   19.0890   54.5520 P.3       1 UTP404      0.0000 
      7 O1B         3.3860   19.8950   55.7110 O.co2     1 UTP404      0.0000 
      8 O2B         3.2380   19.8360   53.1660 O.co2     1 UTP404      0.0000 
      9 O3B         1.4340   18.7050   54.6520 O.3       1 UTP404      0.0000 
     10 PG          0.1580   19.6140   54.9360 P.3       1 UTP404      0.0000 
     11 O1G         0.4640   20.9970   54.4930 O.co2     1 UTP404      0.0000 
     12 O2G        -1.0560   18.9360   54.1710 O.co2     1 UTP404      0.0000 
     13 O3G        -0.1100   19.5210   56.5030 O.co2     1 UTP404      0.0000 
     14 C5'         4.7440   14.6500   53.7760 C.3       1 UTP404      0.0000 
     15 C4'         6.2320   14.7230   53.4650 C.3       1 UTP404      0.0000 
     16 O4'         6.5400   13.7010   52.5040 O.3       1 UTP404      0.0000 
     17 C1'         7.2290   14.3320   51.3870 C.3       1 UTP404      0.0000 
     18 C2'         6.6000   15.7270   51.3200 C.3       1 UTP404      0.0000 
     19 O2'         7.4470   16.6110   50.5790 O.3       1 UTP404      0.0000 
     20 C3'         6.5440   16.0840   52.8180 C.3       1 UTP404      0.0000 
     21 O3'         7.8240   16.5530   53.2770 O.3       1 UTP404      0.0000 
     22 N1          6.8900   13.5600   50.1940 N.am      1 UTP404      0.0000 
     23 C6          5.5750   13.4600   49.8150 C.2       1 UTP404      0.0000 
     24 C2          7.8700   12.9530   49.5010 C.2       1 UTP404      0.0000 
     25 O2          9.0120   13.0770   49.8880 O.2       1 UTP404      0.0000 
     26 N3          7.5820   12.2210   48.4050 N.am      1 UTP404      0.0000 
     27 C4          6.2910   12.1060   47.9990 C.2       1 UTP404      0.0000 
     28 O4          6.0010   11.4570   47.0110 O.2       1 UTP404      0.0000 
     29 C5          5.2490   12.7490   48.7180 C.2       1 UTP404      0.0000 
@<TRIPOS>BOND
     1    1    2 ar   
     2    1    3 ar   
     3    1    4 1    
     4    1    5 1    
     5    4    6 1    
     6    5   14 1    
     7    6    7 ar   
     8    6    8 ar   
     9    6    9 1    
    10    9   10 1    
    11   10   11 ar   
    12   10   12 ar   
    13   10   13 ar   
    14   14   15 1    
    15   15   16 1    
    16   15   20 1    
    17   16   17 1    
    18   17   18 1    
    19   17   22 1    
    20   18   19 1    
    21   18   20 1    
    22   20   21 1    
    23   22   23 1    
    24   22   24 1    
    25   23   29 2    
    26   24   25 2    
    27   24   26 1    
    28   26   27 1    
    29   27   28 2    
    30   27   29 1    
@<TRIPOS>SUBSTRUCTURE
     1 UTP404      1 GROUP   
@<TRIPOS>SET

