#    Name: 6q2q_2_UTP_CAVITY_N1_6
#    Modification time : Fri May 22 19:29:04 2020

@<TRIPOS>MOLECULE
6q2q_2_UTP_CAVITY_N1_6
   48     0     5     0     0
SMALL
NO_CHARGES


@<TRIPOS>ATOM
      1 OG          8.7000   14.5400   54.0500 O.3       1 SER1        0.0000 
      2 OG          7.2900   14.4000   54.5400 O.3       1 SER1        0.0000 
      3 OG          9.1300   13.4400   54.9700 O.3       1 SER1        0.0000 
      4 OG          6.7500   12.0600   56.8800 O.3       1 SER1        0.0000 
      5 OG          8.5900   11.1100   57.3200 O.3       1 SER1        0.0000 
      6 OG          7.1800   10.9600   57.8100 O.3       1 SER1        0.0000 
      7 OG          5.7700   10.8200   58.3000 O.3       1 SER1        0.0000 
      8 OG          9.4000   14.4600   56.0400 O.3       1 SER1        0.0000 
      9 OG         11.2500   13.5000   56.4800 O.3       1 SER1        0.0000 
     10 O           5.8800   14.2600   55.0300 O.2       2 ALA2        0.0000 
     11 N          10.5400   13.5900   54.4800 N.am      2 ALA2        0.0000 
     12 O           6.3100   13.1600   55.9600 O.2       2 ALA2        0.0000 
     13 N          10.9800   12.4900   55.4000 N.am      2 ALA2        0.0000 
     14 CZ          5.6600    8.0100   52.5900 C.ar      3 PHE5        0.0000 
     15 CZ          5.9300    9.0200   53.6700 C.ar      3 PHE5        0.0000 
     16 CZ          7.7800    8.0700   54.1000 C.ar      3 PHE5        0.0000 
     17 CZ          6.2000   10.0400   54.7400 C.ar      3 PHE5        0.0000 
     18 CZ         10.8700    9.3700   54.1800 C.ar      3 PHE5        0.0000 
     19 CZ          9.4600    9.2200   54.6800 C.ar      3 PHE5        0.0000 
     20 CZ          8.0500    9.0800   55.1700 C.ar      3 PHE5        0.0000 
     21 CZ          8.4300   13.5300   52.9700 C.ar      3 PHE5        0.0000 
     22 CZ          7.0200   13.3900   53.4700 C.ar      3 PHE5        0.0000 
     23 CZ         10.2700   12.5700   53.4100 C.ar      3 PHE5        0.0000 
     24 CZ          8.8600   12.4300   53.9000 C.ar      3 PHE5        0.0000 
     25 CZ          7.4500   12.2900   54.3900 C.ar      3 PHE5        0.0000 
     26 CZ          6.0400   12.1500   54.8800 C.ar      3 PHE5        0.0000 
     27 CZ         10.7000   11.4800   54.3300 C.ar      3 PHE5        0.0000 
     28 CZ          9.3000   11.3300   54.8200 C.ar      3 PHE5        0.0000 
     29 CZ          7.8900   11.1900   55.3200 C.ar      3 PHE5        0.0000 
     30 CZ          6.4800   11.0500   55.8100 C.ar      3 PHE5        0.0000 
     31 CZ          9.7300   10.2400   55.7500 C.ar      3 PHE5        0.0000 
     32 CZ          5.3400   11.9200   57.3800 C.ar      3 PHE5        0.0000 
     33 CA          6.6400    8.9400   55.6600 C.3       4 GLY6        0.0000 
     34 CA          5.6100   13.2400   53.9600 C.3       4 GLY6        0.0000 
     35 CA         12.1100   11.6200   53.8400 C.3       4 GLY6        0.0000 
     36 CA          6.9100    9.9500   56.7400 C.3       4 GLY6        0.0000 
     37 CA          5.5000    9.8100   57.2300 C.3       4 GLY6        0.0000 
     38 CA          7.7200   13.3000   55.4600 C.3       4 GLY6        0.0000 
     39 CA          7.5600   15.4100   55.6100 C.3       4 GLY6        0.0000 
     40 CA          6.1500   15.2700   56.1000 C.3       4 GLY6        0.0000 
     41 CA          8.0000   14.3100   56.5400 C.3       4 GLY6        0.0000 
     42 CA          9.8400   13.3600   56.9700 C.3       4 GLY6        0.0000 
     43 CA          8.4300   13.2200   57.4600 C.3       4 GLY6        0.0000 
     44 CA          7.0200   13.0700   57.9600 C.3       4 GLY6        0.0000 
     45 CA         10.1100   14.3700   58.0400 C.3       4 GLY6        0.0000 
     46 DU          8.3200   10.0900   56.2400 H         5 CUB7        0.0000 
     47 DU          9.5700   12.3500   55.9000 H         5 CUB7        0.0000 
     48 DU          8.1600   12.2000   56.3900 H         5 CUB7        0.0000 
@<TRIPOS>BOND
@<TRIPOS>SUBSTRUCTURE
     1 SER1        1 GROUP   
     2 ALA2       10 GROUP   
     3 PHE5       14 GROUP   
     4 GLY6       33 GROUP   
     5 CUB7       46 GROUP   
@<TRIPOS>SET

