#    Name: 6q2q_3_SAH_CAVITY_N1_ALL
#    Modification time : Fri May 22 19:29:09 2020

@<TRIPOS>MOLECULE
6q2q_3_SAH_CAVITY_N1_ALL
  128     0     7     0     0
SMALL
NO_CHARGES


@<TRIPOS>ATOM
      1 OG         -0.4900  -12.1600   29.1400 O.3       1 SER1        0.0000 
      2 OG          0.3800  -14.3500   30.9900 O.3       1 SER1        0.0000 
      3 OG          2.1600   -9.7600   28.3000 O.3       1 SER1        0.0000 
      4 OG          2.6000  -10.8600   29.2300 O.3       1 SER1        0.0000 
      5 OG          1.1900  -11.0000   29.7200 O.3       1 SER1        0.0000 
      6 OG         -0.2200  -11.1400   30.2100 O.3       1 SER1        0.0000 
      7 OG          3.4700  -13.0500   31.0800 O.3       1 SER1        0.0000 
      8 OG          2.0600  -13.2000   31.5700 O.3       1 SER1        0.0000 
      9 OG          0.6500  -13.3400   32.0600 O.3       1 SER1        0.0000 
     10 OG          3.4100   -7.5100   27.9600 O.3       1 SER1        0.0000 
     11 OG          3.6800   -6.4900   29.0300 O.3       1 SER1        0.0000 
     12 N          -0.3300  -14.2700   28.9900 N.am      2 ALA2        0.0000 
     13 N          -1.7400  -14.4100   29.4900 N.am      2 ALA2        0.0000 
     14 O          -1.3000  -15.5100   30.4100 O.2       2 ALA2        0.0000 
     15 N          -1.4700  -13.4000   30.5600 N.am      2 ALA2        0.0000 
     16 N          -2.4400  -14.6400   31.9800 N.am      2 ALA2        0.0000 
     17 N           4.9800   -9.4700   27.3200 N.am      2 ALA2        0.0000 
     18 N           3.5700   -9.6200   27.8100 N.am      2 ALA2        0.0000 
     19 O           5.4200  -10.5700   28.2400 O.2       2 ALA2        0.0000 
     20 N          -1.6300  -11.2900   30.7100 N.am      2 ALA2        0.0000 
     21 O           4.4400  -11.8100   29.6600 O.2       2 ALA2        0.0000 
     22 N          -1.1900  -12.3800   31.6300 N.am      2 ALA2        0.0000 
     23 N          -2.6000  -12.5300   32.1200 N.am      2 ALA2        0.0000 
     24 N          -4.0100  -12.6700   32.6200 N.am      2 ALA2        0.0000 
     25 N          -3.5800  -13.7700   33.5400 N.am      2 ALA2        0.0000 
     26 N          -3.1400  -14.8700   34.4700 N.am      2 ALA2        0.0000 
     27 N          -0.3800   -9.0300   30.3600 N.am      2 ALA2        0.0000 
     28 N          -1.3600  -10.2700   31.7800 N.am      2 ALA2        0.0000 
     29 N          -2.7700  -10.4200   32.2700 N.am      2 ALA2        0.0000 
     30 N          -2.3300  -11.5200   33.2000 N.am      2 ALA2        0.0000 
     31 N          -1.9000  -12.6100   34.1200 N.am      2 ALA2        0.0000 
     32 N          -3.3100  -12.7600   34.6200 N.am      2 ALA2        0.0000 
     33 N          -4.7100  -12.9000   35.1100 N.am      2 ALA2        0.0000 
     34 N          -1.4600  -13.7100   35.0500 N.am      2 ALA2        0.0000 
     35 N          -2.8700  -13.8500   35.5400 N.am      2 ALA2        0.0000 
     36 N          -0.6500  -10.3600   33.7800 N.am      2 ALA2        0.0000 
     37 N          -0.2100  -11.4600   34.7000 N.am      2 ALA2        0.0000 
     38 N           5.4700   -2.2200   30.8300 N.am      2 ALA2        0.0000 
     39 N           5.9100   -3.3100   31.7500 N.am      2 ALA2        0.0000 
     40 O           5.2700   -9.0900   37.3700 O.2       2 ALA2        0.0000 
     41 N           4.3400   -1.3500   32.3900 N.am      2 ALA2        0.0000 
     42 N           2.9300   -1.4900   32.8900 N.am      2 ALA2        0.0000 
     43 OD1        -1.0300  -14.4900   31.4800 O.co2     3 ASP3        0.0000 
     44 OD1        -2.0100  -15.7300   32.9000 O.co2     3 ASP3        0.0000 
     45 OD1        -0.7600  -13.4800   32.5600 O.co2     3 ASP3        0.0000 
     46 OD1         1.0900  -14.4400   32.9900 O.co2     3 ASP3        0.0000 
     47 OD1        -1.7300  -14.7200   33.9800 O.co2     3 ASP3        0.0000 
     48 OD1         2.7700  -13.2800   33.5700 O.co2     3 ASP3        0.0000 
     49 OD1         1.3600  -13.4200   34.0600 O.co2     3 ASP3        0.0000 
     50 OD1        -0.0500  -13.5700   34.5600 O.co2     3 ASP3        0.0000 
     51 NZ         -2.7100  -15.6500   30.9100 N.4       4 LYS4        0.0000 
     52 CZ          5.2600   -8.4600   28.3900 C.ar      5 PHE5        0.0000 
     53 CZ          2.4400   -8.7500   29.3800 C.ar      5 PHE5        0.0000 
     54 CZ          1.0300   -8.8900   29.8700 C.ar      5 PHE5        0.0000 
     55 CZ          5.6900   -9.5600   29.3100 C.ar      5 PHE5        0.0000 
     56 CZ          2.8700   -9.8400   30.3000 C.ar      5 PHE5        0.0000 
     57 CZ          1.4600   -9.9900   30.7900 C.ar      5 PHE5        0.0000 
     58 CZ          0.0500  -10.1300   31.2900 C.ar      5 PHE5        0.0000 
     59 CZ          4.7200  -10.8000   30.7300 C.ar      5 PHE5        0.0000 
     60 CZ          1.9000  -11.0900   31.7200 C.ar      5 PHE5        0.0000 
     61 CZ          0.4900  -11.2300   32.2100 C.ar      5 PHE5        0.0000 
     62 CZ          3.7400  -12.0400   32.1500 C.ar      5 PHE5        0.0000 
     63 CZ          5.0900   -6.3500   28.5400 C.ar      5 PHE5        0.0000 
     64 CZ          2.2700   -6.6400   29.5200 C.ar      5 PHE5        0.0000 
     65 CZ          5.5300   -7.4500   29.4600 C.ar      5 PHE5        0.0000 
     66 CZ          4.1200   -7.5900   29.9500 C.ar      5 PHE5        0.0000 
     67 CZ          2.7100   -7.7300   30.4500 C.ar      5 PHE5        0.0000 
     68 CZ          4.5500   -8.6900   30.8800 C.ar      5 PHE5        0.0000 
     69 CZ          3.5800   -9.9300   32.3000 C.ar      5 PHE5        0.0000 
     70 CZ          0.7600  -10.2200   33.2800 C.ar      5 PHE5        0.0000 
     71 CZ          4.0100  -11.0300   33.2200 C.ar      5 PHE5        0.0000 
     72 CZ          2.6000  -11.1700   33.7200 C.ar      5 PHE5        0.0000 
     73 CZ          1.2000  -11.3100   34.2100 C.ar      5 PHE5        0.0000 
     74 CZ          1.6300  -12.4100   35.1400 C.ar      5 PHE5        0.0000 
     75 CZ          0.2200  -12.5500   35.6300 C.ar      5 PHE5        0.0000 
     76 CZ          5.3600   -5.3400   29.6100 C.ar      5 PHE5        0.0000 
     77 CZ          2.5500   -5.6200   30.6000 C.ar      5 PHE5        0.0000 
     78 CZ          4.3900   -6.5800   31.0300 C.ar      5 PHE5        0.0000 
     79 CZ          4.2900  -10.0100   34.3000 C.ar      5 PHE5        0.0000 
     80 CZ          2.8800  -10.1600   34.7900 C.ar      5 PHE5        0.0000 
     81 CZ          1.4700  -10.3000   35.2800 C.ar      5 PHE5        0.0000 
     82 CZ          1.9000  -11.4000   36.2100 C.ar      5 PHE5        0.0000 
     83 CZ          0.4900  -11.5400   36.7000 C.ar      5 PHE5        0.0000 
     84 CZ          5.6400   -4.3300   30.6800 C.ar      5 PHE5        0.0000 
     85 CZ          4.5600   -9.0000   35.3700 C.ar      5 PHE5        0.0000 
     86 CZ          3.1500   -9.1500   35.8600 C.ar      5 PHE5        0.0000 
     87 CZ          1.7400   -9.2900   36.3600 C.ar      5 PHE5        0.0000 
     88 CZ          4.5000   -3.4600   32.2500 C.ar      5 PHE5        0.0000 
     89 CZ          3.0900   -3.6000   32.7400 C.ar      5 PHE5        0.0000 
     90 CZ          4.8300   -7.9900   36.4400 C.ar      5 PHE5        0.0000 
     91 CZ          3.4200   -8.1300   36.9400 C.ar      5 PHE5        0.0000 
     92 CA          0.1100  -15.3600   29.9200 C.3       6 GLY6        0.0000 
     93 CA          1.3500  -13.1100   29.5700 C.3       6 GLY6        0.0000 
     94 CA         -0.0600  -13.2500   30.0700 C.3       6 GLY6        0.0000 
     95 CA          4.0100  -10.7100   28.7400 C.3       6 GLY6        0.0000 
     96 CA          3.0300  -11.9500   30.1500 C.3       6 GLY6        0.0000 
     97 CA          1.6300  -12.1000   30.6500 C.3       6 GLY6        0.0000 
     98 CA          4.1800  -13.1400   33.0800 C.3       6 GLY6        0.0000 
     99 CA          5.9600   -8.5500   30.3900 C.3       6 GLY6        0.0000 
    100 CA         -1.0800   -9.2600   32.8500 C.3       6 GLY6        0.0000 
    101 CA          4.9900   -9.7900   31.8100 C.3       6 GLY6        0.0000 
    102 CA          4.4500  -12.1200   34.1500 C.3       6 GLY6        0.0000 
    103 CA          3.0400  -12.2700   34.6400 C.3       6 GLY6        0.0000 
    104 CA         -1.1900  -12.7000   36.1200 C.3       6 GLY6        0.0000 
    105 CA          3.9600   -5.4800   30.1000 C.3       6 GLY6        0.0000 
    106 CA          5.8000   -6.4400   30.5300 C.3       6 GLY6        0.0000 
    107 CA          5.7000   -9.8700   33.8000 C.3       6 GLY6        0.0000 
    108 CA          0.0600  -10.4400   35.7800 C.3       6 GLY6        0.0000 
    109 CA          3.3100  -11.2500   35.7200 C.3       6 GLY6        0.0000 
    110 CA          4.2300   -4.4700   31.1700 C.3       6 GLY6        0.0000 
    111 CA          5.9700   -8.8600   34.8800 C.3       6 GLY6        0.0000 
    112 CA          6.4000   -9.9600   35.8000 C.3       6 GLY6        0.0000 
    113 CA          4.9900  -10.1000   36.3000 C.3       6 GLY6        0.0000 
    114 CA          3.5800  -10.2400   36.7900 C.3       6 GLY6        0.0000 
    115 CA          4.0600   -2.3600   31.3200 C.3       6 GLY6        0.0000 
    116 CA          2.6600   -2.5000   31.8100 C.3       6 GLY6        0.0000 
    117 CA          3.8600   -9.2300   37.8600 C.3       6 GLY6        0.0000 
    118 CA          4.7700   -2.4400   33.3200 C.3       6 GLY6        0.0000 
    119 CA          3.3600   -2.5900   33.8100 C.3       6 GLY6        0.0000 
    120 DU          0.2200  -12.2400   31.1400 H         7 CUB7        0.0000 
    121 DU         -2.1700  -13.6200   33.0500 H         7 CUB7        0.0000 
    122 DU          3.8500   -8.6000   28.8800 H         7 CUB7        0.0000 
    123 DU          4.2800   -9.7000   29.8100 H         7 CUB7        0.0000 
    124 DU          3.3100  -10.9400   31.2300 H         7 CUB7        0.0000 
    125 DU         -0.9200  -11.3700   32.7000 H         7 CUB7        0.0000 
    126 DU          2.3300  -12.1800   32.6400 H         7 CUB7        0.0000 
    127 DU          0.9200  -12.3300   33.1400 H         7 CUB7        0.0000 
    128 DU         -0.4900  -12.4700   33.6300 H         7 CUB7        0.0000 
@<TRIPOS>BOND
@<TRIPOS>SUBSTRUCTURE
     1 SER1        1 GROUP   
     2 ALA2       12 GROUP   
     3 ASP3       43 GROUP   
     4 LYS4       51 GROUP   
     5 PHE5       52 GROUP   
     6 GLY6       92 GROUP   
     7 CUB7      120 GROUP   
@<TRIPOS>SET

