#    Name: 6q2q_4_UTP
#    Modification time : Fri May 22 19:29:11 2020

@<TRIPOS>MOLECULE
6q2q_4_UTP
   29    30     1     0     0
SMALL
NO_CHARGES


@<TRIPOS>ATOM
      1 PA          7.2390  -10.6220   27.3180 P.3       1 UTP403      0.0000 
      2 O1A         7.5420  -12.1340   26.9830 O.co2     1 UTP403      0.0000 
      3 O2A         8.4100   -9.9440   27.9130 O.co2     1 UTP403      0.0000 
      4 O3A         6.8710   -9.8300   25.9770 O.3       1 UTP403      0.0000 
      5 O5'         5.9520  -10.5230   28.2670 O.3       1 UTP403      0.0000 
      6 PB          7.5430   -9.8460   24.5290 P.3       1 UTP403      0.0000 
      7 O1B         7.3320   -8.5630   23.8220 O.co2     1 UTP403      0.0000 
      8 O2B         7.0430  -11.1140   23.7110 O.co2     1 UTP403      0.0000 
      9 O3B         9.0840   -9.9980   24.8870 O.3       1 UTP403      0.0000 
     10 PG         10.3640  -10.2640   23.9810 P.3       1 UTP403      0.0000 
     11 O1G        10.5980  -11.7470   23.9790 O.co2     1 UTP403      0.0000 
     12 O2G        10.1000   -9.6800   22.5270 O.co2     1 UTP403      0.0000 
     13 O3G        11.5420   -9.4910   24.7110 O.co2     1 UTP403      0.0000 
     14 C5'         5.7470   -9.3790   29.1000 C.3       1 UTP403      0.0000 
     15 C4'         4.2720   -8.9700   28.9670 C.3       1 UTP403      0.0000 
     16 O4'         4.0490   -7.9460   29.9540 O.3       1 UTP403      0.0000 
     17 C1'         3.3380   -6.8560   29.3220 C.3       1 UTP403      0.0000 
     18 C2'         3.9680   -6.7910   27.9270 C.3       1 UTP403      0.0000 
     19 O2'         3.1150   -6.0120   27.0640 O.3       1 UTP403      0.0000 
     20 C3'         3.9720   -8.3080   27.6020 C.3       1 UTP403      0.0000 
     21 O3'         2.6970   -8.7360   27.0880 O.3       1 UTP403      0.0000 
     22 N1          3.6250   -5.7180   30.1800 N.am      1 UTP403      0.0000 
     23 C6          4.9310   -5.3310   30.3370 C.2       1 UTP403      0.0000 
     24 C2          2.6230   -5.0940   30.8390 C.2       1 UTP403      0.0000 
     25 O2          1.4850   -5.4590   30.6640 O.2       1 UTP403      0.0000 
     26 N3          2.8800   -4.0530   31.6520 N.am      1 UTP403      0.0000 
     27 C4          4.1620   -3.6460   31.8310 C.2       1 UTP403      0.0000 
     28 O4          4.4310   -2.7080   32.5580 O.2       1 UTP403      0.0000 
     29 C5          5.2200   -4.2970   31.1540 C.2       1 UTP403      0.0000 
@<TRIPOS>BOND
     1    1    2 ar   
     2    1    3 ar   
     3    1    4 1    
     4    1    5 1    
     5    4    6 1    
     6    5   14 1    
     7    6    7 ar   
     8    6    8 ar   
     9    6    9 1    
    10    9   10 1    
    11   10   11 ar   
    12   10   12 ar   
    13   10   13 ar   
    14   14   15 1    
    15   15   16 1    
    16   15   20 1    
    17   16   17 1    
    18   17   18 1    
    19   17   22 1    
    20   18   19 1    
    21   18   20 1    
    22   20   21 1    
    23   22   23 1    
    24   22   24 1    
    25   23   29 2    
    26   24   25 2    
    27   24   26 1    
    28   26   27 1    
    29   27   28 2    
    30   27   29 1    
@<TRIPOS>SUBSTRUCTURE
     1 UTP403      1 GROUP   
@<TRIPOS>SET

