#    Name: 6bss_1_4SP
#    Modification time : Fri May 22 19:35:46 2020

@<TRIPOS>MOLECULE
6bss_1_4SP
   28    31     1     0     0
SMALL
NO_CHARGES


@<TRIPOS>ATOM
      1 C2        -10.2130   16.0180   19.4060 C.ar      1 4SP902      0.0000 
      2 C8         -5.9370   16.6160   18.3260 C.2       1 4SP902      0.0000 
      3 C10        -9.2720   12.3330   20.0480 C.3       1 4SP902      0.0000 
      4 C11        -9.3630   11.4910   21.3390 C.3       1 4SP902      0.0000 
      5 C12       -10.8220   11.4440   21.8220 C.3       1 4SP902      0.0000 
      6 C13       -10.9830   10.8310   23.2170 C.3       1 4SP902      0.0000 
      7 C14        -9.6600   10.3000   23.7780 C.3       1 4SP902      0.0000 
      8 C15        -8.6020   11.4090   23.7780 C.3       1 4SP902      0.0000 
      9 C16        -8.4080   12.0540   22.4020 C.3       1 4SP902      0.0000 
     10 C19       -13.5570   13.9390   21.4920 C.ar      1 4SP902      0.0000 
     11 C20       -14.8500   14.2290   21.0850 C.ar      1 4SP902      0.0000 
     12 C21       -15.0650   15.2460   20.1700 C.ar      1 4SP902      0.0000 
     13 C22       -13.9950   15.9690   19.6630 C.ar      1 4SP902      0.0000 
     14 N26       -16.1530   11.6420   21.2900 N.pl3     1 4SP902      0.0000 
     15 N1         -9.7460   14.8050   19.7860 N.ar      1 4SP902      0.0000 
     16 C6         -8.4610   14.5100   19.6470 C.ar      1 4SP902      0.0000 
     17 O6         -8.1810   13.2120   20.0950 O.3       1 4SP902      0.0000 
     18 C5         -7.6000   15.4510   19.1090 C.ar      1 4SP902      0.0000 
     19 N7         -6.2820   15.4370   18.8520 N.2       1 4SP902      0.0000 
     20 N9         -7.0390   17.3660   18.2540 N.pl3     1 4SP902      0.0000 
     21 C4         -8.0630   16.6480   18.7340 C.ar      1 4SP902      0.0000 
     22 N3         -9.3660   16.9330   18.8850 N.ar      1 4SP902      0.0000 
     23 N2        -11.5960   16.4650   19.5140 N.pl3     1 4SP902      0.0000 
     24 C17       -12.6980   15.6810   20.0650 C.ar      1 4SP902      0.0000 
     25 C18       -12.4870   14.6650   20.9860 C.ar      1 4SP902      0.0000 
     26 S23       -16.2650   13.2870   21.7380 S.o2      1 4SP902      0.0000 
     27 O24       -17.5300   13.8690   21.2800 O.2       1 4SP902      0.0000 
     28 O25       -16.4020   13.4390   23.1930 O.2       1 4SP902      0.0000 
@<TRIPOS>BOND
     1    1   15 ar   
     2    1   22 ar   
     3    1   23 1    
     4    2   19 2    
     5    2   20 1    
     6    3    4 1    
     7    3   17 1    
     8    4    5 1    
     9    4    9 1    
    10    5    6 1    
    11    6    7 1    
    12    7    8 1    
    13    8    9 1    
    14   10   11 ar   
    15   10   25 ar   
    16   11   12 ar   
    17   11   26 1    
    18   12   13 ar   
    19   13   24 ar   
    20   14   26 1    
    21   15   16 ar   
    22   16   17 1    
    23   16   18 ar   
    24   18   19 1    
    25   18   21 ar   
    26   20   21 1    
    27   21   22 ar   
    28   23   24 1    
    29   24   25 ar   
    30   26   27 2    
    31   26   28 2    
@<TRIPOS>SUBSTRUCTURE
     1 4SP902      1 GROUP   
@<TRIPOS>SET

