#    Name: 6fu6_2_TA8_CAVITY_N1_6
#    Modification time : Fri May 22 19:26:04 2020

@<TRIPOS>MOLECULE
6fu6_2_TA8_CAVITY_N1_6
   78     0     7     0     0
SMALL
NO_CHARGES


@<TRIPOS>ATOM
      1 OG        -39.4600    1.0300   37.9200 O.3       1 SER1        0.0000 
      2 OG        -38.5100    3.3400   40.1600 O.3       1 SER1        0.0000 
      3 OG        -38.0000    3.7700   41.5000 O.3       1 SER1        0.0000 
      4 N         -39.8500   -2.2700   37.4600 N.am      2 ALA2        0.0000 
      5 N         -39.7900   -3.7000   37.9000 N.am      2 ALA2        0.0000 
      6 N         -38.3800   -3.8000   37.4000 N.am      2 ALA2        0.0000 
      7 N         -34.8900   -3.5800   42.7100 N.am      2 ALA2        0.0000 
      8 N         -38.8500    2.8700   43.7900 N.am      2 ALA2        0.0000 
      9 N         -35.8500   -1.6200   44.1200 N.am      2 ALA2        0.0000 
     10 OD1       -35.6300    1.7100   39.6000 O.co2     3 ASP3        0.0000 
     11 OD1       -35.5700    0.2800   40.0400 O.co2     3 ASP3        0.0000 
     12 OD1       -36.5300    2.2400   41.4500 O.co2     3 ASP3        0.0000 
     13 OD1       -35.0600    0.7100   41.3900 O.co2     3 ASP3        0.0000 
     14 NZ        -37.0300   -2.4600   36.4600 N.4       4 LYS4        0.0000 
     15 NZ        -36.4700   -3.4600   38.2400 N.4       4 LYS4        0.0000 
     16 NZ        -35.0600   -3.5600   37.7400 N.4       4 LYS4        0.0000 
     17 NZ        -34.6100   -1.6900   38.6400 N.4       4 LYS4        0.0000 
     18 NZ        -34.5500   -3.1200   39.0900 N.4       4 LYS4        0.0000 
     19 NZ        -33.1400   -3.2200   38.5800 N.4       4 LYS4        0.0000 
     20 NZ        -37.1000    3.2400   39.6600 N.4       4 LYS4        0.0000 
     21 NZ        -37.9400    2.3400   41.9500 N.4       4 LYS4        0.0000 
     22 NZ        -37.8900    0.9100   42.3900 N.4       4 LYS4        0.0000 
     23 NZ        -36.4700    0.8100   41.8900 N.4       4 LYS4        0.0000 
     24 NZ        -37.3800    1.3400   43.7300 N.4       4 LYS4        0.0000 
     25 NZ        -35.9100   -0.1900   43.6700 N.4       4 LYS4        0.0000 
     26 CZ        -38.4400   -2.3600   36.9600 C.ar      5 PHE5        0.0000 
     27 CZ        -39.4000   -0.4000   38.3600 C.ar      5 PHE5        0.0000 
     28 CZ        -39.3500   -1.8300   38.8000 C.ar      5 PHE5        0.0000 
     29 CZ        -39.2900   -3.2600   39.2400 C.ar      5 PHE5        0.0000 
     30 CZ        -37.9900   -0.5000   37.8600 C.ar      5 PHE5        0.0000 
     31 CZ        -37.9400   -1.9300   38.3000 C.ar      5 PHE5        0.0000 
     32 CZ        -37.8200   -4.7900   39.1900 C.ar      5 PHE5        0.0000 
     33 CZ        -36.5200   -2.0300   37.8000 C.ar      5 PHE5        0.0000 
     34 CZ        -40.3700    1.5700   39.7600 C.ar      5 PHE5        0.0000 
     35 CZ        -38.9600    1.4700   39.2600 C.ar      5 PHE5        0.0000 
     36 CZ        -38.9000    0.0400   39.7000 C.ar      5 PHE5        0.0000 
     37 CZ        -38.8400   -1.4000   40.1400 C.ar      5 PHE5        0.0000 
     38 CZ        -37.5500    1.3700   38.7600 C.ar      5 PHE5        0.0000 
     39 CZ        -37.4900   -0.0600   39.2000 C.ar      5 PHE5        0.0000 
     40 CZ        -36.0200   -1.5900   39.1400 C.ar      5 PHE5        0.0000 
     41 CZ        -38.3900    0.4700   41.0500 C.ar      5 PHE5        0.0000 
     42 CZ        -37.0400    1.8100   40.1000 C.ar      5 PHE5        0.0000 
     43 CZ        -35.5100   -1.1600   40.4900 C.ar      5 PHE5        0.0000 
     44 CZ        -34.1000   -1.2500   39.9900 C.ar      5 PHE5        0.0000 
     45 CZ        -34.0400   -2.6800   40.4300 C.ar      5 PHE5        0.0000 
     46 CZ        -32.6300   -2.7800   39.9300 C.ar      5 PHE5        0.0000 
     47 CZ        -40.7100    1.1000   43.3900 C.ar      5 PHE5        0.0000 
     48 CZ        -39.4100    3.8700   42.0000 C.ar      5 PHE5        0.0000 
     49 CZ        -39.3000    1.0000   42.8900 C.ar      5 PHE5        0.0000 
     50 CZ        -35.0100   -0.7200   41.8300 C.ar      5 PHE5        0.0000 
     51 CZ        -33.5900   -0.8200   41.3300 C.ar      5 PHE5        0.0000 
     52 CZ        -33.5400   -2.2500   41.7700 C.ar      5 PHE5        0.0000 
     53 CZ        -38.7900    1.4400   44.2300 C.ar      5 PHE5        0.0000 
     54 CZ        -38.7300    0.0100   44.6700 C.ar      5 PHE5        0.0000 
     55 CZ        -37.3200   -0.0900   44.1700 C.ar      5 PHE5        0.0000 
     56 CA        -40.4300    3.0000   39.3200 C.3       6 GLY6        0.0000 
     57 CA        -37.4300   -1.4900   39.6400 C.3       6 GLY6        0.0000 
     58 CA        -37.3700   -2.9300   40.0900 C.3       6 GLY6        0.0000 
     59 CA        -35.9000   -4.4500   40.0300 C.3       6 GLY6        0.0000 
     60 CA        -39.9200    3.4300   40.6600 C.3       6 GLY6        0.0000 
     61 CA        -39.8600    2.0000   41.1000 C.3       6 GLY6        0.0000 
     62 CA        -38.3300   -0.9600   41.4900 C.3       6 GLY6        0.0000 
     63 CA        -36.9200   -1.0600   40.9900 C.3       6 GLY6        0.0000 
     64 CA        -36.8600   -2.4900   41.4300 C.3       6 GLY6        0.0000 
     65 CA        -35.4500   -2.5900   40.9300 C.3       6 GLY6        0.0000 
     66 CA        -35.4000   -4.0200   41.3700 C.3       6 GLY6        0.0000 
     67 CA        -39.3500    2.4400   42.4500 C.3       6 GLY6        0.0000 
     68 CA        -39.2400   -0.4300   43.3300 C.3       6 GLY6        0.0000 
     69 CA        -37.8300   -0.5300   42.8300 C.3       6 GLY6        0.0000 
     70 CA        -36.4200   -0.6200   42.3300 C.3       6 GLY6        0.0000 
     71 CA        -36.3600   -2.0600   42.7700 C.3       6 GLY6        0.0000 
     72 DU        -37.8800   -3.3600   38.7400 H         7 CUB7        0.0000 
     73 DU        -39.0100    2.9000   38.8200 H         7 CUB7        0.0000 
     74 DU        -35.9600   -3.0200   39.5900 H         7 CUB7        0.0000 
     75 DU        -38.4500    1.9000   40.6000 H         7 CUB7        0.0000 
     76 DU        -36.9800    0.3700   40.5500 H         7 CUB7        0.0000 
     77 DU        -33.9800   -4.1200   40.8700 H         7 CUB7        0.0000 
     78 DU        -34.9500   -2.1500   42.2700 H         7 CUB7        0.0000 
@<TRIPOS>BOND
@<TRIPOS>SUBSTRUCTURE
     1 SER1        1 GROUP   
     2 ALA2        4 GROUP   
     3 ASP3       10 GROUP   
     4 LYS4       14 GROUP   
     5 PHE5       26 GROUP   
     6 GLY6       56 GROUP   
     7 CUB7       72 GROUP   
@<TRIPOS>SET

