#    Name: 6fu6_2_TA8
#    Modification time : Fri May 22 19:26:03 2020

@<TRIPOS>MOLECULE
6fu6_2_TA8
   10     9     1     0     0
SMALL
NO_CHARGES


@<TRIPOS>ATOM
      1 O42       -35.4390    3.3640   41.5740 O.co2     1 TA8405      0.0000 
      2 O41       -34.8510    1.8330   39.9490 O.co2     1 TA8405      0.0000 
      3 C4        -35.6940    2.5710   40.5890 C.2       1 TA8405      0.0000 
      4 C41       -37.1860    2.4320   40.0760 C.3       1 TA8405      0.0000 
      5 C32       -38.3070    2.5610   41.1450 C.3       1 TA8405      0.0000 
      6 C3        -37.0870    0.6700   42.4610 C.2       1 TA8405      0.0000 
      7 O31       -37.4500   -0.2580   41.7060 O.co2     1 TA8405      0.0000 
      8 O32       -36.0830    0.6910   43.2250 O.co2     1 TA8405      0.0000 
      9 C22       -39.3090    1.4260   43.2610 C.3       1 TA8405      0.0000 
     10 C31       -38.0190    1.8630   42.5080 C.3       1 TA8405      0.0000 
@<TRIPOS>BOND
     1    1    3 ar   
     2    2    3 ar   
     3    3    4 1    
     4    4    5 1    
     5    5   10 1    
     6    6    7 ar   
     7    6    8 ar   
     8    6   10 1    
     9    9   10 1    
@<TRIPOS>SUBSTRUCTURE
     1 TA8405      1 GROUP   
@<TRIPOS>SET

