#    Name: 6fu6_2_TA8_CAVITY_N1_4
#    Modification time : Fri May 22 19:26:04 2020

@<TRIPOS>MOLECULE
6fu6_2_TA8_CAVITY_N1_4
   58     0     7     0     0
SMALL
NO_CHARGES


@<TRIPOS>ATOM
      1 OG        -39.4600    1.0300   37.9200 O.3       1 SER1        0.0000 
      2 OG        -38.5100    3.3400   40.1600 O.3       1 SER1        0.0000 
      3 OG        -38.0000    3.7700   41.5000 O.3       1 SER1        0.0000 
      4 N         -38.8500    2.8700   43.7900 N.am      2 ALA2        0.0000 
      5 N         -35.8500   -1.6200   44.1200 N.am      2 ALA2        0.0000 
      6 OD1       -35.6300    1.7100   39.6000 O.co2     3 ASP3        0.0000 
      7 OD1       -35.5700    0.2800   40.0400 O.co2     3 ASP3        0.0000 
      8 OD1       -36.5300    2.2400   41.4500 O.co2     3 ASP3        0.0000 
      9 OD1       -35.0600    0.7100   41.3900 O.co2     3 ASP3        0.0000 
     10 NZ        -34.6100   -1.6900   38.6400 N.4       4 LYS4        0.0000 
     11 NZ        -37.1000    3.2400   39.6600 N.4       4 LYS4        0.0000 
     12 NZ        -37.9400    2.3400   41.9500 N.4       4 LYS4        0.0000 
     13 NZ        -37.8900    0.9100   42.3900 N.4       4 LYS4        0.0000 
     14 NZ        -36.4700    0.8100   41.8900 N.4       4 LYS4        0.0000 
     15 NZ        -37.3800    1.3400   43.7300 N.4       4 LYS4        0.0000 
     16 NZ        -35.9100   -0.1900   43.6700 N.4       4 LYS4        0.0000 
     17 CZ        -39.4000   -0.4000   38.3600 C.ar      5 PHE5        0.0000 
     18 CZ        -39.3500   -1.8300   38.8000 C.ar      5 PHE5        0.0000 
     19 CZ        -37.9900   -0.5000   37.8600 C.ar      5 PHE5        0.0000 
     20 CZ        -37.9400   -1.9300   38.3000 C.ar      5 PHE5        0.0000 
     21 CZ        -40.3700    1.5700   39.7600 C.ar      5 PHE5        0.0000 
     22 CZ        -38.9600    1.4700   39.2600 C.ar      5 PHE5        0.0000 
     23 CZ        -38.9000    0.0400   39.7000 C.ar      5 PHE5        0.0000 
     24 CZ        -38.8400   -1.4000   40.1400 C.ar      5 PHE5        0.0000 
     25 CZ        -37.5500    1.3700   38.7600 C.ar      5 PHE5        0.0000 
     26 CZ        -37.4900   -0.0600   39.2000 C.ar      5 PHE5        0.0000 
     27 CZ        -36.0200   -1.5900   39.1400 C.ar      5 PHE5        0.0000 
     28 CZ        -38.3900    0.4700   41.0500 C.ar      5 PHE5        0.0000 
     29 CZ        -37.0400    1.8100   40.1000 C.ar      5 PHE5        0.0000 
     30 CZ        -35.5100   -1.1600   40.4900 C.ar      5 PHE5        0.0000 
     31 CZ        -34.1000   -1.2500   39.9900 C.ar      5 PHE5        0.0000 
     32 CZ        -40.7100    1.1000   43.3900 C.ar      5 PHE5        0.0000 
     33 CZ        -39.4100    3.8700   42.0000 C.ar      5 PHE5        0.0000 
     34 CZ        -39.3000    1.0000   42.8900 C.ar      5 PHE5        0.0000 
     35 CZ        -35.0100   -0.7200   41.8300 C.ar      5 PHE5        0.0000 
     36 CZ        -33.5900   -0.8200   41.3300 C.ar      5 PHE5        0.0000 
     37 CZ        -38.7900    1.4400   44.2300 C.ar      5 PHE5        0.0000 
     38 CZ        -38.7300    0.0100   44.6700 C.ar      5 PHE5        0.0000 
     39 CZ        -37.3200   -0.0900   44.1700 C.ar      5 PHE5        0.0000 
     40 CA        -40.4300    3.0000   39.3200 C.3       6 GLY6        0.0000 
     41 CA        -37.4300   -1.4900   39.6400 C.3       6 GLY6        0.0000 
     42 CA        -37.3700   -2.9300   40.0900 C.3       6 GLY6        0.0000 
     43 CA        -39.9200    3.4300   40.6600 C.3       6 GLY6        0.0000 
     44 CA        -39.8600    2.0000   41.1000 C.3       6 GLY6        0.0000 
     45 CA        -38.3300   -0.9600   41.4900 C.3       6 GLY6        0.0000 
     46 CA        -36.9200   -1.0600   40.9900 C.3       6 GLY6        0.0000 
     47 CA        -36.8600   -2.4900   41.4300 C.3       6 GLY6        0.0000 
     48 CA        -35.4500   -2.5900   40.9300 C.3       6 GLY6        0.0000 
     49 CA        -39.3500    2.4400   42.4500 C.3       6 GLY6        0.0000 
     50 CA        -39.2400   -0.4300   43.3300 C.3       6 GLY6        0.0000 
     51 CA        -37.8300   -0.5300   42.8300 C.3       6 GLY6        0.0000 
     52 CA        -36.4200   -0.6200   42.3300 C.3       6 GLY6        0.0000 
     53 CA        -36.3600   -2.0600   42.7700 C.3       6 GLY6        0.0000 
     54 DU        -39.0100    2.9000   38.8200 H         7 CUB7        0.0000 
     55 DU        -35.9600   -3.0200   39.5900 H         7 CUB7        0.0000 
     56 DU        -38.4500    1.9000   40.6000 H         7 CUB7        0.0000 
     57 DU        -36.9800    0.3700   40.5500 H         7 CUB7        0.0000 
     58 DU        -34.9500   -2.1500   42.2700 H         7 CUB7        0.0000 
@<TRIPOS>BOND
@<TRIPOS>SUBSTRUCTURE
     1 SER1        1 GROUP   
     2 ALA2        4 GROUP   
     3 ASP3        6 GROUP   
     4 LYS4       10 GROUP   
     5 PHE5       17 GROUP   
     6 GLY6       40 GROUP   
     7 CUB7       54 GROUP   
@<TRIPOS>SET

