#    Name: 6ng2_1_H4B_CAVITY_N1_4
#    Modification time : Fri May 22 19:29:35 2020

@<TRIPOS>MOLECULE
6ng2_1_H4B_CAVITY_N1_4
   44     0     6     0     0
SMALL
NO_CHARGES


@<TRIPOS>ATOM
      1 N         123.6400  251.7900  344.0300 N.am      1 ALA2        0.0000 
      2 N         124.5500  250.6200  344.2900 N.am      1 ALA2        0.0000 
      3 N         123.4200  249.8900  344.9400 N.am      1 ALA2        0.0000 
      4 N         120.0200  247.6800  346.9100 N.am      1 ALA2        0.0000 
      5 N         125.4600  249.4600  344.5500 N.am      1 ALA2        0.0000 
      6 N         124.3200  248.7200  345.2000 N.am      1 ALA2        0.0000 
      7 O         122.6700  249.7400  346.9200 O.2       1 ALA2        0.0000 
      8 O         121.5300  249.0100  347.5800 O.2       1 ALA2        0.0000 
      9 N         117.9200  244.9000  350.4500 N.am      1 ALA2        0.0000 
     10 OD1       122.4400  247.8400  347.8400 O.co2     2 ASP3        0.0000 
     11 OD1       121.3100  247.1100  348.4900 O.co2     2 ASP3        0.0000 
     12 OD1       121.4700  245.8000  350.7300 O.co2     2 ASP3        0.0000 
     13 NZ        117.1700  244.7500  352.4300 N.4       3 LYS4        0.0000 
     14 CZ        121.9000  248.5600  344.2700 C.ar      4 PHE5        0.0000 
     15 CZ        120.7700  247.8200  344.9300 C.ar      4 PHE5        0.0000 
     16 CZ        120.2500  249.5800  345.9900 C.ar      4 PHE5        0.0000 
     17 CZ        122.2800  249.1500  345.6000 C.ar      4 PHE5        0.0000 
     18 CZ        121.1500  248.4200  346.2500 C.ar      4 PHE5        0.0000 
     19 CZ        123.1900  247.9900  345.8600 C.ar      4 PHE5        0.0000 
     20 CZ        122.0600  247.2500  346.5100 C.ar      4 PHE5        0.0000 
     21 CZ        120.9300  246.5100  347.1700 C.ar      4 PHE5        0.0000 
     22 CZ        120.4000  248.2700  348.2300 C.ar      4 PHE5        0.0000 
     23 CZ        119.2700  247.5300  348.8900 C.ar      4 PHE5        0.0000 
     24 CZ        118.1400  246.8000  349.5400 C.ar      4 PHE5        0.0000 
     25 CZ        120.1800  246.3700  349.1400 C.ar      4 PHE5        0.0000 
     26 CZ        119.0500  245.6300  349.8000 C.ar      4 PHE5        0.0000 
     27 CZ        117.3900  246.6500  351.5200 C.ar      4 PHE5        0.0000 
     28 CZ        122.8200  248.4300  349.1600 C.ar      4 PHE5        0.0000 
     29 CZ        121.6900  247.7000  349.8200 C.ar      4 PHE5        0.0000 
     30 CZ        120.5600  246.9600  350.4700 C.ar      4 PHE5        0.0000 
     31 CZ        119.4300  246.2200  351.1200 C.ar      4 PHE5        0.0000 
     32 CZ        118.3000  245.4900  351.7800 C.ar      4 PHE5        0.0000 
     33 CZ        117.7700  247.2400  352.8400 C.ar      4 PHE5        0.0000 
     34 CZ        119.8100  246.8200  352.4500 C.ar      4 PHE5        0.0000 
     35 CZ        118.6800  246.0800  353.1000 C.ar      4 PHE5        0.0000 
     36 CA        122.5100  251.0500  344.6900 C.3       5 GLY6        0.0000 
     37 CA        121.3800  250.3200  345.3400 C.3       5 GLY6        0.0000 
     38 CA        124.9300  251.2200  345.6100 C.3       5 GLY6        0.0000 
     39 CA        123.8000  250.4800  346.2700 C.3       5 GLY6        0.0000 
     40 CA        125.8400  250.0500  345.8700 C.3       5 GLY6        0.0000 
     41 CA        124.7100  249.3100  346.5300 C.3       5 GLY6        0.0000 
     42 CA        123.5700  248.5800  347.1800 C.3       5 GLY6        0.0000 
     43 CA        116.7900  244.1600  351.1100 C.3       5 GLY6        0.0000 
     44 DU        120.7200  245.6500  352.7100 H         6 CUB7        0.0000 
@<TRIPOS>BOND
@<TRIPOS>SUBSTRUCTURE
     1 ALA2        1 GROUP   
     2 ASP3       10 GROUP   
     3 LYS4       13 GROUP   
     4 PHE5       14 GROUP   
     5 GLY6       36 GROUP   
     6 CUB7       44 GROUP   
@<TRIPOS>SET

