#    Name: 6ng2_1_H4B
#    Modification time : Fri May 22 19:29:34 2020

@<TRIPOS>MOLECULE
6ng2_1_H4B
   17    18     1     0     1
SMALL
NO_CHARGES


@<TRIPOS>ATOM
      1 N1        119.6830  247.2830  347.2760 N.2       1 H4B802      0.0000 
      2 C2        119.7830  246.8600  348.5600 C.2       1 H4B802      0.0000 
      3 N2        118.7480  246.2360  349.1630 N.pl3     1 H4B802      0.0000 
      4 N3        120.9200  247.0550  349.2640 N.am      1 H4B802      0.0000 
      5 C4        121.9960  247.6650  348.7310 C.2       1 H4B802      0.0000 
      6 O4        123.0360  247.8190  349.4260 O.2       1 H4B802      0.0000 
      7 C4A       121.9200  248.1150  347.4290 C.2       1 H4B802      0.0000 
      8 C8A       120.7460  247.9040  346.7100 C.2       1 H4B802      0.0000 
      9 N5        122.9750  248.7450  346.8480 N.3       1 H4B802      0.0000 
     10 N8        120.6650  248.3400  345.4300 N.pl3     1 H4B802      0.0000 
     11 C6        122.6540  249.6620  345.7570 C.3       1 H4B802      0.0000 
     12 C7        121.8110  248.9250  344.7400 C.3       1 H4B802      0.0000 
     13 C9        123.8920  250.2570  345.0730 C.3       1 H4B802      0.0000 
     14 O9        124.7100  249.1760  344.6270 O.3       1 H4B802      0.0000 
     15 C10       123.5050  251.1190  343.8670 C.3       1 H4B802      0.0000 
     16 C11       124.7110  251.8060  343.2020 C.3       1 H4B802      0.0000 
     17 O10       122.5640  252.1230  344.2540 O.3       1 H4B802      0.0000 
@<TRIPOS>BOND
     1    1    2 2    
     2    1    8 1    
     3    2    3 1    
     4    2    4 1    
     5    4    5 am   
     6    5    6 2    
     7    5    7 1    
     8    7    8 2    
     9    7    9 1    
    10    8   10 1    
    11    9   11 1    
    12   10   12 1    
    13   11   12 1    
    14   11   13 1    
    15   13   14 1    
    16   13   15 1    
    17   15   16 1    
    18   15   17 1    
@<TRIPOS>SUBSTRUCTURE
     1 H4B802      1 GROUP   
@<TRIPOS>SET
ATOM$ORANGE STATIC     ATOMS   COLORGROUP SYSTEM 
18 2 2 5 5 7 7 8 8 11 11 12 12 13 13 15 15 16 \
16 

