#    Name: 6ng2_1_H4B_CAVITY_N1_ALL
#    Modification time : Fri May 22 19:29:35 2020

@<TRIPOS>MOLECULE
6ng2_1_H4B_CAVITY_N1_ALL
   91     0     6     0     0
SMALL
NO_CHARGES


@<TRIPOS>ATOM
      1 N         123.6400  251.7900  344.0300 N.am      1 ALA2        0.0000 
      2 N         124.5500  250.6200  344.2900 N.am      1 ALA2        0.0000 
      3 N         123.4200  249.8900  344.9400 N.am      1 ALA2        0.0000 
      4 N         120.0200  247.6800  346.9100 N.am      1 ALA2        0.0000 
      5 N         125.4600  249.4600  344.5500 N.am      1 ALA2        0.0000 
      6 N         124.3200  248.7200  345.2000 N.am      1 ALA2        0.0000 
      7 O         122.6700  249.7400  346.9200 O.2       1 ALA2        0.0000 
      8 O         121.5300  249.0100  347.5800 O.2       1 ALA2        0.0000 
      9 N         117.9200  244.9000  350.4500 N.am      1 ALA2        0.0000 
     10 N         115.7300  247.6700  353.2400 N.am      1 ALA2        0.0000 
     11 N         116.6400  246.5100  353.5000 N.am      1 ALA2        0.0000 
     12 N         115.2100  249.4300  354.3100 N.am      1 ALA2        0.0000 
     13 N         116.1100  248.2700  354.5600 N.am      1 ALA2        0.0000 
     14 N         114.9800  247.5300  355.2200 N.am      1 ALA2        0.0000 
     15 N         113.3200  248.5500  356.9400 N.am      1 ALA2        0.0000 
     16 N         115.3600  248.1200  356.5400 N.am      1 ALA2        0.0000 
     17 N         114.2300  247.3800  357.2000 N.am      1 ALA2        0.0000 
     18 OD1       122.4400  247.8400  347.8400 O.co2     2 ASP3        0.0000 
     19 OD1       121.3100  247.1100  348.4900 O.co2     2 ASP3        0.0000 
     20 OD1       121.4700  245.8000  350.7300 O.co2     2 ASP3        0.0000 
     21 NZ        117.1700  244.7500  352.4300 N.4       3 LYS4        0.0000 
     22 NZ        116.0400  244.0200  353.0900 N.4       3 LYS4        0.0000 
     23 NZ        117.5500  245.3400  353.7600 N.4       3 LYS4        0.0000 
     24 NZ        119.5900  244.9100  353.3600 N.4       3 LYS4        0.0000 
     25 NZ        117.9300  245.9300  355.0800 N.4       3 LYS4        0.0000 
     26 CZ        121.9000  248.5600  344.2700 C.ar      4 PHE5        0.0000 
     27 CZ        120.7700  247.8200  344.9300 C.ar      4 PHE5        0.0000 
     28 CZ        120.2500  249.5800  345.9900 C.ar      4 PHE5        0.0000 
     29 CZ        122.2800  249.1500  345.6000 C.ar      4 PHE5        0.0000 
     30 CZ        121.1500  248.4200  346.2500 C.ar      4 PHE5        0.0000 
     31 CZ        123.1900  247.9900  345.8600 C.ar      4 PHE5        0.0000 
     32 CZ        122.0600  247.2500  346.5100 C.ar      4 PHE5        0.0000 
     33 CZ        120.9300  246.5100  347.1700 C.ar      4 PHE5        0.0000 
     34 CZ        120.4000  248.2700  348.2300 C.ar      4 PHE5        0.0000 
     35 CZ        119.2700  247.5300  348.8900 C.ar      4 PHE5        0.0000 
     36 CZ        118.1400  246.8000  349.5400 C.ar      4 PHE5        0.0000 
     37 CZ        120.1800  246.3700  349.1400 C.ar      4 PHE5        0.0000 
     38 CZ        119.0500  245.6300  349.8000 C.ar      4 PHE5        0.0000 
     39 CZ        117.3900  246.6500  351.5200 C.ar      4 PHE5        0.0000 
     40 CZ        122.8200  248.4300  349.1600 C.ar      4 PHE5        0.0000 
     41 CZ        121.6900  247.7000  349.8200 C.ar      4 PHE5        0.0000 
     42 CZ        120.5600  246.9600  350.4700 C.ar      4 PHE5        0.0000 
     43 CZ        119.4300  246.2200  351.1200 C.ar      4 PHE5        0.0000 
     44 CZ        118.3000  245.4900  351.7800 C.ar      4 PHE5        0.0000 
     45 CZ        116.8600  248.4100  352.5800 C.ar      4 PHE5        0.0000 
     46 CZ        117.7700  247.2400  352.8400 C.ar      4 PHE5        0.0000 
     47 CZ        119.8100  246.8200  352.4500 C.ar      4 PHE5        0.0000 
     48 CZ        118.6800  246.0800  353.1000 C.ar      4 PHE5        0.0000 
     49 CZ        117.4700  250.9000  353.0000 C.ar      4 PHE5        0.0000 
     50 CZ        117.2400  249.0000  353.9100 C.ar      4 PHE5        0.0000 
     51 CZ        118.1500  247.8400  354.1700 C.ar      4 PHE5        0.0000 
     52 CZ        119.0600  246.6700  354.4300 C.ar      4 PHE5        0.0000 
     53 CZ        117.8500  251.4900  354.3200 C.ar      4 PHE5        0.0000 
     54 CZ        118.7600  250.3300  354.5800 C.ar      4 PHE5        0.0000 
     55 CZ        117.6300  249.5900  355.2300 C.ar      4 PHE5        0.0000 
     56 CZ        115.9700  250.6100  356.9500 C.ar      4 PHE5        0.0000 
     57 CZ        114.8400  249.8800  357.6100 C.ar      4 PHE5        0.0000 
     58 CZ        113.7100  249.1400  358.2600 C.ar      4 PHE5        0.0000 
     59 CZ        116.8800  249.4500  357.2100 C.ar      4 PHE5        0.0000 
     60 CZ        115.7400  248.7100  357.8700 C.ar      4 PHE5        0.0000 
     61 CA        122.5100  251.0500  344.6900 C.3       5 GLY6        0.0000 
     62 CA        121.3800  250.3200  345.3400 C.3       5 GLY6        0.0000 
     63 CA        124.9300  251.2200  345.6100 C.3       5 GLY6        0.0000 
     64 CA        123.8000  250.4800  346.2700 C.3       5 GLY6        0.0000 
     65 CA        125.8400  250.0500  345.8700 C.3       5 GLY6        0.0000 
     66 CA        124.7100  249.3100  346.5300 C.3       5 GLY6        0.0000 
     67 CA        123.5700  248.5800  347.1800 C.3       5 GLY6        0.0000 
     68 CA        116.7900  244.1600  351.1100 C.3       5 GLY6        0.0000 
     69 CA        116.3400  250.1700  353.6500 C.3       5 GLY6        0.0000 
     70 CA        115.8100  251.9200  354.7200 C.3       5 GLY6        0.0000 
     71 CA        114.6800  251.1900  355.3700 C.3       5 GLY6        0.0000 
     72 CA        113.5500  250.4500  356.0300 C.3       5 GLY6        0.0000 
     73 CA        115.5900  250.0200  355.6300 C.3       5 GLY6        0.0000 
     74 CA        114.4600  249.2900  356.2800 C.3       5 GLY6        0.0000 
     75 CA        114.1500  252.9400  356.4400 C.3       5 GLY6        0.0000 
     76 CA        116.1900  252.5100  356.0400 C.3       5 GLY6        0.0000 
     77 CA        115.0600  251.7800  356.7000 C.3       5 GLY6        0.0000 
     78 CA        113.9300  251.0400  357.3500 C.3       5 GLY6        0.0000 
     79 CA        118.2300  252.0900  355.6500 C.3       5 GLY6        0.0000 
     80 CA        117.1000  251.3500  356.3000 C.3       5 GLY6        0.0000 
     81 CA        119.1400  250.9200  355.9100 C.3       5 GLY6        0.0000 
     82 CA        118.0100  250.1800  356.5600 C.3       5 GLY6        0.0000 
     83 CA        117.7800  248.2800  357.4700 C.3       5 GLY6        0.0000 
     84 DU        115.5100  245.7700  354.1500 H         6 CUB7        0.0000 
     85 DU        120.7200  245.6500  352.7100 H         6 CUB7        0.0000 
     86 DU        117.0200  247.1000  354.8200 H         6 CUB7        0.0000 
     87 DU        115.8900  246.3600  355.4800 H         6 CUB7        0.0000 
     88 DU        116.7200  250.7600  354.9800 H         6 CUB7        0.0000 
     89 DU        116.4900  248.8600  355.8900 H         6 CUB7        0.0000 
     90 DU        117.4000  247.6900  356.1500 H         6 CUB7        0.0000 
     91 DU        116.2700  246.9500  356.8000 H         6 CUB7        0.0000 
@<TRIPOS>BOND
@<TRIPOS>SUBSTRUCTURE
     1 ALA2        1 GROUP   
     2 ASP3       18 GROUP   
     3 LYS4       21 GROUP   
     4 PHE5       26 GROUP   
     5 GLY6       61 GROUP   
     6 CUB7       84 GROUP   
@<TRIPOS>SET

