#    Name: 6ag5_1_ACO
#    Modification time : Fri May 22 19:33:49 2020

@<TRIPOS>MOLECULE
6ag5_1_ACO
   51    53     1     0     1
SMALL
NO_CHARGES


@<TRIPOS>ATOM
      1 N1A       -27.3910    6.9920  -14.9040 N.ar      1 ACO201      0.0000 
      2 C2A       -28.3030    7.3410  -13.9410 C.ar      1 ACO201      0.0000 
      3 N3A       -28.2820    6.7380  -12.7250 N.ar      1 ACO201      0.0000 
      4 C4A       -27.3400    5.7630  -12.4470 C.ar      1 ACO201      0.0000 
      5 C5A       -26.4530    5.4170  -13.3990 C.ar      1 ACO201      0.0000 
      6 C6A       -26.4750    6.0390  -14.6460 C.ar      1 ACO201      0.0000 
      7 N6A       -25.7400    5.9350  -15.7950 N.pl3     1 ACO201      0.0000 
      8 N7A       -25.6540    4.4520  -12.8800 N.2       1 ACO201      0.0000 
      9 C8A       -26.0560    4.2080  -11.6130 C.2       1 ACO201      0.0000 
     10 N9A       -27.0950    5.0200  -11.3320 N.pl3     1 ACO201      0.0000 
     11 C1B       -27.7980    5.0180  -10.0840 C.3       1 ACO201      0.0000 
     12 C2B       -29.0620    4.5990  -10.2720 C.3       1 ACO201      0.0000 
     13 O2B       -29.9960    5.2660   -9.3640 O.3       1 ACO201      0.0000 
     14 C3B       -29.0320    3.0950   -9.9540 C.3       1 ACO201      0.0000 
     15 O3B       -30.2480    2.5970   -9.6020 O.3       1 ACO201      0.0000 
     16 P3B       -31.1190    1.8430  -10.7390 P.3       1 ACO201      0.0000 
     17 O7A       -32.0160    0.8820  -10.0970 O.co2     1 ACO201      0.0000 
     18 O8A       -31.9580    2.8610  -11.5180 O.co2     1 ACO201      0.0000 
     19 O9A       -30.1830    1.1390  -11.7410 O.co2     1 ACO201      0.0000 
     20 C4B       -27.9760    3.0180   -8.7930 C.3       1 ACO201      0.0000 
     21 O4B       -27.1000    3.9610   -9.0710 O.3       1 ACO201      0.0000 
     22 C5B       -27.3310    1.6570   -8.7770 C.3       1 ACO201      0.0000 
     23 O5B       -26.3780    1.5760   -9.8120 O.3       1 ACO201      0.0000 
     24 P1A       -25.5450    0.2720  -10.0200 P.3       1 ACO201      0.0000 
     25 O1A       -26.1070   -0.5610  -11.1850 O.co2     1 ACO201      0.0000 
     26 O2A       -25.5990   -0.5670   -8.7310 O.co2     1 ACO201      0.0000 
     27 O3A       -24.0580    0.7750  -10.3490 O.3       1 ACO201      0.0000 
     28 P2A       -23.1830    0.3120  -11.6330 P.3       1 ACO201      0.0000 
     29 O4A       -22.8970   -1.1620  -11.4060 O.co2     1 ACO201      0.0000 
     30 O5A       -23.9350    0.5350  -12.9060 O.co2     1 ACO201      0.0000 
     31 O6A       -21.8090    1.1990  -11.7200 O.3       1 ACO201      0.0000 
     32 CBP       -20.4870    3.2720  -11.6140 C.3       1 ACO201      0.0000 
     33 CCP       -21.8400    2.5170  -11.2140 C.3       1 ACO201      0.0000 
     34 CDP       -19.2920    2.9020  -10.6150 C.3       1 ACO201      0.0000 
     35 CEP       -20.7700    4.7800  -11.5510 C.3       1 ACO201      0.0000 
     36 CAP       -20.1720    2.8880  -13.0160 C.3       1 ACO201      0.0000 
     37 OAP       -21.0930    3.5990  -13.8400 O.3       1 ACO201      0.0000 
     38 C9P       -18.7220    3.2240  -13.4150 C.2       1 ACO201      0.0000 
     39 O9P       -17.8400    2.3730  -13.2900 O.2       1 ACO201      0.0000 
     40 N8P       -18.4240    4.4820  -13.9250 N.am      1 ACO201      0.0000 
     41 C7P       -17.0680    4.8340  -14.2900 C.3       1 ACO201      0.0000 
     42 C6P       -16.1230    4.8030  -13.0140 C.3       1 ACO201      0.0000 
     43 C5P       -16.5770    5.7620  -11.9100 C.2       1 ACO201      0.0000 
     44 O5P       -17.2110    6.8050  -12.1770 O.2       1 ACO201      0.0000 
     45 N4P       -16.2570    5.4700  -10.5160 N.am      1 ACO201      0.0000 
     46 C3P       -16.6800    6.3770   -9.4570 C.3       1 ACO201      0.0000 
     47 C2P       -15.7190    7.6030   -9.4020 C.3       1 ACO201      0.0000 
     48 S1P       -15.7910    8.3360   -7.7870 S.3       1 ACO201      0.0000 
     49 C         -14.6500    7.5080   -6.6880 C.2       1 ACO201      0.0000 
     50 O         -13.5960    7.0480   -7.0750 O.2       1 ACO201      0.0000 
     51 CH3       -15.1710    7.0000   -5.3640 C.3       1 ACO201      0.0000 
@<TRIPOS>BOND
     1    1    2 ar   
     2    1    6 ar   
     3    2    3 ar   
     4    3    4 ar   
     5    4    5 ar   
     6    4   10 1    
     7    5    6 ar   
     8    5    8 1    
     9    6    7 1    
    10    8    9 2    
    11    9   10 1    
    12   10   11 1    
    13   11   12 1    
    14   11   21 1    
    15   12   13 1    
    16   12   14 1    
    17   14   15 1    
    18   14   20 1    
    19   15   16 1    
    20   16   17 ar   
    21   16   18 ar   
    22   16   19 ar   
    23   20   21 1    
    24   20   22 1    
    25   22   23 1    
    26   23   24 1    
    27   24   25 ar   
    28   24   26 ar   
    29   24   27 1    
    30   27   28 1    
    31   28   29 ar   
    32   28   30 ar   
    33   28   31 1    
    34   31   33 1    
    35   32   33 1    
    36   32   34 1    
    37   32   35 1    
    38   32   36 1    
    39   36   37 1    
    40   36   38 1    
    41   38   39 2    
    42   38   40 am   
    43   40   41 1    
    44   41   42 1    
    45   42   43 1    
    46   43   44 2    
    47   43   45 am   
    48   45   46 1    
    49   46   47 1    
    50   47   48 1    
    51   48   49 1    
    52   49   50 2    
    53   49   51 1    
@<TRIPOS>SUBSTRUCTURE
     1 ACO201      1 GROUP   
@<TRIPOS>SET
ATOM$ORANGE STATIC     ATOMS   COLORGROUP SYSTEM 
46 2 2 4 4 5 5 6 6 9 9 11 11 12 12 14 14 20 \
20 22 22 32 32 33 33 34 34 35 35 36 36 38 38 41 41 42 \
42 43 43 46 46 47 47 49 49 51 51 

