#    Name: 6o9a_2_3HB_CAVITY_N1_4
#    Modification time : Fri May 22 19:27:00 2020

@<TRIPOS>MOLECULE
6o9a_2_3HB_CAVITY_N1_4
   42     0     5     0     0
SMALL
NO_CHARGES


@<TRIPOS>ATOM
      1 OG         11.0900   46.3400    1.2000 O.3       1 SER1        0.0000 
      2 OG          9.8100   47.9000    0.5600 O.3       1 SER1        0.0000 
      3 OG         11.9800   47.3400    1.8800 O.3       1 SER1        0.0000 
      4 OG         13.1900   46.6600    1.3100 O.3       1 SER1        0.0000 
      5 OG         18.0100   49.1000    4.6700 O.3       1 SER1        0.0000 
      6 O          12.2000   44.6800    5.5000 O.2       2 ALA2        0.0000 
      7 N          11.8000   47.2500    5.5500 N.am      2 ALA2        0.0000 
      8 N          13.0100   46.5700    4.9800 N.am      2 ALA2        0.0000 
      9 O          15.1700   46.0100    6.2900 O.2       2 ALA2        0.0000 
     10 O          15.9900   47.8900    5.7700 O.2       2 ALA2        0.0000 
     11 O          17.1200   48.1000    3.9900 O.2       2 ALA2        0.0000 
     12 O          16.8700   48.8900    6.4500 O.2       2 ALA2        0.0000 
     13 CZ         12.4500   43.8900    3.0400 C.ar      3 PHE5        0.0000 
     14 CZ         13.2600   45.7700    2.5200 C.ar      3 PHE5        0.0000 
     15 CZ         14.3900   45.9800    0.7400 C.ar      3 PHE5        0.0000 
     16 CZ         14.2900   45.0000    5.6100 C.ar      3 PHE5        0.0000 
     17 CZ         14.2200   45.8900    4.4100 C.ar      3 PHE5        0.0000 
     18 CZ         14.1400   46.7700    3.2000 C.ar      3 PHE5        0.0000 
     19 CZ         15.3500   46.1000    2.6300 C.ar      3 PHE5        0.0000 
     20 CZ         16.3100   46.2100    4.5200 C.ar      3 PHE5        0.0000 
     21 CZ         16.2400   47.1000    3.3100 C.ar      3 PHE5        0.0000 
     22 CA         10.3500   43.5600    2.9300 C.3       4 GLY6        0.0000 
     23 CA          9.0700   45.1300    2.3000 C.3       4 GLY6        0.0000 
     24 CA         10.2800   44.4500    1.7300 C.3       4 GLY6        0.0000 
     25 CA          9.0000   46.0100    1.0900 C.3       4 GLY6        0.0000 
     26 CA         10.2100   45.3300    0.5200 C.3       4 GLY6        0.0000 
     27 CA         11.2400   44.5700    3.6100 C.3       4 GLY6        0.0000 
     28 CA         11.1600   45.4500    2.4100 C.3       4 GLY6        0.0000 
     29 CA         12.3700   44.7700    1.8400 C.3       4 GLY6        0.0000 
     30 CA          9.8800   47.0200    1.7700 C.3       4 GLY6        0.0000 
     31 CA         12.3000   45.6600    0.6300 C.3       4 GLY6        0.0000 
     32 CA         12.1200   45.5700    4.3000 C.3       4 GLY6        0.0000 
     33 CA         12.0500   46.4500    3.0900 C.3       4 GLY6        0.0000 
     34 CA         13.0800   45.6800    6.1800 C.3       4 GLY6        0.0000 
     35 CA         11.7200   48.1300    4.3400 C.3       4 GLY6        0.0000 
     36 CA         12.9300   47.4500    3.7700 C.3       4 GLY6        0.0000 
     37 CA         13.9600   46.6800    6.8700 C.3       4 GLY6        0.0000 
     38 CA         13.8900   47.5700    5.6600 C.3       4 GLY6        0.0000 
     39 CA         16.8000   49.7800    5.2400 C.3       4 GLY6        0.0000 
     40 DU         15.1000   46.8900    5.0900 H         5 CUB7        0.0000 
     41 DU         15.0300   47.7800    3.8800 H         5 CUB7        0.0000 
     42 DU         15.9100   48.7800    4.5600 H         5 CUB7        0.0000 
@<TRIPOS>BOND
@<TRIPOS>SUBSTRUCTURE
     1 SER1        1 GROUP   
     2 ALA2        6 GROUP   
     3 PHE5       13 GROUP   
     4 GLY6       22 GROUP   
     5 CUB7       40 GROUP   
@<TRIPOS>SET

