#    Name: 6o9a_2_3HB_CAVITY_N1_6
#    Modification time : Fri May 22 19:27:00 2020

@<TRIPOS>MOLECULE
6o9a_2_3HB_CAVITY_N1_6
   67     0     5     0     0
SMALL
NO_CHARGES


@<TRIPOS>ATOM
      1 OG         11.0900   46.3400    1.2000 O.3       1 SER1        0.0000 
      2 OG          9.8100   47.9000    0.5600 O.3       1 SER1        0.0000 
      3 OG         12.2300   46.5400   -0.5800 O.3       1 SER1        0.0000 
      4 OG         11.9800   47.3400    1.8800 O.3       1 SER1        0.0000 
      5 OG         13.1900   46.6600    1.3100 O.3       1 SER1        0.0000 
      6 OG         18.0100   49.1000    4.6700 O.3       1 SER1        0.0000 
      7 O           8.1900   44.1300    1.6200 O.2       2 ALA2        0.0000 
      8 O           6.9000   45.6900    0.9800 O.2       2 ALA2        0.0000 
      9 O           8.1100   45.0100    0.4100 O.2       2 ALA2        0.0000 
     10 O           8.0400   45.9000   -0.8000 O.2       2 ALA2        0.0000 
     11 N           9.2500   45.2200   -1.3700 N.am      2 ALA2        0.0000 
     12 N          10.4600   44.5400   -1.9400 N.am      2 ALA2        0.0000 
     13 O           8.9200   46.9000   -0.1200 O.2       2 ALA2        0.0000 
     14 N          11.3400   45.5400   -1.2600 N.am      2 ALA2        0.0000 
     15 N          12.5500   44.8600   -1.8300 N.am      2 ALA2        0.0000 
     16 N          13.4400   45.8600   -1.1500 N.am      2 ALA2        0.0000 
     17 O          12.2000   44.6800    5.5000 O.2       2 ALA2        0.0000 
     18 N          11.8000   47.2500    5.5500 N.am      2 ALA2        0.0000 
     19 N          13.0100   46.5700    4.9800 N.am      2 ALA2        0.0000 
     20 O          15.1700   46.0100    6.2900 O.2       2 ALA2        0.0000 
     21 O          15.9900   47.8900    5.7700 O.2       2 ALA2        0.0000 
     22 O          17.1200   48.1000    3.9900 O.2       2 ALA2        0.0000 
     23 O          17.0500   48.9800    2.7800 O.2       2 ALA2        0.0000 
     24 O          16.8700   48.8900    6.4500 O.2       2 ALA2        0.0000 
     25 CZ         12.4500   43.8900    3.0400 C.ar      3 PHE5        0.0000 
     26 CZ         13.5100   44.9800    0.0600 C.ar      3 PHE5        0.0000 
     27 CZ         14.7200   44.3000   -0.5200 C.ar      3 PHE5        0.0000 
     28 CZ         13.2600   45.7700    2.5200 C.ar      3 PHE5        0.0000 
     29 CZ         14.3900   45.9800    0.7400 C.ar      3 PHE5        0.0000 
     30 CZ         14.2900   45.0000    5.6100 C.ar      3 PHE5        0.0000 
     31 CZ         14.2200   45.8900    4.4100 C.ar      3 PHE5        0.0000 
     32 CZ         14.1400   46.7700    3.2000 C.ar      3 PHE5        0.0000 
     33 CZ         15.3500   46.1000    2.6300 C.ar      3 PHE5        0.0000 
     34 CZ         16.4900   46.3000    0.8500 C.ar      3 PHE5        0.0000 
     35 CZ         16.3100   46.2100    4.5200 C.ar      3 PHE5        0.0000 
     36 CZ         16.2400   47.1000    3.3100 C.ar      3 PHE5        0.0000 
     37 CZ         17.4500   46.4200    2.7400 C.ar      3 PHE5        0.0000 
     38 CA          9.3200   44.3300   -0.1600 C.3       4 GLY6        0.0000 
     39 CA         10.3500   43.5600    2.9300 C.3       4 GLY6        0.0000 
     40 CA          9.0700   45.1300    2.3000 C.3       4 GLY6        0.0000 
     41 CA         10.2800   44.4500    1.7300 C.3       4 GLY6        0.0000 
     42 CA          9.0000   46.0100    1.0900 C.3       4 GLY6        0.0000 
     43 CA         10.2100   45.3300    0.5200 C.3       4 GLY6        0.0000 
     44 CA         11.4200   44.6600   -0.0500 C.3       4 GLY6        0.0000 
     45 CA          7.7200   47.5800    0.4500 C.3       4 GLY6        0.0000 
     46 CA         10.1300   46.2200   -0.6900 C.3       4 GLY6        0.0000 
     47 CA         11.2400   44.5700    3.6100 C.3       4 GLY6        0.0000 
     48 CA         11.1600   45.4500    2.4100 C.3       4 GLY6        0.0000 
     49 CA         12.3700   44.7700    1.8400 C.3       4 GLY6        0.0000 
     50 CA          9.8800   47.0200    1.7700 C.3       4 GLY6        0.0000 
     51 CA         12.3000   45.6600    0.6300 C.3       4 GLY6        0.0000 
     52 CA         12.1200   45.5700    4.3000 C.3       4 GLY6        0.0000 
     53 CA         12.0500   46.4500    3.0900 C.3       4 GLY6        0.0000 
     54 CA         14.3200   46.8600   -0.4700 C.3       4 GLY6        0.0000 
     55 CA         13.0800   45.6800    6.1800 C.3       4 GLY6        0.0000 
     56 CA         11.7200   48.1300    4.3400 C.3       4 GLY6        0.0000 
     57 CA         12.9300   47.4500    3.7700 C.3       4 GLY6        0.0000 
     58 CA         15.2800   46.9800    1.4200 C.3       4 GLY6        0.0000 
     59 CA         13.9600   46.6800    6.8700 C.3       4 GLY6        0.0000 
     60 CA         13.8900   47.5700    5.6600 C.3       4 GLY6        0.0000 
     61 CA         16.1600   47.9800    2.1000 C.3       4 GLY6        0.0000 
     62 CA         17.3700   47.3000    1.5300 C.3       4 GLY6        0.0000 
     63 CA         18.3300   47.4200    3.4200 C.3       4 GLY6        0.0000 
     64 CA         16.8000   49.7800    5.2400 C.3       4 GLY6        0.0000 
     65 DU         15.1000   46.8900    5.0900 H         5 CUB7        0.0000 
     66 DU         15.0300   47.7800    3.8800 H         5 CUB7        0.0000 
     67 DU         15.9100   48.7800    4.5600 H         5 CUB7        0.0000 
@<TRIPOS>BOND
@<TRIPOS>SUBSTRUCTURE
     1 SER1        1 GROUP   
     2 ALA2        7 GROUP   
     3 PHE5       25 GROUP   
     4 GLY6       38 GROUP   
     5 CUB7       65 GROUP   
@<TRIPOS>SET

