#    Name: 6o9a_2_3HB
#    Modification time : Fri May 22 19:26:59 2020

@<TRIPOS>MOLECULE
6o9a_2_3HB
   10    10     1     0     0
SMALL
NO_CHARGES


@<TRIPOS>ATOM
      1 C1'        15.3250   45.3120    6.6490 C.2       1 3HB302      0.0000 
      2 O1'        15.8130   46.4700    6.4610 O.co2     1 3HB302      0.0000 
      3 O2'        15.9140   44.4600    7.3550 O.co2     1 3HB302      0.0000 
      4 C1         13.9990   44.9190    6.0080 C.ar      1 3HB302      0.0000 
      5 C2         13.3670   45.8920    5.0180 C.ar      1 3HB302      0.0000 
      6 C3         12.2290   45.5790    4.4470 C.ar      1 3HB302      0.0000 
      7 C4         11.5470   44.2490    4.7750 C.ar      1 3HB302      0.0000 
      8 C5         12.0910   43.4040    5.6380 C.ar      1 3HB302      0.0000 
      9 C6         13.4210   43.7660    6.3020 C.ar      1 3HB302      0.0000 
     10 O3         11.6700   46.4870    3.5380 O.3       1 3HB302      0.0000 
@<TRIPOS>BOND
     1    1    2 ar   
     2    1    3 ar   
     3    1    4 1    
     4    4    5 ar   
     5    4    9 ar   
     6    5    6 ar   
     7    6    7 ar   
     8    6   10 1    
     9    7    8 ar   
    10    8    9 ar   
@<TRIPOS>SUBSTRUCTURE
     1 3HB302      1 GROUP   
@<TRIPOS>SET

