#    Name: 6s35_1_ALA_ARG_MET_GLN_GLU_ALA_DLY
#    Modification time : Fri May 22 19:26:29 2020

@<TRIPOS>MOLECULE
6s35_1_ALA_ARG_MET_GLN_GLU_ALA_DLY
   55    55     7     0     0
SMALL
NO_CHARGES


@<TRIPOS>ATOM
      1 N           6.8370  -41.9250  -47.3690 N.4       1 ALA1        0.0000 
      2 CA          6.2200  -41.1000  -46.3140 C.3       1 ALA1        0.0000 
      3 C           7.1930  -40.9660  -45.1350 C.2       1 ALA1        0.0000 
      4 O           8.3890  -41.2820  -45.3140 O.2       1 ALA1        0.0000 
      5 CB          4.9040  -41.7170  -45.9190 C.3       1 ALA1        0.0000 
      6 N           6.7040  -40.4920  -43.9850 N.am      2 ARG2        0.0000 
      7 CA          7.5280  -40.2330  -42.7740 C.3       2 ARG2        0.0000 
      8 C           7.9730  -41.5600  -42.1520 C.2       2 ARG2        0.0000 
      9 O           9.1430  -41.6890  -41.7890 O.2       2 ARG2        0.0000 
     10 CB          6.7670  -39.3660  -41.7650 C.3       2 ARG2        0.0000 
     11 CG          6.7190  -37.8810  -42.0990 C.3       2 ARG2        0.0000 
     12 CD          5.3600  -37.2650  -41.7960 C.3       2 ARG2        0.0000 
     13 NE          5.4550  -35.9810  -41.1100 N.pl3     2 ARG2        0.0000 
     14 CZ          5.4560  -35.8140  -39.7840 C.cat     2 ARG2        0.0000 
     15 NH1         5.3630  -36.8530  -38.9650 N.pl3     2 ARG2        0.0000 
     16 NH2         5.5470  -34.5940  -39.2770 N.pl3     2 ARG2        0.0000 
     17 N           5.6270  -43.4270  -39.8060 N.am      3 MET4        0.0000 
     18 CA          5.0260  -43.3960  -38.4880 C.3       3 MET4        0.0000 
     19 C           4.2270  -44.6900  -38.2800 C.2       3 MET4        0.0000 
     20 O           4.3740  -45.6040  -39.1100 O.2       3 MET4        0.0000 
     21 CB          4.1200  -42.1660  -38.3710 C.3       3 MET4        0.0000 
     22 CG          4.8350  -40.8570  -38.6930 C.3       3 MET4        0.0000 
     23 SD          5.8490  -40.2310  -37.3240 S.3       3 MET4        0.0000 
     24 CE          4.5960  -39.4010  -36.3400 C.3       3 MET4        0.0000 
     25 N           3.4640  -44.7680  -37.1810 N.am      4 GLN5        0.0000 
     26 CA          2.4910  -45.8450  -36.8310 C.3       4 GLN5        0.0000 
     27 C           3.1950  -47.1610  -36.4690 C.2       4 GLN5        0.0000 
     28 O           2.4840  -48.1690  -36.3590 O.2       4 GLN5        0.0000 
     29 CB          1.4960  -46.0470  -37.9730 C.3       4 GLN5        0.0000 
     30 CG          0.8290  -44.7540  -38.4090 C.3       4 GLN5        0.0000 
     31 CD          0.3150  -43.9560  -37.2330 C.2       4 GLN5        0.0000 
     32 OE1        -0.2660  -44.5000  -36.2950 O.2       4 GLN5        0.0000 
     33 NE2         0.5140  -42.6480  -37.2910 N.am      4 GLN5        0.0000 
     34 N           4.5180  -47.1270  -36.2550 N.am      5 GLU6        0.0000 
     35 CA          5.3610  -48.2410  -35.7420 C.3       5 GLU6        0.0000 
     36 C           5.7910  -47.9100  -34.2950 C.2       5 GLU6        0.0000 
     37 O           6.9340  -48.2650  -33.9310 O.2       5 GLU6        0.0000 
     38 CB          6.5190  -48.4590  -36.7270 C.3       5 GLU6        0.0000 
     39 CG          6.0320  -48.9440  -38.0890 C.3       5 GLU6        0.0000 
     40 CD          7.0170  -49.0000  -39.2540 C.2       5 GLU6        0.0000 
     41 OE1         8.2370  -49.0900  -39.0290 O.co2     5 GLU6        0.0000 
     42 N           4.8850  -47.2910  -33.5040 N.am      6 ALA7        0.0000 
     43 CA          5.0850  -46.7270  -32.1370 C.3       6 ALA7        0.0000 
     44 C           5.9360  -47.6690  -31.2790 C.2       6 ALA7        0.0000 
     45 O           7.0820  -47.3430  -30.9850 O.2       6 ALA7        0.0000 
     46 CB          3.7500  -46.4550  -31.4680 C.3       6 ALA7        0.0000 
     47 N           7.0440  -42.5290  -42.0250 N.am      7 DLY3        0.0000 
     48 CA          7.3440  -43.8390  -41.4490 C.3       7 DLY3        0.0000 
     49 C           6.8380  -43.9360  -40.0160 C.2       7 DLY3        0.0000 
     50 O           7.5010  -44.4940  -39.1470 O.2       7 DLY3        0.0000 
     51 CB          6.7170  -45.0330  -42.1860 C.3       7 DLY3        0.0000 
     52 CG          7.4990  -46.3340  -41.9250 C.3       7 DLY3        0.0000 
     53 CD          6.8440  -47.5890  -42.5220 C.3       7 DLY3        0.0000 
     54 CE          7.1290  -48.8740  -41.7310 C.3       7 DLY3        0.0000 
     55 NZ          6.4180  -48.9380  -40.4660 N.4       7 DLY3        0.0000 
@<TRIPOS>BOND
     1    7    8 1    
     2    7   10 1    
     3    8    9 2    
     4    8   47 du   
     5   10   11 1    
     6   11   12 1    
     7   12   13 1    
     8   13   14 ar   
     9   14   15 ar   
    10   14   16 ar   
    11   17   18 1    
    12   17   49 am   
    13   18   19 1    
    14   18   21 1    
    15   19   20 2    
    16   19   25 am   
    17   21   22 1    
    18   22   23 1    
    19   23   24 1    
    20   25   26 1    
    21   26   27 1    
    22   26   29 1    
    23   27   28 2    
    24   27   34 am   
    25   29   30 1    
    26   30   31 1    
    27   31   32 2    
    28   31   33 am   
    29   34   35 1    
    30   35   36 1    
    31   35   38 1    
    32   36   37 2    
    33   36   42 am   
    34   38   39 1    
    35   39   40 1    
    36   40   41 ar   
    37   40   55 du   
    38   42   43 1    
    39   43   44 1    
    40   43   46 1    
    41   44   45 2    
    42   47   48 1    
    43   48   49 1    
    44   48   51 1    
    45   49   50 2    
    46   51   52 1    
    47   52   53 1    
    48   53   54 1    
    49   54   55 1    
    50    1    2 1    
    51    2    3 1    
    52    2    5 1    
    53    3    4 2    
    54    3    6 am   
    55    6    7 1    
@<TRIPOS>SUBSTRUCTURE
     1 ALA1        1 RESIDUE 
     2 ARG2        6 RESIDUE 
     3 MET4       17 RESIDUE 
     4 GLN5       25 RESIDUE 
     5 GLU6       34 RESIDUE 
     6 ALA7       42 RESIDUE 
     7 DLY3       47 RESIDUE 
@<TRIPOS>SET

