#    Name: 6s35_2_FAD
#    Modification time : Fri May 22 19:26:36 2020

@<TRIPOS>MOLECULE
6s35_2_FAD
   53    58     1     0     1
SMALL
NO_CHARGES


@<TRIPOS>ATOM
      1 PA          6.6740  -67.8600  -28.8510 P.3       1 FAD901      0.0000 
      2 O1A         5.7370  -68.2400  -29.9630 O.co2     1 FAD901      0.0000 
      3 O2A         7.9730  -67.1340  -29.0960 O.co2     1 FAD901      0.0000 
      4 O5B         7.0100  -69.1930  -28.0180 O.3       1 FAD901      0.0000 
      5 C5B         5.9730  -70.1770  -27.7570 C.3       1 FAD901      0.0000 
      6 C4B         6.5510  -71.5550  -27.9430 C.3       1 FAD901      0.0000 
      7 O4B         5.4930  -72.5410  -27.9110 O.3       1 FAD901      0.0000 
      8 C3B         7.2770  -71.7910  -29.2740 C.3       1 FAD901      0.0000 
      9 O3B         8.6210  -72.1200  -28.9530 O.3       1 FAD901      0.0000 
     10 C2B         6.4860  -72.9270  -29.9350 C.3       1 FAD901      0.0000 
     11 O2B         7.3190  -73.7820  -30.6810 O.3       1 FAD901      0.0000 
     12 C1B         5.9170  -73.6210  -28.7060 C.3       1 FAD901      0.0000 
     13 N9A         4.7740  -74.5140  -28.8470 N.pl3     1 FAD901      0.0000 
     14 C8A         3.5840  -74.2400  -29.4640 C.2       1 FAD901      0.0000 
     15 N7A         2.7180  -75.2240  -29.3600 N.2       1 FAD901      0.0000 
     16 C5A         3.3670  -76.1770  -28.5890 C.ar      1 FAD901      0.0000 
     17 C6A         2.9600  -77.4360  -28.1110 C.ar      1 FAD901      0.0000 
     18 N6A         1.7500  -77.9380  -28.3390 N.pl3     1 FAD901      0.0000 
     19 N1A         3.8400  -78.1200  -27.3340 N.ar      1 FAD901      0.0000 
     20 C2A         5.0530  -77.5830  -27.1130 C.ar      1 FAD901      0.0000 
     21 N3A         5.5500  -76.4160  -27.5260 N.ar      1 FAD901      0.0000 
     22 C4A         4.6380  -75.7480  -28.2610 C.ar      1 FAD901      0.0000 
     23 N1          8.1870  -58.2030  -31.4740 N.2       1 FAD901      0.0000 
     24 C2          9.0840  -57.1580  -31.3590 C.2       1 FAD901      0.0000 
     25 O2          9.4220  -56.6870  -30.2600 O.2       1 FAD901      0.0000 
     26 N3          9.6200  -56.5720  -32.4490 N.am      1 FAD901      0.0000 
     27 C4          9.3060  -56.9770  -33.7210 C.2       1 FAD901      0.0000 
     28 O4          9.8550  -56.4460  -34.6730 O.2       1 FAD901      0.0000 
     29 C4X         8.4580  -58.0760  -33.8770 C.2       1 FAD901      0.0000 
     30 N5          8.2150  -58.4810  -35.0890 N.2       1 FAD901      0.0000 
     31 C5X         7.4560  -59.6040  -35.2420 C.ar      1 FAD901      0.0000 
     32 C6          7.2750  -60.0800  -36.5500 C.ar      1 FAD901      0.0000 
     33 C7          6.5920  -61.2400  -36.8090 C.ar      1 FAD901      0.0000 
     34 C7M         6.4510  -61.7270  -38.2280 C.3       1 FAD901      0.0000 
     35 C8          6.0030  -61.9420  -35.7310 C.ar      1 FAD901      0.0000 
     36 C8M         5.2190  -63.2030  -35.9940 C.3       1 FAD901      0.0000 
     37 C9          6.1110  -61.4360  -34.4310 C.ar      1 FAD901      0.0000 
     38 C9A         6.8670  -60.2810  -34.1550 C.ar      1 FAD901      0.0000 
     39 N10         7.0700  -59.7630  -32.8690 N.pl3     1 FAD901      0.0000 
     40 C10         7.9120  -58.6630  -32.6820 C.2       1 FAD901      0.0000 
     41 C1'         6.5030  -60.4550  -31.6910 C.3       1 FAD901      0.0000 
     42 C2'         7.4860  -61.4380  -31.0350 C.3       1 FAD901      0.0000 
     43 O2'         8.1940  -62.2250  -31.9830 O.3       1 FAD901      0.0000 
     44 C3'         6.7610  -62.4280  -30.1300 C.3       1 FAD901      0.0000 
     45 O3'         5.6680  -61.7750  -29.4870 O.3       1 FAD901      0.0000 
     46 C4'         7.6270  -63.0800  -29.0520 C.3       1 FAD901      0.0000 
     47 O4'         8.6690  -63.8950  -29.6050 O.3       1 FAD901      0.0000 
     48 C5'         6.7220  -63.8880  -28.1510 C.3       1 FAD901      0.0000 
     49 O5'         7.3100  -65.0220  -27.4830 O.3       1 FAD901      0.0000 
     50 P           6.2860  -65.9280  -26.6510 P.3       1 FAD901      0.0000 
     51 O1P         7.1690  -66.5000  -25.5880 O.co2     1 FAD901      0.0000 
     52 O2P         5.0180  -65.2580  -26.2190 O.co2     1 FAD901      0.0000 
     53 O3P         5.8400  -67.0030  -27.7740 O.3       1 FAD901      0.0000 
@<TRIPOS>BOND
     1    1    2 ar   
     2    1    3 ar   
     3    1    4 1    
     4    1   53 1    
     5    4    5 1    
     6    5    6 1    
     7    6    7 1    
     8    6    8 1    
     9    7   12 1    
    10    8    9 1    
    11    8   10 1    
    12   10   11 1    
    13   10   12 1    
    14   12   13 1    
    15   13   14 1    
    16   13   22 1    
    17   14   15 2    
    18   15   16 1    
    19   16   17 ar   
    20   16   22 ar   
    21   17   18 1    
    22   17   19 ar   
    23   19   20 ar   
    24   20   21 ar   
    25   21   22 ar   
    26   23   24 1    
    27   23   40 2    
    28   24   25 2    
    29   24   26 am   
    30   26   27 am   
    31   27   28 2    
    32   27   29 1    
    33   29   30 2    
    34   29   40 1    
    35   30   31 1    
    36   31   32 ar   
    37   31   38 ar   
    38   32   33 ar   
    39   33   34 1    
    40   33   35 ar   
    41   35   36 1    
    42   35   37 ar   
    43   37   38 ar   
    44   38   39 1    
    45   39   40 1    
    46   39   41 1    
    47   41   42 1    
    48   42   43 1    
    49   42   44 1    
    50   44   45 1    
    51   44   46 1    
    52   46   47 1    
    53   46   48 1    
    54   48   49 1    
    55   49   50 1    
    56   50   51 ar   
    57   50   52 ar   
    58   50   53 1    
@<TRIPOS>SUBSTRUCTURE
     1 FAD901      1 GROUP   
@<TRIPOS>SET
ATOM$ORANGE STATIC     ATOMS   COLORGROUP SYSTEM 
54 5 5 6 6 8 8 10 10 12 12 14 14 16 16 17 17 20 \
20 22 22 24 24 27 27 29 29 31 31 32 32 33 33 34 34 35 \
35 36 36 37 37 38 38 40 40 41 41 42 42 44 44 46 46 48 \
48 

