#    Name: 6qcl_3_ACO_CAVITY_N1_ALL
#    Modification time : Fri May 22 19:34:20 2020

@<TRIPOS>MOLECULE
6qcl_3_ACO_CAVITY_N1_ALL
   68     0     7     0     0
SMALL
NO_CHARGES


@<TRIPOS>ATOM
      1 OG        -13.9500   46.0000  -62.1100 O.3       1 SER1        0.0000 
      2 OG        -13.5400   47.0700  -61.1400 O.3       1 SER1        0.0000 
      3 OG        -14.2500   46.3300  -60.0400 O.3       1 SER1        0.0000 
      4 OG        -12.2800   46.3000  -60.8300 O.3       1 SER1        0.0000 
      5 OG        -12.9900   45.5700  -59.7400 O.3       1 SER1        0.0000 
      6 O         -11.9800   45.9800  -62.9100 O.2       2 ALA2        0.0000 
      7 N         -10.7200   45.2200  -62.6000 N.am      2 ALA2        0.0000 
      8 N          -6.5700   39.2000  -57.7900 N.am      2 ALA2        0.0000 
      9 O          -9.0600   45.5200  -61.3200 O.2       2 ALA2        0.0000 
     10 O          -9.7700   44.7800  -60.2200 O.2       2 ALA2        0.0000 
     11 N         -10.4800   44.0500  -59.1300 N.am      2 ALA2        0.0000 
     12 O          -8.5100   44.0200  -59.9200 O.2       2 ALA2        0.0000 
     13 N          -9.2300   43.2900  -58.8200 N.am      2 ALA2        0.0000 
     14 N          -9.9400   42.5500  -57.7300 N.am      2 ALA2        0.0000 
     15 O         -10.6500   41.8100  -56.6300 O.2       2 ALA2        0.0000 
     16 O         -11.3600   41.0800  -55.5300 O.2       2 ALA2        0.0000 
     17 O          -6.5500   44.0000  -60.7100 O.2       2 ALA2        0.0000 
     18 O          -7.2600   43.2600  -59.6200 O.2       2 ALA2        0.0000 
     19 N          -7.9700   42.5200  -58.5200 N.am      2 ALA2        0.0000 
     20 O          -9.3900   41.0500  -56.3300 O.2       2 ALA2        0.0000 
     21 O         -10.1000   40.3200  -55.2300 O.2       2 ALA2        0.0000 
     22 N          -6.7100   41.7600  -58.2100 N.am      2 ALA2        0.0000 
     23 N          -7.4200   41.0300  -57.1200 N.am      2 ALA2        0.0000 
     24 N          -5.4600   41.0000  -57.9100 N.am      2 ALA2        0.0000 
     25 N          -6.1700   40.2700  -56.8100 N.am      2 ALA2        0.0000 
     26 O         -11.1600   48.1000  -60.9500 O.2       2 ALA2        0.0000 
     27 O         -11.8800   47.3700  -59.8500 O.2       2 ALA2        0.0000 
     28 N          -9.3600   45.8400  -59.2500 N.am      2 ALA2        0.0000 
     29 N          -8.1100   45.0800  -58.9400 N.am      2 ALA2        0.0000 
     30 N          -9.5300   43.6100  -56.7500 N.am      2 ALA2        0.0000 
     31 N          -6.8500   44.3200  -58.6400 N.am      2 ALA2        0.0000 
     32 N          -7.5600   43.5900  -57.5400 N.am      2 ALA2        0.0000 
     33 N          -8.2700   42.8500  -56.4500 N.am      2 ALA2        0.0000 
     34 N          -5.5900   43.5600  -58.3300 N.am      2 ALA2        0.0000 
     35 N          -6.3100   42.8300  -57.2400 N.am      2 ALA2        0.0000 
     36 N          -7.8700   43.9100  -55.4700 N.am      2 ALA2        0.0000 
     37 OD1       -10.4100   40.6400  -53.1600 O.co2     3 ASP3        0.0000 
     38 OD1        -9.1500   39.8800  -52.8500 O.co2     3 ASP3        0.0000 
     39 NZ        -11.5700   47.0400  -61.9300 N.4       4 LYS4        0.0000 
     40 NZ        -10.3100   46.2800  -61.6200 N.4       4 LYS4        0.0000 
     41 CZ        -12.6900   45.2400  -61.8100 C.ar      5 PHE5        0.0000 
     42 CZ        -11.4300   44.4800  -61.5100 C.ar      5 PHE5        0.0000 
     43 CZ        -12.8300   47.8000  -62.2300 C.ar      5 PHE5        0.0000 
     44 CZ        -11.0300   45.5400  -60.5300 C.ar      5 PHE5        0.0000 
     45 CZ        -11.7400   44.8100  -59.4300 C.ar      5 PHE5        0.0000 
     46 CA        -13.2300   46.7400  -63.2100 C.3       6 GLY6        0.0000 
     47 CA         -7.8300   39.9600  -58.1000 C.3       6 GLY6        0.0000 
     48 CA         -5.3200   38.4400  -57.4900 C.3       6 GLY6        0.0000 
     49 CA         -6.0300   37.7100  -56.3900 C.3       6 GLY6        0.0000 
     50 CA         -8.6800   41.7900  -57.4200 C.3       6 GLY6        0.0000 
     51 CA         -4.2000   40.2400  -57.6100 C.3       6 GLY6        0.0000 
     52 CA         -4.9100   39.5100  -56.5100 C.3       6 GLY6        0.0000 
     53 CA         -7.4000   45.8200  -60.0400 C.3       6 GLY6        0.0000 
     54 CA        -10.2400   42.8700  -55.6500 C.3       6 GLY6        0.0000 
     55 CA        -10.9500   42.1400  -54.5600 C.3       6 GLY6        0.0000 
     56 CA         -6.1400   45.0600  -59.7300 C.3       6 GLY6        0.0000 
     57 CA         -5.0500   42.0700  -56.9300 C.3       6 GLY6        0.0000 
     58 CA         -5.7600   41.3300  -55.8400 C.3       6 GLY6        0.0000 
     59 CA         -8.5800   43.1800  -54.3700 C.3       6 GLY6        0.0000 
     60 CA         -9.2900   42.4400  -53.2800 C.3       6 GLY6        0.0000 
     61 CA         -6.6100   43.1500  -55.1600 C.3       6 GLY6        0.0000 
     62 DU         -8.1400   40.2900  -56.0200 H         7 CUB7        0.0000 
     63 DU         -8.8500   39.5500  -54.9300 H         7 CUB7        0.0000 
     64 DU         -9.5600   38.8200  -53.8300 H         7 CUB7        0.0000 
     65 DU         -6.8800   39.5300  -55.7200 H         7 CUB7        0.0000 
     66 DU         -8.9900   42.1100  -55.3500 H         7 CUB7        0.0000 
     67 DU         -9.7000   41.3800  -54.2500 H         7 CUB7        0.0000 
     68 DU         -7.0200   42.0900  -56.1400 H         7 CUB7        0.0000 
@<TRIPOS>BOND
@<TRIPOS>SUBSTRUCTURE
     1 SER1        1 GROUP   
     2 ALA2        6 GROUP   
     3 ASP3       37 GROUP   
     4 LYS4       39 GROUP   
     5 PHE5       41 GROUP   
     6 GLY6       46 GROUP   
     7 CUB7       62 GROUP   
@<TRIPOS>SET

