#    Name: 6qcl_1_ACO
#    Modification time : Fri May 22 19:34:11 2020

@<TRIPOS>MOLECULE
6qcl_1_ACO
   89    91     1     0     1
SMALL
NO_CHARGES


@<TRIPOS>ATOM
      1 N1A        17.9160   60.2590  -49.2970 N.ar      1 ACO1001     0.0000 
      2 C2A        18.8260   60.4320  -50.2650 C.ar      1 ACO1001     0.0000 
      3 N3A        19.0410   61.5120  -51.0260 N.ar      1 ACO1001     0.0000 
      4 C4A        18.1840   62.4990  -50.7180 C.ar      1 ACO1001     0.0000 
      5 C5A        17.1800   62.4540  -49.7640 C.ar      1 ACO1001     0.0000 
      6 C6A        17.0680   61.2710  -49.0140 C.ar      1 ACO1001     0.0000 
      7 N6A        16.1800   61.1110  -48.0380 N.pl3     1 ACO1001     0.0000 
      8 N7A        16.4860   63.6530  -49.7240 N.2       1 ACO1001     0.0000 
      9 C8A        17.0850   64.3870  -50.6330 C.2       1 ACO1001     0.0000 
     10 N9A        18.1160   63.7520  -51.2730 N.pl3     1 ACO1001     0.0000 
     11 C1B        18.9750   64.3080  -52.3080 C.3       1 ACO1001     0.0000 
     12 C2B        18.3370   64.2470  -53.6920 C.3       1 ACO1001     0.0000 
     13 O2B        18.7450   63.0410  -54.3190 O.3       1 ACO1001     0.0000 
     14 C3B        18.9200   65.5020  -54.3260 C.3       1 ACO1001     0.0000 
     15 O3B        20.2950   65.2360  -54.6750 O.3       1 ACO1001     0.0000 
     16 P3B        20.9460   65.8340  -56.0640 P.3       1 ACO1001     0.0000 
     17 O7A        21.0520   67.3250  -55.9360 O.co2     1 ACO1001     0.0000 
     18 O8A        22.2660   65.0970  -56.2470 O.co2     1 ACO1001     0.0000 
     19 O9A        20.0050   65.3720  -57.1730 O.co2     1 ACO1001     0.0000 
     20 C4B        18.9430   66.4890  -53.1690 C.3       1 ACO1001     0.0000 
     21 O4B        19.2000   65.6720  -52.0070 O.3       1 ACO1001     0.0000 
     22 C5B        17.6870   67.2920  -52.9470 C.3       1 ACO1001     0.0000 
     23 O5B        16.5740   66.4060  -53.1220 O.3       1 ACO1001     0.0000 
     24 P1A        15.1330   66.8550  -53.7000 P.3       1 ACO1001     0.0000 
     25 O1A        14.1900   65.7520  -53.4180 O.co2     1 ACO1001     0.0000 
     26 O2A        15.3280   67.3760  -55.1210 O.co2     1 ACO1001     0.0000 
     27 O3A        14.8960   68.1010  -52.7540 O.3       1 ACO1001     0.0000 
     28 P2A        13.7280   68.5180  -51.7730 P.3       1 ACO1001     0.0000 
     29 O4A        14.0070   69.7790  -51.1120 O.co2     1 ACO1001     0.0000 
     30 O5A        12.4630   68.5220  -52.5880 O.co2     1 ACO1001     0.0000 
     31 O6A        13.7820   67.3300  -50.6880 O.3       1 ACO1001     0.0000 
     32 CBP        12.3910   66.0610  -49.1680 C.3       1 ACO1001     0.0000 
     33 CCP        12.9740   67.4260  -49.5120 C.3       1 ACO1001     0.0000 
     34 CDP        11.1540   65.8340  -50.0560 C.3       1 ACO1001     0.0000 
     35 CEP        11.9750   66.0880  -47.6920 C.3       1 ACO1001     0.0000 
     36 CAP        13.4100   64.9160  -49.4020 C.3       1 ACO1001     0.0000 
     37 OAP        14.5600   65.1750  -48.6050 O.3       1 ACO1001     0.0000 
     38 C9P        12.8730   63.5110  -49.1740 C.2       1 ACO1001     0.0000 
     39 O9P        12.1440   62.9790  -50.0220 O.2       1 ACO1001     0.0000 
     40 N8P        13.2000   62.9250  -48.0150 N.am      1 ACO1001     0.0000 
     41 C7P        12.7540   61.5880  -47.6410 C.3       1 ACO1001     0.0000 
     42 C6P        11.3020   61.5770  -47.1940 C.3       1 ACO1001     0.0000 
     43 C5P        11.1130   62.2670  -45.8640 C.2       1 ACO1001     0.0000 
     44 O5P        11.8130   61.9440  -44.9000 O.2       1 ACO1001     0.0000 
     45 N4P        10.1730   63.2160  -45.8060 N.am      1 ACO1001     0.0000 
     46 C3P         9.8200   63.9410  -44.5820 C.3       1 ACO1001     0.0000 
     47 C2P        10.4590   65.3200  -44.4530 C.3       1 ACO1001     0.0000 
     48 S1P        10.2090   65.9160  -42.7320 S.3       1 ACO1001     0.0000 
     49 C           8.4990   66.3140  -42.8440 C.2       1 ACO1001     0.0000 
     50 O           7.9540   66.4810  -43.8940 O.2       1 ACO1001     0.0000 
     51 CH3         7.8950   66.6750  -41.5200 C.3       1 ACO1001     0.0000 
     52 H2A        19.4750   59.5780  -50.4530 H         1 ACO1001     0.0000 
     53 H61A       16.1290   60.2550  -47.4980 H         1 ACO1001     0.0000 
     54 H62A       15.5340   61.8590  -47.8120 H         1 ACO1001     0.0000 
     55 H8A        16.8020   65.4180  -50.8360 H         1 ACO1001     0.0000 
     56 H1B        19.9360   63.8000  -52.2440 H         1 ACO1001     0.0000 
     57 H2B        17.2490   64.2690  -53.6870 H         1 ACO1001     0.0000 
     58 HO2A       17.9240   62.5530  -54.5930 H         1 ACO1001     0.0000 
     59 H3B        18.3560   65.8560  -55.1880 H         1 ACO1001     0.0000 
     60 HOA8       23.1160   65.6070  -56.1820 H         1 ACO1001     0.0000 
     61 HOA9       19.7090   64.4400  -57.3440 H         1 ACO1001     0.0000 
     62 H4B        19.8170   67.1380  -53.2140 H         1 ACO1001     0.0000 
     63 H51A       17.5560   68.0650  -53.7020 H         1 ACO1001     0.0000 
     64 H52A       17.6800   67.7900  -51.9790 H         1 ACO1001     0.0000 
     65 HOA2       15.1630   66.8060  -55.9180 H         1 ACO1001     0.0000 
     66 HOA5       12.2890   68.1610  -53.4970 H         1 ACO1001     0.0000 
     67 H121       13.6050   67.7880  -48.7010 H         1 ACO1001     0.0000 
     68 H122       12.2050   68.1760  -49.6850 H         1 ACO1001     0.0000 
     69 H131       11.4300   65.6210  -51.0880 H         1 ACO1001     0.0000 
     70 H132       10.5090   66.7120  -50.0890 H         1 ACO1001     0.0000 
     71 H133       10.5320   65.0130  -49.7030 H         1 ACO1001     0.0000 
     72 H141       12.8170   66.2080  -47.0130 H         1 ACO1001     0.0000 
     73 H142       11.3030   66.9190  -47.4850 H         1 ACO1001     0.0000 
     74 H143       11.4130   65.2060  -47.3880 H         1 ACO1001     0.0000 
     75 H10        13.8100   64.9980  -50.4120 H         1 ACO1001     0.0000 
     76 HO1        15.2440   64.4850  -48.8130 H         1 ACO1001     0.0000 
     77 HN8        13.7750   63.4180  -47.3390 H         1 ACO1001     0.0000 
     78 H71        13.3920   61.1480  -46.8780 H         1 ACO1001     0.0000 
     79 H72        12.8760   60.9400  -48.5080 H         1 ACO1001     0.0000 
     80 H61        10.9470   60.5560  -47.0800 H         1 ACO1001     0.0000 
     81 H62        10.6830   62.0190  -47.9720 H         1 ACO1001     0.0000 
     82 HN4         9.6530   63.4700  -46.6390 H         1 ACO1001     0.0000 
     83 H31        10.0510   63.3470  -43.6990 H         1 ACO1001     0.0000 
     84 H32         8.7350   64.0180  -44.5380 H         1 ACO1001     0.0000 
     85 H21        11.5270   65.3060  -44.6620 H         1 ACO1001     0.0000 
     86 H22        10.0310   66.0430  -45.1440 H         1 ACO1001     0.0000 
     87 HH31        8.5220   67.3870  -40.9930 H         1 ACO1001     0.0000 
     88 HH32        7.7710   65.7950  -40.8930 H         1 ACO1001     0.0000 
     89 HH33        6.9050   67.1180  -41.6220 H         1 ACO1001     0.0000 
@<TRIPOS>BOND
     1    1    2 ar   
     2    1    6 ar   
     3    2    3 ar   
     4    2   52 1    
     5    3    4 ar   
     6    4    5 ar   
     7    4   10 1    
     8    5    6 ar   
     9    5    8 1    
    10    6    7 1    
    11    7   53 1    
    12    7   54 1    
    13    8    9 2    
    14   37   76 1    
    15    9   10 1    
    16    9   55 1    
    17   10   11 1    
    18   11   12 1    
    19   11   21 1    
    20   11   56 1    
    21   12   13 1    
    22   12   14 1    
    23   12   57 1    
    24   13   58 1    
    25   14   15 1    
    26   14   20 1    
    27   14   59 1    
    28   15   16 1    
    29   16   17 ar   
    30   16   18 ar   
    31   16   19 ar   
    32   18   60 1    
    33   19   61 1    
    34   20   21 1    
    35   20   22 1    
    36   20   62 1    
    37   22   23 1    
    38   22   63 1    
    39   22   64 1    
    40   23   24 1    
    41   24   25 ar   
    42   24   26 ar   
    43   24   27 1    
    44   26   65 1    
    45   27   28 1    
    46   28   29 ar   
    47   28   30 ar   
    48   28   31 1    
    49   30   66 1    
    50   31   33 1    
    51   32   33 1    
    52   32   34 1    
    53   32   35 1    
    54   32   36 1    
    55   33   67 1    
    56   33   68 1    
    57   34   69 1    
    58   34   70 1    
    59   34   71 1    
    60   35   72 1    
    61   35   73 1    
    62   35   74 1    
    63   36   37 1    
    64   36   38 1    
    65   36   75 1    
    66   38   39 2    
    67   38   40 am   
    68   40   41 1    
    69   40   77 1    
    70   41   42 1    
    71   41   78 1    
    72   41   79 1    
    73   42   43 1    
    74   42   80 1    
    75   42   81 1    
    76   43   44 2    
    77   43   45 am   
    78   45   46 1    
    79   45   82 1    
    80   46   47 1    
    81   46   83 1    
    82   46   84 1    
    83   47   48 1    
    84   47   85 1    
    85   47   86 1    
    86   48   49 1    
    87   49   50 2    
    88   49   51 1    
    89   51   87 1    
    90   51   88 1    
    91   51   89 1    
@<TRIPOS>SUBSTRUCTURE
     1 ACO1001     1 GROUP   
@<TRIPOS>SET
ATOM$ORANGE STATIC     ATOMS   COLORGROUP SYSTEM 
46 2 2 4 4 5 5 6 6 9 9 11 11 12 12 14 14 20 \
20 22 22 32 32 33 33 34 34 35 35 36 36 38 38 41 41 42 \
42 43 43 46 46 47 47 49 49 51 51 

