#    Name: 6qcl_4_ACO
#    Modification time : Fri May 22 19:34:26 2020

@<TRIPOS>MOLECULE
6qcl_4_ACO
   89    91     1     0     1
SMALL
NO_CHARGES


@<TRIPOS>ATOM
      1 N1A       -16.2540   40.8220    0.7100 N.ar      1 ACO1001     0.0000 
      2 C2A       -15.7100   41.9660    0.2650 C.ar      1 ACO1001     0.0000 
      3 N3A       -15.9630   42.6280   -0.8760 N.ar      1 ACO1001     0.0000 
      4 C4A       -16.8770   41.9830   -1.6170 C.ar      1 ACO1001     0.0000 
      5 C5A       -17.5230   40.8010   -1.2870 C.ar      1 ACO1001     0.0000 
      6 C6A       -17.1880   40.2100   -0.0580 C.ar      1 ACO1001     0.0000 
      7 N6A       -17.7620   39.0870    0.3880 N.pl3     1 ACO1001     0.0000 
      8 N7A       -18.4230   40.4400   -2.2770 N.2       1 ACO1001     0.0000 
      9 C8A       -18.3080   41.3960   -3.1650 C.2       1 ACO1001     0.0000 
     10 N9A       -17.3910   42.3600   -2.8320 N.pl3     1 ACO1001     0.0000 
     11 C1B       -17.0950   43.5490   -3.6130 C.3       1 ACO1001     0.0000 
     12 C2B       -16.0740   43.2800   -4.7190 C.3       1 ACO1001     0.0000 
     13 O2B       -14.7920   43.5280   -4.1600 O.3       1 ACO1001     0.0000 
     14 C3B       -16.5280   44.2900   -5.7690 C.3       1 ACO1001     0.0000 
     15 O3B       -16.1050   45.6060   -5.3530 O.3       1 ACO1001     0.0000 
     16 P3B       -15.6670   46.7500   -6.4450 P.3       1 ACO1001     0.0000 
     17 O7A       -16.8700   47.0800   -7.2730 O.co2     1 ACO1001     0.0000 
     18 O8A       -15.1590   47.9350   -5.6210 O.co2     1 ACO1001     0.0000 
     19 O9A       -14.5660   46.0950   -7.2370 O.co2     1 ACO1001     0.0000 
     20 C4B       -18.0460   44.2650   -5.6360 C.3       1 ACO1001     0.0000 
     21 O4B       -18.2920   43.9520   -4.2450 O.3       1 ACO1001     0.0000 
     22 C5B       -18.7530   43.2610   -6.5110 C.3       1 ACO1001     0.0000 
     23 O5B       -18.1480   41.9690   -6.2830 O.3       1 ACO1001     0.0000 
     24 P1A       -18.0740   40.8060   -7.4030 P.3       1 ACO1001     0.0000 
     25 O1A       -17.3270   39.6290   -6.9550 O.co2     1 ACO1001     0.0000 
     26 O2A       -17.5810   41.4120   -8.7060 O.co2     1 ACO1001     0.0000 
     27 O3A       -19.6360   40.5800   -7.5380 O.3       1 ACO1001     0.0000 
     28 P2A       -20.6450   39.3510   -7.5540 P.3       1 ACO1001     0.0000 
     29 O4A       -22.0400   39.8010   -7.7780 O.co2     1 ACO1001     0.0000 
     30 O5A       -20.1480   38.3060   -8.5190 O.co2     1 ACO1001     0.0000 
     31 O6A       -20.4460   38.8630   -6.0680 O.3       1 ACO1001     0.0000 
     32 CBP       -20.6170   36.9210   -4.6410 C.3       1 ACO1001     0.0000 
     33 CCP       -21.3660   37.9330   -5.4980 C.3       1 ACO1001     0.0000 
     34 CDP       -19.8520   35.9540   -5.5530 C.3       1 ACO1001     0.0000 
     35 CEP       -21.6410   36.1390   -3.8080 C.3       1 ACO1001     0.0000 
     36 CAP       -19.5940   37.6580   -3.7400 C.3       1 ACO1001     0.0000 
     37 OAP       -20.2760   38.6320   -2.9750 O.3       1 ACO1001     0.0000 
     38 C9P       -18.7150   36.7630   -2.8710 C.2       1 ACO1001     0.0000 
     39 O9P       -17.7580   36.1660   -3.3660 O.2       1 ACO1001     0.0000 
     40 N8P       -19.1010   36.5800   -1.6090 N.am      1 ACO1001     0.0000 
     41 C7P       -18.3270   35.7830   -0.6720 C.3       1 ACO1001     0.0000 
     42 C6P       -18.6420   34.2990   -0.8210 C.3       1 ACO1001     0.0000 
     43 C5P       -20.0420   33.9700   -0.3690 C.2       1 ACO1001     0.0000 
     44 O5P       -20.4220   34.2940    0.7530 O.2       1 ACO1001     0.0000 
     45 N4P       -20.8440   33.3600   -1.2490 N.am      1 ACO1001     0.0000 
     46 C3P       -22.1860   32.8660   -0.9260 C.3       1 ACO1001     0.0000 
     47 C2P       -23.3380   33.6900   -1.4830 C.3       1 ACO1001     0.0000 
     48 S1P       -24.9000   33.2070   -0.6790 S.3       1 ACO1001     0.0000 
     49 C         -25.1310   31.6030   -1.3890 C.2       1 ACO1001     0.0000 
     50 O         -24.5950   31.2750   -2.4060 O.2       1 ACO1001     0.0000 
     51 CH3       -26.2530   30.8410   -0.7520 C.3       1 ACO1001     0.0000 
     52 H2A       -14.9350   42.3970    0.8950 H         1 ACO1001     0.0000 
     53 H61A      -18.4880   38.6280   -0.1510 H         1 ACO1001     0.0000 
     54 H62A      -17.5040   38.6840    1.2820 H         1 ACO1001     0.0000 
     55 H8A       -18.9250   41.4230   -4.0610 H         1 ACO1001     0.0000 
     56 H1B       -16.8050   44.3430   -2.9260 H         1 ACO1001     0.0000 
     57 H2B       -16.0860   42.2600   -5.0980 H         1 ACO1001     0.0000 
     58 HO2A      -14.2110   42.7540   -4.3830 H         1 ACO1001     0.0000 
     59 H3B       -16.1810   44.0710   -6.7770 H         1 ACO1001     0.0000 
     60 HOA8      -14.7360   48.7040   -6.0840 H         1 ACO1001     0.0000 
     61 HOA9      -14.6680   45.6130   -8.0990 H         1 ACO1001     0.0000 
     62 H4B       -18.4880   45.2530   -5.7530 H         1 ACO1001     0.0000 
     63 H51A      -18.6000   43.4820   -7.5660 H         1 ACO1001     0.0000 
     64 H52A      -19.8300   43.2630   -6.3500 H         1 ACO1001     0.0000 
     65 HOA2      -16.8520   40.9900   -9.2320 H         1 ACO1001     0.0000 
     66 HOA5      -19.2490   38.1860   -8.9250 H         1 ACO1001     0.0000 
     67 H121      -21.9240   37.4380   -6.2920 H         1 ACO1001     0.0000 
     68 H122      -22.0750   38.5220   -4.9190 H         1 ACO1001     0.0000 
     69 H131      -18.9170   36.3920   -5.8990 H         1 ACO1001     0.0000 
     70 H132      -20.4140   35.7100   -6.4530 H         1 ACO1001     0.0000 
     71 H133      -19.6180   35.0170   -5.0500 H         1 ACO1001     0.0000 
     72 H141      -22.2060   36.7450   -3.1030 H         1 ACO1001     0.0000 
     73 H142      -22.3860   35.6620   -4.4420 H         1 ACO1001     0.0000 
     74 H143      -21.1930   35.3120   -3.2580 H         1 ACO1001     0.0000 
     75 H10       -18.9610   38.2670   -4.3830 H         1 ACO1001     0.0000 
     76 HO1       -21.0210   38.2200   -2.4700 H         1 ACO1001     0.0000 
     77 HN8       -20.0000   36.9140   -1.2810 H         1 ACO1001     0.0000 
     78 H71       -18.4990   36.0970    0.3570 H         1 ACO1001     0.0000 
     79 H72       -17.2710   35.9770   -0.8520 H         1 ACO1001     0.0000 
     80 H61       -17.9490   33.6960   -0.2360 H         1 ACO1001     0.0000 
     81 H62       -18.4790   34.0040   -1.8560 H         1 ACO1001     0.0000 
     82 HN4       -20.5360   33.2250   -2.2060 H         1 ACO1001     0.0000 
     83 H31       -22.3060   32.7240    0.1470 H         1 ACO1001     0.0000 
     84 H32       -22.2480   31.8480   -1.3090 H         1 ACO1001     0.0000 
     85 H21       -23.2000   34.7560   -1.3040 H         1 ACO1001     0.0000 
     86 H22       -23.4500   33.5760   -2.5590 H         1 ACO1001     0.0000 
     87 HH31      -27.1180   31.4800   -0.5920 H         1 ACO1001     0.0000 
     88 HH32      -25.9430   30.4580    0.2180 H         1 ACO1001     0.0000 
     89 HH33      -26.5660   29.9820   -1.3420 H         1 ACO1001     0.0000 
@<TRIPOS>BOND
     1    1    2 ar   
     2    1    6 ar   
     3    2    3 ar   
     4    2   52 1    
     5    3    4 ar   
     6    4    5 ar   
     7    4   10 1    
     8    5    6 ar   
     9    5    8 1    
    10    6    7 1    
    11    7   53 1    
    12    7   54 1    
    13    8    9 2    
    14    9   10 1    
    15    9   55 1    
    16   10   11 1    
    17   11   12 1    
    18   11   21 1    
    19   11   56 1    
    20   12   13 1    
    21   12   14 1    
    22   12   57 1    
    23   13   58 1    
    24   14   15 1    
    25   14   20 1    
    26   14   59 1    
    27   15   16 1    
    28   16   17 ar   
    29   16   18 ar   
    30   16   19 ar   
    31   18   60 1    
    32   19   61 1    
    33   20   21 1    
    34   20   22 1    
    35   20   62 1    
    36   22   23 1    
    37   22   63 1    
    38   22   64 1    
    39   23   24 1    
    40   24   25 ar   
    41   24   26 ar   
    42   24   27 1    
    43   26   65 1    
    44   27   28 1    
    45   28   29 ar   
    46   28   30 ar   
    47   28   31 1    
    48   30   66 1    
    49   31   33 1    
    50   32   33 1    
    51   32   34 1    
    52   32   35 1    
    53   32   36 1    
    54   33   67 1    
    55   33   68 1    
    56   34   69 1    
    57   34   70 1    
    58   34   71 1    
    59   35   72 1    
    60   35   73 1    
    61   35   74 1    
    62   36   37 1    
    63   36   38 1    
    64   36   75 1    
    65   37   76 1    
    66   38   39 2    
    67   38   40 am   
    68   40   41 1    
    69   40   77 1    
    70   41   42 1    
    71   41   78 1    
    72   41   79 1    
    73   42   43 1    
    74   42   80 1    
    75   42   81 1    
    76   43   44 2    
    77   43   45 am   
    78   45   46 1    
    79   45   82 1    
    80   46   47 1    
    81   46   83 1    
    82   46   84 1    
    83   47   48 1    
    84   47   85 1    
    85   47   86 1    
    86   48   49 1    
    87   49   50 2    
    88   49   51 1    
    89   51   87 1    
    90   51   88 1    
    91   51   89 1    
@<TRIPOS>SUBSTRUCTURE
     1 ACO1001     1 GROUP   
@<TRIPOS>SET
ATOM$ORANGE STATIC     ATOMS   COLORGROUP SYSTEM 
46 2 2 4 4 5 5 6 6 9 9 11 11 12 12 14 14 20 \
20 22 22 32 32 33 33 34 34 35 35 36 36 38 38 41 41 42 \
42 43 43 46 46 47 47 49 49 51 51 

