#    Name: 6qcl_1_ACO_CAVITY_N1_ALL
#    Modification time : Fri May 22 19:34:14 2020

@<TRIPOS>MOLECULE
6qcl_1_ACO_CAVITY_N1_ALL
   77     0     6     0     0
SMALL
NO_CHARGES


@<TRIPOS>ATOM
      1 OG          7.7600   68.7900  -42.9800 O.3       1 SER1        0.0000 
      2 OG          9.0200   68.0300  -42.6700 O.3       1 SER1        0.0000 
      3 OG          6.9100   70.6200  -42.3100 O.3       1 SER1        0.0000 
      4 OG          8.1700   69.8600  -42.0000 O.3       1 SER1        0.0000 
      5 N          11.4600   61.1800  -47.7500 N.am      2 ALA2        0.0000 
      6 N          10.7800   65.2300  -49.5700 N.am      2 ALA2        0.0000 
      7 N          11.3200   63.7400  -48.1700 N.am      2 ALA2        0.0000 
      8 N          10.6100   63.0000  -47.0700 N.am      2 ALA2        0.0000 
      9 N           9.9000   62.2600  -45.9800 N.am      2 ALA2        0.0000 
     10 N          13.2900   63.7100  -48.9600 N.am      2 ALA2        0.0000 
     11 N          12.5800   62.9700  -47.8600 N.am      2 ALA2        0.0000 
     12 N          11.8700   62.2400  -46.7700 N.am      2 ALA2        0.0000 
     13 N          14.5500   62.9500  -48.6600 N.am      2 ALA2        0.0000 
     14 N          13.1300   61.4800  -46.4600 N.am      2 ALA2        0.0000 
     15 N           9.9300   67.0600  -48.9000 N.am      2 ALA2        0.0000 
     16 N          11.1900   66.2900  -48.5900 N.am      2 ALA2        0.0000 
     17 N           9.0500   64.0900  -45.3000 N.am      2 ALA2        0.0000 
     18 N          11.7300   64.8000  -47.1900 N.am      2 ALA2        0.0000 
     19 N          11.0200   64.0600  -46.1000 N.am      2 ALA2        0.0000 
     20 O          10.3100   63.3200  -45.0000 O.2       2 ALA2        0.0000 
     21 N          13.7000   64.7700  -47.9800 N.am      2 ALA2        0.0000 
     22 N          12.9900   64.0400  -46.8900 N.am      2 ALA2        0.0000 
     23 O          12.2800   63.3000  -45.7900 O.2       2 ALA2        0.0000 
     24 O          11.5600   62.5600  -44.6900 O.2       2 ALA2        0.0000 
     25 O           8.2000   65.9100  -44.6300 O.2       2 ALA2        0.0000 
     26 O          13.0200   68.8300  -49.8100 O.2       2 ALA2        0.0000 
     27 O          12.3000   68.0900  -48.7100 O.2       2 ALA2        0.0000 
     28 O          11.5900   67.3600  -47.6100 O.2       2 ALA2        0.0000 
     29 N          10.8800   66.6200  -46.5200 N.am      2 ALA2        0.0000 
     30 N          10.1700   65.8800  -45.4200 N.am      2 ALA2        0.0000 
     31 N           9.4600   65.1500  -44.3300 N.am      2 ALA2        0.0000 
     32 N          14.2700   68.0700  -49.5000 N.am      2 ALA2        0.0000 
     33 O          13.5600   67.3300  -48.4100 O.2       2 ALA2        0.0000 
     34 N          12.8500   66.6000  -47.3100 N.am      2 ALA2        0.0000 
     35 N          12.1400   65.8600  -46.2100 N.am      2 ALA2        0.0000 
     36 O          11.4300   65.1200  -45.1200 O.2       2 ALA2        0.0000 
     37 O          10.7100   64.3900  -44.0200 O.2       2 ALA2        0.0000 
     38 O           6.6400   67.0000  -42.8600 O.2       2 ALA2        0.0000 
     39 O           8.6100   66.9700  -43.6500 O.2       2 ALA2        0.0000 
     40 O           7.9000   66.2400  -42.5600 O.2       2 ALA2        0.0000 
     41 O          11.1200   65.4500  -43.0400 O.2       2 ALA2        0.0000 
     42 OD1        12.9100   67.4400  -52.8600 O.co2     3 ASP3        0.0000 
     43 OD1        11.3500   68.5300  -51.0900 O.co2     3 ASP3        0.0000 
     44 OD1        13.3200   68.5000  -51.8800 O.co2     3 ASP3        0.0000 
     45 OD1        13.7300   69.5700  -50.9000 O.co2     3 ASP3        0.0000 
     46 OD1         6.2000   69.8800  -41.2100 O.co2     3 ASP3        0.0000 
     47 OD1         7.4500   69.1200  -40.9000 O.co2     3 ASP3        0.0000 
     48 CZ          7.3500   67.7300  -43.9600 C.ar      4 PHE5        0.0000 
     49 CZ         10.5800   66.9500  -44.4400 C.ar      4 PHE5        0.0000 
     50 CZ          9.8700   66.2100  -43.3500 C.ar      4 PHE5        0.0000 
     51 CZ          6.5000   69.5600  -43.2800 C.ar      4 PHE5        0.0000 
     52 CZ          5.7900   68.8200  -42.1900 C.ar      4 PHE5        0.0000 
     53 CZ          7.0500   68.0600  -41.8800 C.ar      4 PHE5        0.0000 
     54 CZ         10.2700   67.2700  -42.3700 C.ar      4 PHE5        0.0000 
     55 CA         11.6300   63.4100  -50.2400 C.3       5 GLY6        0.0000 
     56 CA         12.8900   62.6500  -49.9400 C.3       5 GLY6        0.0000 
     57 CA         14.8500   62.6200  -50.7300 C.3       5 GLY6        0.0000 
     58 CA         14.1400   61.8900  -49.6300 C.3       5 GLY6        0.0000 
     59 CA         13.4300   61.1500  -48.5400 C.3       5 GLY6        0.0000 
     60 CA         10.2300   66.7300  -50.9700 C.3       5 GLY6        0.0000 
     61 CA         11.1600   61.5000  -45.6700 C.3       5 GLY6        0.0000 
     62 CA         10.6400   67.7900  -49.9900 C.3       5 GLY6        0.0000 
     63 CA         14.4100   65.5100  -49.0800 C.3       5 GLY6        0.0000 
     64 CA         11.0500   68.8500  -49.0100 C.3       5 GLY6        0.0000 
     65 CA          8.3000   67.3000  -41.5800 C.3       5 GLY6        0.0000 
     66 CA          7.5900   66.5600  -40.4800 C.3       5 GLY6        0.0000 
     67 CA          9.5600   66.5400  -41.2700 C.3       5 GLY6        0.0000 
     68 CA          8.7100   68.3600  -40.6000 C.3       5 GLY6        0.0000 
     69 DU         12.1700   61.9100  -48.8400 H         6 CUB7        0.0000 
     70 DU         11.4900   65.9700  -50.6700 H         6 CUB7        0.0000 
     71 DU         12.0400   64.4700  -49.2700 H         6 CUB7        0.0000 
     72 DU         14.0000   64.4500  -50.0600 H         6 CUB7        0.0000 
     73 DU         12.6100   67.7700  -50.7800 H         6 CUB7        0.0000 
     74 DU         11.9000   67.0300  -49.6900 H         6 CUB7        0.0000 
     75 DU         13.8700   67.0100  -50.4800 H         6 CUB7        0.0000 
     76 DU         13.1500   66.2700  -49.3800 H         6 CUB7        0.0000 
     77 DU         12.4400   65.5300  -48.2900 H         6 CUB7        0.0000 
@<TRIPOS>BOND
@<TRIPOS>SUBSTRUCTURE
     1 SER1        1 GROUP   
     2 ALA2        5 GROUP   
     3 ASP3       42 GROUP   
     4 PHE5       48 GROUP   
     5 GLY6       55 GROUP   
     6 CUB7       69 GROUP   
@<TRIPOS>SET

