#    Name: 6qcl_3_ACO
#    Modification time : Fri May 22 19:34:18 2020

@<TRIPOS>MOLECULE
6qcl_3_ACO
   89    91     1     0     1
SMALL
NO_CHARGES


@<TRIPOS>ATOM
      1 N1A        -2.3850   37.7990  -58.6440 N.ar      1 ACO1001     0.0000 
      2 C2A        -2.1050   36.6710  -57.9800 C.ar      1 ACO1001     0.0000 
      3 N3A        -2.8620   36.0140  -57.0900 N.ar      1 ACO1001     0.0000 
      4 C4A        -4.0260   36.6430  -56.8870 C.ar      1 ACO1001     0.0000 
      5 C5A        -4.4480   37.8180  -57.4940 C.ar      1 ACO1001     0.0000 
      6 C6A        -3.5740   38.4030  -58.4280 C.ar      1 ACO1001     0.0000 
      7 N6A        -3.8470   39.5350  -59.0810 N.pl3     1 ACO1001     0.0000 
      8 N7A        -5.6730   38.2170  -56.9890 N.2       1 ACO1001     0.0000 
      9 C8A        -5.9730   37.2830  -56.1230 C.2       1 ACO1001     0.0000 
     10 N9A        -5.0280   36.2960  -56.0150 N.pl3     1 ACO1001     0.0000 
     11 C1B        -5.1190   35.1140  -55.1700 C.3       1 ACO1001     0.0000 
     12 C2B        -4.6970   35.3920  -53.7280 C.3       1 ACO1001     0.0000 
     13 O2B        -3.3090   35.1190  -53.5830 O.3       1 ACO1001     0.0000 
     14 C3B        -5.5900   34.4080  -52.9790 C.3       1 ACO1001     0.0000 
     15 O3B        -5.0180   33.0890  -53.1160 O.3       1 ACO1001     0.0000 
     16 P3B        -5.1160   31.9780  -51.9190 P.3       1 ACO1001     0.0000 
     17 O7A        -6.4690   31.3710  -51.9600 O.co2     1 ACO1001     0.0000 
     18 O8A        -3.9810   31.0260  -52.2280 O.co2     1 ACO1001     0.0000 
     19 O9A        -4.8490   32.7280  -50.6410 O.co2     1 ACO1001     0.0000 
     20 C4B        -6.8860   34.4230  -53.7790 C.3       1 ACO1001     0.0000 
     21 O4B        -6.4820   34.7180  -55.1350 O.3       1 ACO1001     0.0000 
     22 C5B        -7.9110   35.4330  -53.3380 C.3       1 ACO1001     0.0000 
     23 O5B        -7.2630   36.7240  -53.2590 O.3       1 ACO1001     0.0000 
     24 P1A        -7.7070   37.8690  -52.1830 P.3       1 ACO1001     0.0000 
     25 O1A        -6.8490   39.0360  -52.3010 O.co2     1 ACO1001     0.0000 
     26 O2A        -7.8050   37.1910  -50.8620 O.co2     1 ACO1001     0.0000 
     27 O3A        -9.1840   38.1100  -52.6990 O.3       1 ACO1001     0.0000 
     28 P2A       -10.0240   39.3560  -53.2120 P.3       1 ACO1001     0.0000 
     29 O4A       -11.3800   38.8920  -53.6090 O.co2     1 ACO1001     0.0000 
     30 O5A       -10.0050   40.4500  -52.1670 O.co2     1 ACO1001     0.0000 
     31 O6A        -9.1930   39.7320  -54.5490 O.3       1 ACO1001     0.0000 
     32 CBP        -8.6420   41.7070  -55.8370 C.3       1 ACO1001     0.0000 
     33 CCP        -9.7250   40.7130  -55.4390 C.3       1 ACO1001     0.0000 
     34 CDP        -8.3910   42.6640  -54.6620 C.3       1 ACO1001     0.0000 
     35 CEP        -9.1430   42.5010  -57.0620 C.3       1 ACO1001     0.0000 
     36 CAP        -7.3420   40.9440  -56.1970 C.3       1 ACO1001     0.0000 
     37 OAP        -7.5810   39.9820  -57.2020 O.3       1 ACO1001     0.0000 
     38 C9P        -6.1790   41.8320  -56.5830 C.2       1 ACO1001     0.0000 
     39 O9P        -5.5560   42.4330  -55.7190 O.2       1 ACO1001     0.0000 
     40 N8P        -5.9680   42.0110  -57.8870 N.am      1 ACO1001     0.0000 
     41 C7P        -4.8800   42.8410  -58.3820 C.3       1 ACO1001     0.0000 
     42 C6P        -5.2670   44.3050  -58.3980 C.3       1 ACO1001     0.0000 
     43 C5P        -6.3300   44.5930  -59.4310 C.2       1 ACO1001     0.0000 
     44 O5P        -6.2000   44.2090  -60.5920 O.2       1 ACO1001     0.0000 
     45 N4P        -7.3850   45.3030  -59.0240 N.am      1 ACO1001     0.0000 
     46 C3P        -8.4660   45.7380  -59.9210 C.3       1 ACO1001     0.0000 
     47 C2P        -9.7330   44.8930  -59.8660 C.3       1 ACO1001     0.0000 
     48 S1P       -10.7860   45.3130  -61.3220 S.3       1 ACO1001     0.0000 
     49 C         -11.2990   46.9160  -60.7990 C.2       1 ACO1001     0.0000 
     50 O         -11.2680   47.2430  -59.6480 O.2       1 ACO1001     0.0000 
     51 CH3       -12.0320   47.6690  -61.8660 C.3       1 ACO1001     0.0000 
     52 H2A        -1.1340   36.2310  -58.1970 H         1 ACO1001     0.0000 
     53 H61A       -4.7040   40.0460  -58.8990 H         1 ACO1001     0.0000 
     54 H62A       -3.2340   39.8750  -59.8140 H         1 ACO1001     0.0000 
     55 H8A        -6.9040   37.2960  -55.5610 H         1 ACO1001     0.0000 
     56 H1B        -4.5500   34.3200  -55.6500 H         1 ACO1001     0.0000 
     57 H2B        -4.8660   36.4170  -53.4040 H         1 ACO1001     0.0000 
     58 HO2A       -2.8200   35.9840  -53.6080 H         1 ACO1001     0.0000 
     59 H3B        -5.7390   34.6790  -51.9350 H         1 ACO1001     0.0000 
     60 HOA8       -3.9850   30.1210  -51.8190 H         1 ACO1001     0.0000 
     61 HOA9       -4.0310   33.2440  -50.4150 H         1 ACO1001     0.0000 
     62 H4B        -7.3300   33.4300  -53.8500 H         1 ACO1001     0.0000 
     63 H51A       -8.6860   35.5680  -54.0900 H         1 ACO1001     0.0000 
     64 H52A       -8.4120   35.1320  -52.4190 H         1 ACO1001     0.0000 
     65 HOA2       -8.5810   36.6070  -50.6500 H         1 ACO1001     0.0000 
     66 HOA5       -9.3460   40.6610  -51.4530 H         1 ACO1001     0.0000 
     67 H121      -10.5580   41.2140  -54.9470 H         1 ACO1001     0.0000 
     68 H122      -10.1110   40.1840  -56.3080 H         1 ACO1001     0.0000 
     69 H131       -7.8050   42.1900  -53.8760 H         1 ACO1001     0.0000 
     70 H132       -9.3090   43.0110  -54.1880 H         1 ACO1001     0.0000 
     71 H133       -7.8590   43.5620  -54.9750 H         1 ACO1001     0.0000 
     72 H141       -8.4010   43.1930  -57.4580 H         1 ACO1001     0.0000 
     73 H142       -9.4720   41.8940  -57.9020 H         1 ACO1001     0.0000 
     74 H143      -10.0250   43.0980  -56.8270 H         1 ACO1001     0.0000 
     75 H10        -7.0610   40.3270  -55.3450 H         1 ACO1001     0.0000 
     76 HO1        -8.2950   40.2650  -57.8290 H         1 ACO1001     0.0000 
     77 HN8        -6.5700   41.5690  -58.5740 H         1 ACO1001     0.0000 
     78 H71        -4.5600   42.5250  -59.3740 H         1 ACO1001     0.0000 
     79 H72        -4.0070   42.6990  -57.7480 H         1 ACO1001     0.0000 
     80 H61        -4.4040   44.9330  -58.6080 H         1 ACO1001     0.0000 
     81 H62        -5.5950   44.5900  -57.4000 H         1 ACO1001     0.0000 
     82 HN4        -7.4740   45.5660  -58.0480 H         1 ACO1001     0.0000 
     83 H31        -8.1170   45.7980  -60.9500 H         1 ACO1001     0.0000 
     84 H32        -8.7040   46.7710  -59.6770 H         1 ACO1001     0.0000 
     85 H21       -10.2920   45.0460  -58.9450 H         1 ACO1001     0.0000 
     86 H22        -9.5070   43.8290  -59.9110 H         1 ACO1001     0.0000 
     87 HH31      -12.7890   47.0410  -62.3290 H         1 ACO1001     0.0000 
     88 HH32      -11.3480   47.9930  -62.6490 H         1 ACO1001     0.0000 
     89 HH33      -12.5130   48.5670  -61.4810 H         1 ACO1001     0.0000 
@<TRIPOS>BOND
     1    1    2 ar   
     2    1    6 ar   
     3    2    3 ar   
     4    2   52 1    
     5    3    4 ar   
     6    4    5 ar   
     7    4   10 1    
     8    5    6 ar   
     9    5    8 1    
    10    6    7 1    
    11    7   53 1    
    12    7   54 1    
    13    8    9 2    
    14    9   10 1    
    15    9   55 1    
    16   10   11 1    
    17   11   12 1    
    18   11   21 1    
    19   11   56 1    
    20   12   13 1    
    21   12   14 1    
    22   12   57 1    
    23   13   58 1    
    24   14   15 1    
    25   14   20 1    
    26   14   59 1    
    27   15   16 1    
    28   16   17 ar   
    29   16   18 ar   
    30   16   19 ar   
    31   18   60 1    
    32   19   61 1    
    33   20   21 1    
    34   20   22 1    
    35   20   62 1    
    36   22   23 1    
    37   22   63 1    
    38   22   64 1    
    39   23   24 1    
    40   24   25 ar   
    41   24   26 ar   
    42   24   27 1    
    43   26   65 1    
    44   27   28 1    
    45   28   29 ar   
    46   28   30 ar   
    47   28   31 1    
    48   30   66 1    
    49   31   33 1    
    50   32   33 1    
    51   32   34 1    
    52   32   35 1    
    53   32   36 1    
    54   33   67 1    
    55   33   68 1    
    56   34   69 1    
    57   34   70 1    
    58   34   71 1    
    59   35   72 1    
    60   35   73 1    
    61   35   74 1    
    62   36   37 1    
    63   36   38 1    
    64   36   75 1    
    65   37   76 1    
    66   38   39 2    
    67   38   40 am   
    68   40   41 1    
    69   40   77 1    
    70   41   42 1    
    71   41   78 1    
    72   41   79 1    
    73   42   43 1    
    74   42   80 1    
    75   42   81 1    
    76   43   44 2    
    77   43   45 am   
    78   45   46 1    
    79   45   82 1    
    80   46   47 1    
    81   46   83 1    
    82   46   84 1    
    83   47   48 1    
    84   47   85 1    
    85   47   86 1    
    86   48   49 1    
    87   49   50 2    
    88   49   51 1    
    89   51   87 1    
    90   51   88 1    
    91   51   89 1    
@<TRIPOS>SUBSTRUCTURE
     1 ACO1001     1 GROUP   
@<TRIPOS>SET
ATOM$ORANGE STATIC     ATOMS   COLORGROUP SYSTEM 
46 2 2 4 4 5 5 6 6 9 9 11 11 12 12 14 14 20 \
20 22 22 32 32 33 33 34 34 35 35 36 36 38 38 41 41 42 \
42 43 43 46 46 47 47 49 49 51 51 

