#    Name: 6qcl_4_ACO_CAVITY_N1_ALL
#    Modification time : Fri May 22 19:34:28 2020

@<TRIPOS>MOLECULE
6qcl_4_ACO_CAVITY_N1_ALL
   74     0     7     0     0
SMALL
NO_CHARGES


@<TRIPOS>ATOM
      1 OG        -27.0700   33.0100   -3.4100 O.3       1 SER1        0.0000 
      2 OG        -27.7900   32.2800   -2.3200 O.3       1 SER1        0.0000 
      3 OG        -25.8200   32.2500   -3.1100 O.3       1 SER1        0.0000 
      4 OG        -27.3800   33.3400   -1.3400 O.3       1 SER1        0.0000 
      5 O         -25.6800   29.6900   -2.6900 O.2       2 ALA2        0.0000 
      6 O         -24.5600   31.4900   -2.8100 O.2       2 ALA2        0.0000 
      7 O         -25.2700   30.7600   -1.7100 O.2       2 ALA2        0.0000 
      8 N         -22.0200   34.7600   -5.1200 N.am      2 ALA2        0.0000 
      9 N         -24.1600   32.5500   -1.8300 N.am      2 ALA2        0.0000 
     10 O         -22.1600   37.3200   -5.5400 O.2       2 ALA2        0.0000 
     11 N         -21.6100   35.8300   -4.1400 N.am      2 ALA2        0.0000 
     12 N         -22.3300   35.0900   -3.0400 N.am      2 ALA2        0.0000 
     13 O         -23.0400   34.3500   -1.9500 O.2       2 ALA2        0.0000 
     14 O         -23.7500   33.6200   -0.8500 O.2       2 ALA2        0.0000 
     15 N         -24.4600   32.8800    0.2500 N.am      2 ALA2        0.0000 
     16 N         -19.6500   35.8000   -4.9300 N.am      2 ALA2        0.0000 
     17 N         -21.7800   33.5900   -1.6400 N.am      2 ALA2        0.0000 
     18 O         -21.7500   38.3900   -4.5600 O.2       2 ALA2        0.0000 
     19 N         -21.9200   36.1500   -2.0700 N.am      2 ALA2        0.0000 
     20 N         -19.9500   36.1300   -2.8600 N.am      2 ALA2        0.0000 
     21 N         -20.6600   35.3900   -1.7600 N.am      2 ALA2        0.0000 
     22 O         -21.3700   34.6600   -0.6600 O.2       2 ALA2        0.0000 
     23 N         -18.7000   35.3700   -2.5500 N.am      2 ALA2        0.0000 
     24 N         -19.4100   34.6300   -1.4600 N.am      2 ALA2        0.0000 
     25 N         -18.1500   33.8700   -1.1500 N.am      2 ALA2        0.0000 
     26 N         -20.8000   37.9500   -2.1800 N.am      2 ALA2        0.0000 
     27 N         -18.8300   37.9300   -2.9800 N.am      2 ALA2        0.0000 
     28 N         -19.5400   37.1900   -1.8800 N.am      2 ALA2        0.0000 
     29 N         -18.2900   36.4300   -1.5800 N.am      2 ALA2        0.0000 
     30 N         -19.0000   35.6900   -0.4800 N.am      2 ALA2        0.0000 
     31 N         -18.4300   38.9900   -2.0000 N.am      2 ALA2        0.0000 
     32 N         -17.8800   37.4900   -0.6000 N.am      2 ALA2        0.0000 
     33 OD1       -28.5000   31.5400   -1.2200 O.co2     3 ASP3        0.0000 
     34 OD1       -20.7400   38.8000   -7.7300 O.co2     3 ASP3        0.0000 
     35 OD1       -21.4500   38.0600   -6.6400 O.co2     3 ASP3        0.0000 
     36 OD1       -19.4800   38.0400   -7.4300 O.co2     3 ASP3        0.0000 
     37 NZ        -24.8700   31.8200   -0.7300 N.4       4 LYS4        0.0000 
     38 NZ        -25.5800   31.0800    0.3600 N.4       4 LYS4        0.0000 
     39 NZ        -22.9000   31.7900   -1.5200 N.4       4 LYS4        0.0000 
     40 NZ        -22.4900   32.8600   -0.5500 N.4       4 LYS4        0.0000 
     41 CZ        -26.2300   31.1900   -4.0900 C.ar      5 PHE5        0.0000 
     42 CZ        -26.9400   30.4500   -2.9900 C.ar      5 PHE5        0.0000 
     43 CZ        -27.6500   29.7200   -1.9000 C.ar      5 PHE5        0.0000 
     44 CZ        -27.2400   30.7800   -0.9200 C.ar      5 PHE5        0.0000 
     45 CZ        -25.9900   30.0200   -0.6100 C.ar      5 PHE5        0.0000 
     46 CZ        -26.1200   32.5800   -1.0400 C.ar      5 PHE5        0.0000 
     47 CZ        -25.0100   34.3800   -1.1500 C.ar      5 PHE5        0.0000 
     48 CA        -22.5700   36.2600   -6.5200 C.3       6 GLY6        0.0000 
     49 CA        -26.8300   31.8400    0.0600 C.3       6 GLY6        0.0000 
     50 CA        -20.6000   36.2400   -7.3100 C.3       6 GLY6        0.0000 
     51 CA        -21.3100   35.5000   -6.2100 C.3       6 GLY6        0.0000 
     52 CA        -22.7000   38.8200   -6.9400 C.3       6 GLY6        0.0000 
     53 CA        -22.8700   36.5900   -4.4400 C.3       6 GLY6        0.0000 
     54 CA        -25.7200   33.6400   -0.0600 C.3       6 GLY6        0.0000 
     55 CA        -18.3900   35.0400   -4.6300 C.3       6 GLY6        0.0000 
     56 CA        -19.1000   34.3000   -3.5300 C.3       6 GLY6        0.0000 
     57 CA        -21.2100   36.8900   -3.1600 C.3       6 GLY6        0.0000 
     58 CA        -20.1200   33.8900   -0.3600 C.3       6 GLY6        0.0000 
     59 CA        -17.5800   37.1700   -2.6700 C.3       6 GLY6        0.0000 
     60 CA        -17.0300   35.6700   -1.2700 C.3       6 GLY6        0.0000 
     61 CA        -17.7400   34.9300   -0.1700 C.3       6 GLY6        0.0000 
     62 CA        -19.6800   39.7500   -2.3000 C.3       6 GLY6        0.0000 
     63 DU        -28.1900   31.2200   -3.3000 H         7 CUB7        0.0000 
     64 DU        -26.5300   31.5200   -2.0100 H         7 CUB7        0.0000 
     65 DU        -20.1900   37.3000   -6.3300 H         7 CUB7        0.0000 
     66 DU        -20.9000   36.5600   -5.2400 H         7 CUB7        0.0000 
     67 DU        -18.9400   36.5400   -6.0300 H         7 CUB7        0.0000 
     68 DU        -20.3300   39.8600   -6.7500 H         7 CUB7        0.0000 
     69 DU        -21.0400   39.1200   -5.6600 H         7 CUB7        0.0000 
     70 DU        -20.5000   37.6300   -4.2600 H         7 CUB7        0.0000 
     71 DU        -19.2400   36.8600   -3.9500 H         7 CUB7        0.0000 
     72 DU        -17.9800   36.1000   -3.6500 H         7 CUB7        0.0000 
     73 DU        -19.3800   39.4200   -4.3800 H         7 CUB7        0.0000 
     74 DU        -18.9700   40.4900   -3.4000 H         7 CUB7        0.0000 
@<TRIPOS>BOND
@<TRIPOS>SUBSTRUCTURE
     1 SER1        1 GROUP   
     2 ALA2        5 GROUP   
     3 ASP3       33 GROUP   
     4 LYS4       37 GROUP   
     5 PHE5       41 GROUP   
     6 GLY6       48 GROUP   
     7 CUB7       63 GROUP   
@<TRIPOS>SET

