#    Name: 5ys9_2_FAD
#    Modification time : Fri May 22 19:18:47 2020

@<TRIPOS>MOLECULE
5ys9_2_FAD
   53    58     1     0     1
SMALL
NO_CHARGES


@<TRIPOS>ATOM
      1 PA         46.1990    4.7530  -27.0180 P.3       1 FAD801      0.0000 
      2 O1A        46.4700    5.1990  -28.4040 O.co2     1 FAD801      0.0000 
      3 O2A        46.6020    3.4050  -26.5610 O.co2     1 FAD801      0.0000 
      4 O5B        46.8380    5.7290  -25.9590 O.3       1 FAD801      0.0000 
      5 C5B        46.5620    5.4500  -24.5950 C.3       1 FAD801      0.0000 
      6 C4B        47.5260    6.2310  -23.7430 C.3       1 FAD801      0.0000 
      7 O4B        48.8480    5.8090  -24.0480 O.3       1 FAD801      0.0000 
      8 C3B        47.4200    7.6860  -24.1210 C.3       1 FAD801      0.0000 
      9 O3B        47.4210    8.4900  -22.9580 O.3       1 FAD801      0.0000 
     10 C2B        48.6760    7.9750  -24.8830 C.3       1 FAD801      0.0000 
     11 O2B        49.1100    9.3020  -24.6110 O.3       1 FAD801      0.0000 
     12 C1B        49.6450    6.9240  -24.3920 C.3       1 FAD801      0.0000 
     13 N9A        50.4850    6.6180  -25.5500 N.pl3     1 FAD801      0.0000 
     14 C8A        50.1120    5.9080  -26.6180 C.2       1 FAD801      0.0000 
     15 N7A        51.1170    5.8470  -27.5100 N.2       1 FAD801      0.0000 
     16 C5A        52.1500    6.5400  -27.0190 C.ar      1 FAD801      0.0000 
     17 C6A        53.5150    6.8800  -27.4560 C.ar      1 FAD801      0.0000 
     18 N6A        54.0080    6.4540  -28.6320 N.pl3     1 FAD801      0.0000 
     19 N1A        54.2560    7.6300  -26.6330 N.ar      1 FAD801      0.0000 
     20 C2A        53.7850    8.0600  -25.4590 C.ar      1 FAD801      0.0000 
     21 N3A        52.5620    7.7960  -24.9970 N.ar      1 FAD801      0.0000 
     22 C4A        51.7190    7.0550  -25.7250 C.ar      1 FAD801      0.0000 
     23 N1         36.7570    6.1240  -32.8180 N.2       1 FAD801      0.0000 
     24 C2         36.1400    5.9450  -33.9940 C.2       1 FAD801      0.0000 
     25 O2         36.7550    5.3890  -34.8950 O.2       1 FAD801      0.0000 
     26 N3         34.9030    6.3550  -34.2360 N.am      1 FAD801      0.0000 
     27 C4         34.1840    6.9670  -33.3220 C.2       1 FAD801      0.0000 
     28 O4         33.0450    7.3270  -33.5780 O.2       1 FAD801      0.0000 
     29 C4X        34.7740    7.2040  -32.0030 C.2       1 FAD801      0.0000 
     30 N5         34.0970    7.8220  -31.0350 N.2       1 FAD801      0.0000 
     31 C5X        34.6540    8.0140  -29.8370 C.ar      1 FAD801      0.0000 
     32 C6         33.9110    8.6360  -28.8580 C.ar      1 FAD801      0.0000 
     33 C7         34.4590    8.8430  -27.6180 C.ar      1 FAD801      0.0000 
     34 C7M        33.6550    9.5310  -26.5620 C.3       1 FAD801      0.0000 
     35 C8         35.8370    8.3900  -27.3440 C.ar      1 FAD801      0.0000 
     36 C8M        36.4440    8.6120  -25.9980 C.3       1 FAD801      0.0000 
     37 C9         36.5810    7.7730  -28.3230 C.ar      1 FAD801      0.0000 
     38 C9A        36.0350    7.5590  -29.5660 C.ar      1 FAD801      0.0000 
     39 N10        36.7760    6.9270  -30.5760 N.pl3     1 FAD801      0.0000 
     40 C10        36.1470    6.7310  -31.8000 C.2       1 FAD801      0.0000 
     41 C1'        38.1410    6.4400  -30.3700 C.3       1 FAD801      0.0000 
     42 C2'        39.1880    7.5290  -30.1290 C.3       1 FAD801      0.0000 
     43 O2'        39.5950    8.1030  -31.3650 O.3       1 FAD801      0.0000 
     44 C3'        40.3990    6.9540  -29.3920 C.3       1 FAD801      0.0000 
     45 O3'        40.0750    6.8960  -28.0190 O.3       1 FAD801      0.0000 
     46 C4'        41.6800    7.7640  -29.5130 C.3       1 FAD801      0.0000 
     47 O4'        41.7810    8.2580  -30.8400 O.3       1 FAD801      0.0000 
     48 C5'        42.9280    6.9250  -29.2850 C.3       1 FAD801      0.0000 
     49 O5'        43.2250    6.6380  -27.9280 O.3       1 FAD801      0.0000 
     50 P          43.4090    5.1260  -27.4600 P.3       1 FAD801      0.0000 
     51 O1P        42.3160    4.7580  -26.5320 O.co2     1 FAD801      0.0000 
     52 O2P        43.6240    4.3050  -28.6680 O.co2     1 FAD801      0.0000 
     53 O3P        44.7100    5.0920  -26.5550 O.3       1 FAD801      0.0000 
@<TRIPOS>BOND
     1    1    2 ar   
     2    1    3 ar   
     3    1    4 1    
     4    1   53 1    
     5    4    5 1    
     6    5    6 1    
     7    6    7 1    
     8    6    8 1    
     9    7   12 1    
    10    8    9 1    
    11    8   10 1    
    12   10   11 1    
    13   10   12 1    
    14   12   13 1    
    15   13   14 1    
    16   13   22 1    
    17   14   15 2    
    18   15   16 1    
    19   16   17 ar   
    20   16   22 ar   
    21   17   18 1    
    22   17   19 ar   
    23   19   20 ar   
    24   20   21 ar   
    25   21   22 ar   
    26   23   24 1    
    27   23   40 2    
    28   24   25 2    
    29   24   26 am   
    30   26   27 am   
    31   27   28 2    
    32   27   29 1    
    33   29   30 2    
    34   29   40 1    
    35   30   31 1    
    36   31   32 ar   
    37   31   38 ar   
    38   32   33 ar   
    39   33   34 1    
    40   33   35 ar   
    41   35   36 1    
    42   35   37 ar   
    43   37   38 ar   
    44   38   39 1    
    45   39   40 1    
    46   39   41 1    
    47   41   42 1    
    48   42   43 1    
    49   42   44 1    
    50   44   45 1    
    51   44   46 1    
    52   46   47 1    
    53   46   48 1    
    54   48   49 1    
    55   49   50 1    
    56   50   51 ar   
    57   50   52 ar   
    58   50   53 1    
@<TRIPOS>SUBSTRUCTURE
     1 FAD801      1 GROUP   
@<TRIPOS>SET
ATOM$ORANGE STATIC     ATOMS   COLORGROUP SYSTEM 
54 5 5 6 6 8 8 10 10 12 12 14 14 16 16 17 17 20 \
20 22 22 24 24 27 27 29 29 31 31 32 32 33 33 34 34 35 \
35 36 36 37 37 38 38 40 40 41 41 42 42 44 44 46 46 48 \
48 

