#    Name: 6qlg_6_FMN_CAVITY_N1_ALL
#    Modification time : Fri May 22 19:29:26 2020

@<TRIPOS>MOLECULE
6qlg_6_FMN_CAVITY_N1_ALL
  109     0     6     0     0
SMALL
NO_CHARGES


@<TRIPOS>ATOM
      1 OG        -34.4700   -6.3300   28.9400 O.3       1 SER1        0.0000 
      2 OG        -33.4600   -5.2700   29.2600 O.3       1 SER1        0.0000 
      3 OG        -34.5600   -4.3000   29.5600 O.3       1 SER1        0.0000 
      4 OG        -34.5600   -3.8700   28.1200 O.3       1 SER1        0.0000 
      5 OG        -35.6600   -3.3300   29.8500 O.3       1 SER1        0.0000 
      6 OG        -35.6600   -2.9000   28.4100 O.3       1 SER1        0.0000 
      7 OG        -28.2000   -4.0500   29.6400 O.3       1 SER1        0.0000 
      8 OG        -28.2900   -1.5900   28.8100 O.3       1 SER1        0.0000 
      9 OG        -28.2900   -1.1600   27.3800 O.3       1 SER1        0.0000 
     10 OG        -26.1700   -1.0700   27.4000 O.3       1 SER1        0.0000 
     11 N         -29.9700  -11.8200   25.7300 N.am      2 ALA2        0.0000 
     12 N         -32.1700   -9.4400   24.8800 N.am      2 ALA2        0.0000 
     13 N         -33.2800   -8.9000   26.6100 N.am      2 ALA2        0.0000 
     14 N         -28.9500  -10.3300   24.6100 N.am      2 ALA2        0.0000 
     15 N         -31.1600   -8.8200   26.6300 N.am      2 ALA2        0.0000 
     16 N         -31.1600   -8.3900   25.2000 N.am      2 ALA2        0.0000 
     17 N         -32.2600   -7.8400   26.9200 N.am      2 ALA2        0.0000 
     18 N         -30.1400   -7.3300   25.5200 N.am      2 ALA2        0.0000 
     19 N         -31.2500   -7.2200   28.6800 N.am      2 ALA2        0.0000 
     20 N         -31.2500   -6.7900   27.2400 N.am      2 ALA2        0.0000 
     21 N         -31.2500   -6.3600   25.8100 N.am      2 ALA2        0.0000 
     22 N         -31.2500   -5.9200   24.3700 N.am      2 ALA2        0.0000 
     23 N         -32.3500   -6.6800   30.4100 N.am      2 ALA2        0.0000 
     24 N         -32.3500   -6.2500   28.9700 N.am      2 ALA2        0.0000 
     25 N         -32.3500   -5.8200   27.5400 N.am      2 ALA2        0.0000 
     26 N         -33.4600   -4.8400   27.8300 N.am      2 ALA2        0.0000 
     27 O         -34.5600   -3.4400   26.6800 O.2       2 ALA2        0.0000 
     28 N         -30.2300   -6.1600   29.0000 N.am      2 ALA2        0.0000 
     29 N         -31.3400   -5.6200   30.7300 N.am      2 ALA2        0.0000 
     30 N         -31.3400   -5.1900   29.2900 N.am      2 ALA2        0.0000 
     31 N         -31.3400   -4.7600   27.8500 N.am      2 ALA2        0.0000 
     32 N         -31.3300   -4.3300   26.4200 N.am      2 ALA2        0.0000 
     33 O         -32.4400   -3.3500   26.7100 O.2       2 ALA2        0.0000 
     34 N         -29.2200   -5.1100   29.3200 N.am      2 ALA2        0.0000 
     35 N         -30.3200   -4.1300   29.6100 N.am      2 ALA2        0.0000 
     36 O         -29.3100   -3.0800   29.9300 O.2       2 ALA2        0.0000 
     37 OD1       -29.0400   -8.3000   25.2200 O.co2     3 ASP3        0.0000 
     38 OD1       -29.1300   -6.2700   25.8300 O.co2     3 ASP3        0.0000 
     39 OD1       -29.1300   -5.8400   24.4000 O.co2     3 ASP3        0.0000 
     40 OD1       -29.1200   -5.4100   22.9600 O.co2     3 ASP3        0.0000 
     41 OD1       -30.2300   -5.3000   26.1300 O.co2     3 ASP3        0.0000 
     42 OD1       -30.2300   -4.8700   24.6900 O.co2     3 ASP3        0.0000 
     43 OD1       -30.2300   -4.4300   23.2500 O.co2     3 ASP3        0.0000 
     44 OD1       -29.2100   -3.8100   25.0100 O.co2     3 ASP3        0.0000 
     45 OD1       -29.2100   -3.3800   23.5700 O.co2     3 ASP3        0.0000 
     46 OD1       -30.3200   -2.4100   23.8600 O.co2     3 ASP3        0.0000 
     47 OD1       -28.2000   -2.7500   25.3300 O.co2     3 ASP3        0.0000 
     48 OD1       -29.3000   -1.7800   25.6200 O.co2     3 ASP3        0.0000 
     49 OD1       -27.1800   -1.7000   25.6500 O.co2     3 ASP3        0.0000 
     50 OD1       -26.1700   -0.6400   25.9700 O.co2     3 ASP3        0.0000 
     51 CZ        -32.0900  -11.9000   25.7000 C.ar      4 PHE5        0.0000 
     52 CZ        -32.1800  -10.3100   27.7500 C.ar      4 PHE5        0.0000 
     53 CZ        -33.3700   -7.3000   28.6500 C.ar      4 PHE5        0.0000 
     54 CZ        -34.4700   -6.7600   30.3800 C.ar      4 PHE5        0.0000 
     55 CZ        -33.4600   -5.7100   30.7000 C.ar      4 PHE5        0.0000 
     56 CZ        -34.5600   -4.7300   30.9900 C.ar      4 PHE5        0.0000 
     57 CZ        -32.4400   -4.6500   31.0200 C.ar      4 PHE5        0.0000 
     58 CZ        -33.5500   -3.6800   31.3100 C.ar      4 PHE5        0.0000 
     59 CZ        -34.6500   -2.7000   31.6000 C.ar      4 PHE5        0.0000 
     60 CZ        -31.4300   -3.5900   31.3400 C.ar      4 PHE5        0.0000 
     61 CZ        -31.4200   -2.7300   28.4700 C.ar      4 PHE5        0.0000 
     62 CZ        -31.4200   -2.3000   27.0300 C.ar      4 PHE5        0.0000 
     63 CZ        -32.5300   -2.1900   30.1900 C.ar      4 PHE5        0.0000 
     64 CZ        -32.5300   -1.7600   28.7600 C.ar      4 PHE5        0.0000 
     65 CZ        -32.5300   -1.3200   27.3200 C.ar      4 PHE5        0.0000 
     66 CZ        -29.3000   -2.2100   27.0600 C.ar      4 PHE5        0.0000 
     67 CZ        -30.4100   -2.1100   30.2200 C.ar      4 PHE5        0.0000 
     68 CZ        -30.4100   -1.6700   28.7800 C.ar      4 PHE5        0.0000 
     69 CZ        -30.4100   -1.2400   27.3500 C.ar      4 PHE5        0.0000 
     70 CZ        -30.4000   -0.8100   25.9100 C.ar      4 PHE5        0.0000 
     71 CZ        -31.5100   -1.1300   30.5100 C.ar      4 PHE5        0.0000 
     72 CZ        -28.2800   -0.7200   25.9400 C.ar      4 PHE5        0.0000 
     73 CZ        -29.3900   -1.0500   30.5400 C.ar      4 PHE5        0.0000 
     74 CZ        -29.3900   -0.6200   29.1000 C.ar      4 PHE5        0.0000 
     75 CA        -32.0900  -11.4700   24.2700 C.3       5 GLY6        0.0000 
     76 CA        -33.1900  -10.9300   25.9900 C.3       5 GLY6        0.0000 
     77 CA        -29.9700  -11.3900   24.2900 C.3       5 GLY6        0.0000 
     78 CA        -31.0700  -11.2800   27.4600 C.3       5 GLY6        0.0000 
     79 CA        -31.0700  -10.8500   26.0200 C.3       5 GLY6        0.0000 
     80 CA        -31.0700  -10.4200   24.5900 C.3       5 GLY6        0.0000 
     81 CA        -32.1800   -9.8700   26.3100 C.3       5 GLY6        0.0000 
     82 CA        -28.9500  -10.7600   26.0500 C.3       5 GLY6        0.0000 
     83 CA        -30.0600   -9.7900   26.3400 C.3       5 GLY6        0.0000 
     84 CA        -32.2700   -8.2800   28.3600 C.3       5 GLY6        0.0000 
     85 CA        -29.0400   -8.7300   26.6600 C.3       5 GLY6        0.0000 
     86 CA        -30.1500   -8.1900   28.3900 C.3       5 GLY6        0.0000 
     87 CA        -30.1400   -6.9000   24.0800 C.3       5 GLY6        0.0000 
     88 CA        -31.2400   -5.4900   22.9300 C.3       5 GLY6        0.0000 
     89 CA        -31.3300   -3.8900   24.9800 C.3       5 GLY6        0.0000 
     90 CA        -31.3300   -3.4600   23.5500 C.3       5 GLY6        0.0000 
     91 CA        -33.5400   -2.3800   27.0000 C.3       5 GLY6        0.0000 
     92 CA        -34.6500   -2.2700   30.1700 C.3       5 GLY6        0.0000 
     93 CA        -34.6500   -1.8400   28.7300 C.3       5 GLY6        0.0000 
     94 CA        -31.4200   -1.8600   25.5900 C.3       5 GLY6        0.0000 
     95 CA        -33.6300   -1.2200   30.4900 C.3       5 GLY6        0.0000 
     96 CA        -27.1800   -2.5600   28.5200 C.3       5 GLY6        0.0000 
     97 CA        -28.2900   -2.0200   30.2500 C.3       5 GLY6        0.0000 
     98 DU        -30.0600   -9.3600   24.9000 H         6 CUB7        0.0000 
     99 DU        -30.1400   -7.7600   26.9500 H         6 CUB7        0.0000 
    100 DU        -30.2300   -5.7300   27.5600 H         6 CUB7        0.0000 
    101 DU        -32.4400   -4.2200   29.5800 H         6 CUB7        0.0000 
    102 DU        -32.4400   -3.7900   28.1500 H         6 CUB7        0.0000 
    103 DU        -33.5400   -3.2500   29.8700 H         6 CUB7        0.0000 
    104 DU        -33.5400   -2.8100   28.4400 H         6 CUB7        0.0000 
    105 DU        -30.3200   -3.7000   28.1700 H         6 CUB7        0.0000 
    106 DU        -30.3200   -3.2700   26.7400 H         6 CUB7        0.0000 
    107 DU        -30.3200   -2.8400   25.3000 H         6 CUB7        0.0000 
    108 DU        -31.4200   -3.1600   29.9000 H         6 CUB7        0.0000 
    109 DU        -29.3000   -2.6500   28.4900 H         6 CUB7        0.0000 
@<TRIPOS>BOND
@<TRIPOS>SUBSTRUCTURE
     1 SER1        1 GROUP   
     2 ALA2       11 GROUP   
     3 ASP3       37 GROUP   
     4 PHE5       51 GROUP   
     5 GLY6       75 GROUP   
     6 CUB7       98 GROUP   
@<TRIPOS>SET

