#    Name: 6qlg_4_FMN
#    Modification time : Fri May 22 19:29:09 2020

@<TRIPOS>MOLECULE
6qlg_4_FMN
   31    33     1     0     1
SMALL
NO_CHARGES


@<TRIPOS>ATOM
      1 N1         -3.5890   15.0340    0.4820 N.2       1 FMN302      0.0000 
      2 C2         -2.9240   13.8320    0.3610 C.2       1 FMN302      0.0000 
      3 O2         -3.5640   12.7980    0.1780 O.2       1 FMN302      0.0000 
      4 N3         -1.5460   13.7880    0.4440 N.am      1 FMN302      0.0000 
      5 C4         -0.8270   14.9480    0.6480 C.2       1 FMN302      0.0000 
      6 O4          0.4000   14.9070    0.7210 O.2       1 FMN302      0.0000 
      7 C4A        -1.4940   16.1610    0.7720 C.2       1 FMN302      0.0000 
      8 N5         -0.7830   17.3260    0.9740 N.2       1 FMN302      0.0000 
      9 C5A        -1.4520   18.5270    1.0960 C.ar      1 FMN302      0.0000 
     10 C6         -0.7360   19.7010    1.3020 C.ar      1 FMN302      0.0000 
     11 C7         -1.4070   20.9130    1.4240 C.ar      1 FMN302      0.0000 
     12 C7M        -0.6290   22.1770    1.6470 C.3       1 FMN302      0.0000 
     13 C8         -2.7950   20.9500    1.3390 C.ar      1 FMN302      0.0000 
     14 C8M        -3.5270   22.2540    1.4720 C.3       1 FMN302      0.0000 
     15 C9         -3.5100   19.7750    1.1360 C.ar      1 FMN302      0.0000 
     16 C9A        -2.8390   18.5630    1.0130 C.ar      1 FMN302      0.0000 
     17 N10        -3.5500   17.3990    0.8010 N.pl3     1 FMN302      0.0000 
     18 C10        -2.8800   16.1990    0.6880 C.2       1 FMN302      0.0000 
     19 C1'        -5.0490   17.4290    0.7260 C.3       1 FMN302      0.0000 
     20 C2'        -5.5910   17.4410   -0.6970 C.3       1 FMN302      0.0000 
     21 O2'        -5.1780   18.6170   -1.3570 O.3       1 FMN302      0.0000 
     22 C3'        -7.1130   17.3850   -0.6250 C.3       1 FMN302      0.0000 
     23 O3'        -7.5220   16.1070   -0.1810 O.3       1 FMN302      0.0000 
     24 C4'        -7.7930   17.7130   -1.9510 C.3       1 FMN302      0.0000 
     25 O4'        -9.1850   17.5530   -1.7920 O.3       1 FMN302      0.0000 
     26 C5'        -7.3210   16.8250   -3.0960 C.3       1 FMN302      0.0000 
     27 O5'        -7.8700   17.3480   -4.2850 O.3       1 FMN302      0.0000 
     28 P          -7.3890   16.8450   -5.7350 P.3       1 FMN302      0.0000 
     29 O1P        -8.5710   16.8970   -6.6730 O.co2     1 FMN302      0.0000 
     30 O2P        -6.2860   17.7530   -6.2190 O.co2     1 FMN302      0.0000 
     31 O3P        -6.8770   15.4260   -5.6630 O.co2     1 FMN302      0.0000 
@<TRIPOS>BOND
     1    1    2 1    
     2    1   18 2    
     3    2    3 2    
     4    2    4 am   
     5    4    5 am   
     6    5    6 2    
     7    5    7 1    
     8    7    8 2    
     9    7   18 1    
    10    8    9 1    
    11    9   10 ar   
    12    9   16 ar   
    13   10   11 ar   
    14   11   12 1    
    15   11   13 ar   
    16   13   14 1    
    17   13   15 ar   
    18   15   16 ar   
    19   16   17 1    
    20   17   18 1    
    21   17   19 1    
    22   19   20 1    
    23   20   21 1    
    24   20   22 1    
    25   22   23 1    
    26   22   24 1    
    27   24   25 1    
    28   24   26 1    
    29   26   27 1    
    30   27   28 1    
    31   28   29 ar   
    32   28   30 ar   
    33   28   31 ar   
@<TRIPOS>SUBSTRUCTURE
     1 FMN302      1 GROUP   
@<TRIPOS>SET
ATOM$ORANGE STATIC     ATOMS   COLORGROUP SYSTEM 
34 2 2 5 5 7 7 9 9 10 10 11 11 12 12 13 13 14 \
14 15 15 16 16 18 18 19 19 20 20 22 22 24 24 26 26 

