#    Name: 6qlg_3_FMN
#    Modification time : Fri May 22 19:29:03 2020

@<TRIPOS>MOLECULE
6qlg_3_FMN
   31    33     1     0     1
SMALL
NO_CHARGES


@<TRIPOS>ATOM
      1 N1          8.6040  -19.0590   19.5760 N.2       1 FMN303      0.0000 
      2 C2          7.2680  -19.4060   19.5400 C.2       1 FMN303      0.0000 
      3 O2          6.6060  -19.1860   18.5260 O.2       1 FMN303      0.0000 
      4 N3          6.6740  -19.9940   20.6380 N.am      1 FMN303      0.0000 
      5 C4          7.4130  -20.2400   21.7790 C.2       1 FMN303      0.0000 
      6 O4          6.8830  -20.7670   22.7580 O.2       1 FMN303      0.0000 
      7 C4A         8.7580  -19.8930   21.8170 C.2       1 FMN303      0.0000 
      8 N5          9.5010  -20.1380   22.9520 N.2       1 FMN303      0.0000 
      9 C5A        10.8370  -19.7920   22.9880 C.ar      1 FMN303      0.0000 
     10 C6         11.5810  -20.0420   24.1360 C.ar      1 FMN303      0.0000 
     11 C7         12.9260  -19.6980   24.1840 C.ar      1 FMN303      0.0000 
     12 C7M        13.7230  -19.9710   25.4270 C.3       1 FMN303      0.0000 
     13 C8         13.5290  -19.1060   23.0790 C.ar      1 FMN303      0.0000 
     14 C8M        14.9820  -18.7320   23.1300 C.3       1 FMN303      0.0000 
     15 C9         12.7840  -18.8560   21.9290 C.ar      1 FMN303      0.0000 
     16 C9A        11.4360  -19.1980   21.8810 C.ar      1 FMN303      0.0000 
     17 N10        10.6930  -18.9590   20.7400 N.pl3     1 FMN303      0.0000 
     18 C10         9.3540  -19.2990   20.7090 C.2       1 FMN303      0.0000 
     19 C1'        11.3230  -18.3010   19.5450 C.3       1 FMN303      0.0000 
     20 C2'        11.7640  -19.2870   18.4750 C.3       1 FMN303      0.0000 
     21 O2'        12.7660  -20.1240   19.0010 O.3       1 FMN303      0.0000 
     22 C3'        12.2980  -18.5020   17.2780 C.3       1 FMN303      0.0000 
     23 O3'        11.2410  -17.7990   16.6600 O.3       1 FMN303      0.0000 
     24 C4'        12.9970  -19.3780   16.2430 C.3       1 FMN303      0.0000 
     25 O4'        13.2510  -18.6010   15.0920 O.3       1 FMN303      0.0000 
     26 C5'        12.1750  -20.5960   15.8350 C.3       1 FMN303      0.0000 
     27 O5'        13.0110  -21.3950   15.0270 O.3       1 FMN303      0.0000 
     28 P          12.6230  -22.8960   14.6090 P.3       1 FMN303      0.0000 
     29 O1P        13.3440  -23.2180   13.3220 O.co2     1 FMN303      0.0000 
     30 O2P        13.0490  -23.8430   15.7060 O.co2     1 FMN303      0.0000 
     31 O3P        11.1320  -23.0110   14.3850 O.co2     1 FMN303      0.0000 
@<TRIPOS>BOND
     1    1    2 1    
     2    1   18 2    
     3    2    3 2    
     4    2    4 am   
     5    4    5 am   
     6    5    6 2    
     7    5    7 1    
     8    7    8 2    
     9    7   18 1    
    10    8    9 1    
    11    9   10 ar   
    12    9   16 ar   
    13   10   11 ar   
    14   11   12 1    
    15   11   13 ar   
    16   13   14 1    
    17   13   15 ar   
    18   15   16 ar   
    19   16   17 1    
    20   17   18 1    
    21   17   19 1    
    22   19   20 1    
    23   20   21 1    
    24   20   22 1    
    25   22   23 1    
    26   22   24 1    
    27   24   25 1    
    28   24   26 1    
    29   26   27 1    
    30   27   28 1    
    31   28   29 ar   
    32   28   30 ar   
    33   28   31 ar   
@<TRIPOS>SUBSTRUCTURE
     1 FMN303      1 GROUP   
@<TRIPOS>SET
ATOM$ORANGE STATIC     ATOMS   COLORGROUP SYSTEM 
34 2 2 5 5 7 7 9 9 10 10 11 11 12 12 13 13 14 \
14 15 15 16 16 18 18 19 19 20 20 22 22 24 24 26 26 

