#    Name: 6qlg_1_FMN_CAVITY_N1_8
#    Modification time : Fri May 22 19:28:56 2020

@<TRIPOS>MOLECULE
6qlg_1_FMN_CAVITY_N1_8
  119     0     7     0     0
SMALL
NO_CHARGES


@<TRIPOS>ATOM
      1 OG        -15.3700  -33.1500   28.7200 O.3       1 SER1        0.0000 
      2 OG        -16.4700  -31.7500   27.5800 O.3       1 SER1        0.0000 
      3 OG        -11.0400  -34.1500   25.2900 O.3       1 SER1        0.0000 
      4 OG        -12.1400  -33.6100   27.0200 O.3       1 SER1        0.0000 
      5 OG        -12.1400  -33.1800   25.5800 O.3       1 SER1        0.0000 
      6 OG        -13.2500  -32.6400   27.3100 O.3       1 SER1        0.0000 
      7 OG        -17.6700  -30.0400   32.7900 O.3       1 SER1        0.0000 
      8 OG        -10.0200  -33.1000   25.6100 O.3       1 SER1        0.0000 
      9 OG        -15.5500  -29.9600   32.8200 O.3       1 SER1        0.0000 
     10 OG        -18.8500  -25.3100   27.9500 O.3       1 SER1        0.0000 
     11 OG        -18.8500  -24.8800   26.5100 O.3       1 SER1        0.0000 
     12 OG        -19.9600  -24.3400   28.2400 O.3       1 SER1        0.0000 
     13 N         -17.4900  -33.6700   30.1300 N.am      2 ALA2        0.0000 
     14 N         -15.3700  -32.7200   27.2800 N.am      2 ALA2        0.0000 
     15 N         -16.4700  -32.6100   30.4500 N.am      2 ALA2        0.0000 
     16 N         -16.4700  -32.1800   29.0100 N.am      2 ALA2        0.0000 
     17 N         -17.5800  -31.6400   30.7400 N.am      2 ALA2        0.0000 
     18 N         -17.5800  -31.2100   29.3000 N.am      2 ALA2        0.0000 
     19 N         -17.5700  -30.7800   27.8700 N.am      2 ALA2        0.0000 
     20 N         -18.6800  -30.6700   31.0300 N.am      2 ALA2        0.0000 
     21 N         -18.6800  -30.2400   29.6000 N.am      2 ALA2        0.0000 
     22 N         -18.6800  -29.8000   28.1600 N.am      2 ALA2        0.0000 
     23 N         -16.5600  -30.5800   31.0600 N.am      2 ALA2        0.0000 
     24 N         -16.5600  -30.1500   29.6200 N.am      2 ALA2        0.0000 
     25 N         -16.5600  -29.7200   28.1900 N.am      2 ALA2        0.0000 
     26 N         -17.6700  -29.6100   31.3500 N.am      2 ALA2        0.0000 
     27 N         -17.6600  -29.1800   29.9200 N.am      2 ALA2        0.0000 
     28 N         -17.6600  -28.7500   28.4800 N.am      2 ALA2        0.0000 
     29 N         -18.7700  -28.2100   30.2100 N.am      2 ALA2        0.0000 
     30 N         -18.7700  -27.7700   28.7700 N.am      2 ALA2        0.0000 
     31 N         -14.4400  -30.0700   29.6500 N.am      2 ALA2        0.0000 
     32 N         -15.5500  -29.5300   31.3800 N.am      2 ALA2        0.0000 
     33 N         -15.5400  -29.1000   29.9400 N.am      2 ALA2        0.0000 
     34 N         -15.5400  -28.6600   28.5100 N.am      2 ALA2        0.0000 
     35 N         -16.6400  -27.2600   27.3600 N.am      2 ALA2        0.0000 
     36 N         -17.7500  -26.2800   27.6500 N.am      2 ALA2        0.0000 
     37 O         -13.4300  -29.4400   31.4100 O.2       2 ALA2        0.0000 
     38 O         -13.4200  -29.0100   29.9700 O.2       2 ALA2        0.0000 
     39 O         -13.4200  -28.5800   28.5300 O.2       2 ALA2        0.0000 
     40 N         -14.5300  -28.4700   31.7000 N.am      2 ALA2        0.0000 
     41 N         -14.5300  -27.6100   28.8300 N.am      2 ALA2        0.0000 
     42 N         -15.6300  -26.2000   27.6800 N.am      2 ALA2        0.0000 
     43 N         -12.4100  -27.0900   27.4200 N.am      2 ALA2        0.0000 
     44 OD1       -17.5700  -30.3400   26.4300 O.co2     3 ASP3        0.0000 
     45 OD1       -18.6800  -29.3700   26.7200 O.co2     3 ASP3        0.0000 
     46 OD1       -12.1400  -32.7500   24.1500 O.co2     3 ASP3        0.0000 
     47 OD1       -13.2500  -32.2100   25.8800 O.co2     3 ASP3        0.0000 
     48 OD1       -14.3500  -31.6700   27.6000 O.co2     3 ASP3        0.0000 
     49 OD1       -15.4600  -30.6900   27.9000 O.co2     3 ASP3        0.0000 
     50 OD1       -16.5600  -29.2900   26.7500 O.co2     3 ASP3        0.0000 
     51 OD1       -17.6600  -28.3100   27.0400 O.co2     3 ASP3        0.0000 
     52 OD1        -8.9200  -34.0700   25.3200 O.co2     3 ASP3        0.0000 
     53 OD1       -10.0200  -32.6600   24.1700 O.co2     3 ASP3        0.0000 
     54 OD1       -11.1300  -32.1200   25.9000 O.co2     3 ASP3        0.0000 
     55 OD1       -12.2300  -31.1500   26.1900 O.co2     3 ASP3        0.0000 
     56 OD1       -13.3300  -30.1800   26.4900 O.co2     3 ASP3        0.0000 
     57 OD1       -14.4400  -29.2000   26.7800 O.co2     3 ASP3        0.0000 
     58 OD1       -15.5400  -28.2300   27.0700 O.co2     3 ASP3        0.0000 
     59 OD1       -15.5400  -27.8000   25.6300 O.co2     3 ASP3        0.0000 
     60 OD1       -21.0600  -23.3700   28.5300 O.co2     3 ASP3        0.0000 
     61 OD1        -9.0100  -32.0400   25.9300 O.co2     3 ASP3        0.0000 
     62 OD1       -11.2200  -30.5300   27.9500 O.co2     3 ASP3        0.0000 
     63 OD1       -12.3200  -29.1200   26.8100 O.co2     3 ASP3        0.0000 
     64 OD1       -13.4200  -28.1500   27.1000 O.co2     3 ASP3        0.0000 
     65 OD1       -11.3000  -28.0600   27.1200 O.co2     3 ASP3        0.0000 
     66 NZ        -11.1300  -31.6900   24.4700 N.4       4 LYS4        0.0000 
     67 NZ        -12.2300  -30.7200   24.7600 N.4       4 LYS4        0.0000 
     68 NZ        -12.3200  -28.6900   25.3700 N.4       4 LYS4        0.0000 
     69 NZ        -13.4300  -29.8800   32.8400 N.4       4 LYS4        0.0000 
     70 NZ        -13.4200  -27.7200   25.6600 N.4       4 LYS4        0.0000 
     71 CZ        -14.2700  -34.5600   29.8700 C.ar      5 PHE5        0.0000 
     72 CZ        -15.3700  -34.0200   31.5900 C.ar      5 PHE5        0.0000 
     73 CZ        -15.3700  -33.5900   30.1600 C.ar      5 PHE5        0.0000 
     74 CZ        -16.4800  -33.0500   31.8900 C.ar      5 PHE5        0.0000 
     75 CZ        -17.5800  -32.0700   32.1800 C.ar      5 PHE5        0.0000 
     76 CZ        -18.6800  -31.1000   32.4700 C.ar      5 PHE5        0.0000 
     77 CZ        -13.2500  -33.9400   31.6200 C.ar      5 PHE5        0.0000 
     78 CZ        -13.2500  -33.5000   30.1800 C.ar      5 PHE5        0.0000 
     79 CZ        -13.2500  -33.0700   28.7500 C.ar      5 PHE5        0.0000 
     80 CZ        -14.3600  -33.4000   33.3500 C.ar      5 PHE5        0.0000 
     81 CZ        -14.3500  -32.5300   30.4800 C.ar      5 PHE5        0.0000 
     82 CZ        -15.4600  -32.4200   33.6400 C.ar      5 PHE5        0.0000 
     83 CZ        -16.5600  -31.0200   32.5000 C.ar      5 PHE5        0.0000 
     84 CZ        -20.9700  -25.8300   29.3500 C.ar      5 PHE5        0.0000 
     85 CZ        -11.1300  -32.5600   27.3400 C.ar      5 PHE5        0.0000 
     86 CZ        -12.2300  -31.5800   27.6300 C.ar      5 PHE5        0.0000 
     87 CZ        -13.3400  -31.4700   30.8000 C.ar      5 PHE5        0.0000 
     88 CZ        -13.3400  -31.0400   29.3600 C.ar      5 PHE5        0.0000 
     89 CA        -14.2700  -34.1300   28.4300 C.3       6 GLY6        0.0000 
     90 CA        -14.2600  -33.7000   26.9900 C.3       6 GLY6        0.0000 
     91 CA        -14.2600  -33.2600   25.5600 C.3       6 GLY6        0.0000 
     92 CA        -19.7800  -29.2600   29.8900 C.3       6 GLY6        0.0000 
     93 CA        -19.7800  -28.8300   28.4500 C.3       6 GLY6        0.0000 
     94 CA        -19.7800  -28.4000   27.0200 C.3       6 GLY6        0.0000 
     95 CA        -20.8900  -27.8600   28.7400 C.3       6 GLY6        0.0000 
     96 CA        -20.8800  -27.4200   27.3100 C.3       6 GLY6        0.0000 
     97 CA        -14.3600  -32.9600   31.9100 C.3       6 GLY6        0.0000 
     98 CA        -19.8700  -26.8000   29.0600 C.3       6 GLY6        0.0000 
     99 CA        -19.8700  -25.9400   26.1900 C.3       6 GLY6        0.0000 
    100 CA        -13.3400  -31.9100   32.2300 C.3       6 GLY6        0.0000 
    101 CA        -14.4400  -31.3700   33.9600 C.3       6 GLY6        0.0000 
    102 CA        -14.4400  -30.9300   32.5200 C.3       6 GLY6        0.0000 
    103 CA        -18.8500  -25.7400   29.3800 C.3       6 GLY6        0.0000 
    104 CA        -19.9600  -24.7700   29.6700 C.3       6 GLY6        0.0000 
    105 CA        -19.9500  -23.9100   26.8000 C.3       6 GLY6        0.0000 
    106 CA        -12.3200  -29.9900   29.6800 C.3       6 GLY6        0.0000 
    107 CA        -12.3200  -29.5500   28.2400 C.3       6 GLY6        0.0000 
    108 CA        -14.5300  -27.1700   27.3900 C.3       6 GLY6        0.0000 
    109 CA        -14.5200  -26.7400   25.9500 C.3       6 GLY6        0.0000 
    110 DU        -14.3500  -32.1000   29.0400 H         7 CUB7        0.0000 
    111 DU        -15.4600  -31.9900   32.2000 H         7 CUB7        0.0000 
    112 DU        -15.4600  -31.5600   30.7700 H         7 CUB7        0.0000 
    113 DU        -15.4600  -31.1300   29.3300 H         7 CUB7        0.0000 
    114 DU        -18.7600  -27.3400   27.3300 H         7 CUB7        0.0000 
    115 DU        -19.8700  -26.3700   27.6300 H         7 CUB7        0.0000 
    116 DU        -20.9700  -25.3900   27.9200 H         7 CUB7        0.0000 
    117 DU        -13.3400  -30.6100   27.9200 H         7 CUB7        0.0000 
    118 DU        -14.4400  -30.5000   31.0900 H         7 CUB7        0.0000 
    119 DU        -14.4400  -29.6400   28.2100 H         7 CUB7        0.0000 
@<TRIPOS>BOND
@<TRIPOS>SUBSTRUCTURE
     1 SER1        1 GROUP   
     2 ALA2       13 GROUP   
     3 ASP3       44 GROUP   
     4 LYS4       66 GROUP   
     5 PHE5       71 GROUP   
     6 GLY6       89 GROUP   
     7 CUB7      110 GROUP   
@<TRIPOS>SET

