#    Name: 6qlg_4_FMN_CAVITY_N1_4
#    Modification time : Fri May 22 19:29:11 2020

@<TRIPOS>MOLECULE
6qlg_4_FMN_CAVITY_N1_4
   45     0     6     0     0
SMALL
NO_CHARGES


@<TRIPOS>ATOM
      1 OG         -4.3700   19.1800    3.7600 O.3       1 SER1        0.0000 
      2 OG         -1.1400   17.8600    4.9300 O.3       1 SER1        0.0000 
      3 OG         -3.3500   20.2400    4.0800 O.3       1 SER1        0.0000 
      4 N          -5.3800   18.5500    2.0000 N.am      2 ALA2        0.0000 
      5 N          -3.2600   17.7700    4.9000 N.am      2 ALA2        0.0000 
      6 N          -3.2600   18.2100    3.4700 N.am      2 ALA2        0.0000 
      7 N          -4.3700   19.6100    2.3200 N.am      2 ALA2        0.0000 
      8 N           3.2700   14.4000    2.3300 N.am      2 ALA2        0.0000 
      9 N          -3.3500   20.6700    2.6400 N.am      2 ALA2        0.0000 
     10 N          -3.3500   21.1000    1.2000 N.am      2 ALA2        0.0000 
     11 N          -4.4500   22.0700    1.5000 N.am      2 ALA2        0.0000 
     12 OD1        -4.2800   17.1500    3.1500 O.co2     3 ASP3        0.0000 
     13 OD1        -5.3800   18.1200    3.4400 O.co2     3 ASP3        0.0000 
     14 OD1        -1.0600   15.8300    4.3200 O.co2     3 ASP3        0.0000 
     15 OD1        -2.1600   16.8000    4.6100 O.co2     3 ASP3        0.0000 
     16 OD1        -2.1600   17.2300    3.1700 O.co2     3 ASP3        0.0000 
     17 CZ          2.1700   14.9400    4.0500 C.ar      4 PHE5        0.0000 
     18 CZ          2.1700   15.3700    2.6200 C.ar      4 PHE5        0.0000 
     19 CZ          1.0600   15.9100    4.3500 C.ar      4 PHE5        0.0000 
     20 CZ          1.0600   16.3400    2.9100 C.ar      4 PHE5        0.0000 
     21 CZ         -0.0400   16.8800    4.6400 C.ar      4 PHE5        0.0000 
     22 CZ         -0.0400   17.3200    3.2000 C.ar      4 PHE5        0.0000 
     23 CZ          3.1800   16.8600    1.5000 C.ar      4 PHE5        0.0000 
     24 CZ          0.9800   18.8000    2.0800 C.ar      4 PHE5        0.0000 
     25 CZ         -0.1300   19.3500    3.8100 C.ar      4 PHE5        0.0000 
     26 CZ         -0.1300   19.7800    2.3800 C.ar      4 PHE5        0.0000 
     27 CZ         -1.2300   20.3200    4.1000 C.ar      4 PHE5        0.0000 
     28 CZ         -2.3300   21.2900    4.4000 C.ar      4 PHE5        0.0000 
     29 CZ         -2.3300   21.7200    2.9600 C.ar      4 PHE5        0.0000 
     30 CZ         -2.3300   22.1600    1.5200 C.ar      4 PHE5        0.0000 
     31 CZ          0.8900   20.4000    4.1300 C.ar      4 PHE5        0.0000 
     32 CZ          0.8900   20.8300    2.7000 C.ar      4 PHE5        0.0000 
     33 CZ         -0.2200   21.3800    4.4200 C.ar      4 PHE5        0.0000 
     34 CZ         -0.2100   21.8100    2.9900 C.ar      4 PHE5        0.0000 
     35 CA         -3.4400   22.7000    3.2500 C.3       5 GLY6        0.0000 
     36 CA         -3.4400   23.1300    1.8200 C.3       5 GLY6        0.0000 
     37 DU          2.2500   12.9100    3.4400 H         6 CUB7        0.0000 
     38 DU          1.1500   13.8800    3.7300 H         6 CUB7        0.0000 
     39 DU          0.0500   14.8500    4.0300 H         6 CUB7        0.0000 
     40 DU         -3.2600   18.6400    2.0300 H         6 CUB7        0.0000 
     41 DU         -1.1400   18.2900    3.4900 H         6 CUB7        0.0000 
     42 DU         -1.1400   18.7200    2.0600 H         6 CUB7        0.0000 
     43 DU         -2.2500   19.2600    3.7900 H         6 CUB7        0.0000 
     44 DU         -2.2500   19.6900    2.3500 H         6 CUB7        0.0000 
     45 DU         -1.2300   20.7500    2.6700 H         6 CUB7        0.0000 
@<TRIPOS>BOND
@<TRIPOS>SUBSTRUCTURE
     1 SER1        1 GROUP   
     2 ALA2        4 GROUP   
     3 ASP3       12 GROUP   
     4 PHE5       17 GROUP   
     5 GLY6       35 GROUP   
     6 CUB7       37 GROUP   
@<TRIPOS>SET

