#    Name: 6qlg_5_FMN_CAVITY_N1_4
#    Modification time : Fri May 22 19:29:17 2020

@<TRIPOS>MOLECULE
6qlg_5_FMN_CAVITY_N1_4
  108     0     7     0     0
SMALL
NO_CHARGES


@<TRIPOS>ATOM
      1 OG        -41.7200  -32.9200   13.1000 O.3       1 SER1        0.0000 
      2 OG        -42.8200  -32.8100   16.2700 O.3       1 SER1        0.0000 
      3 OG        -42.8200  -32.3800   14.8300 O.3       1 SER1        0.0000 
      4 OG        -40.7000  -31.8600   13.4200 O.3       1 SER1        0.0000 
      5 OG        -41.8100  -31.7500   16.5800 O.3       1 SER1        0.0000 
      6 OG        -41.8100  -31.3200   15.1500 O.3       1 SER1        0.0000 
      7 OG        -41.8000  -30.8900   13.7100 O.3       1 SER1        0.0000 
      8 OG        -42.9000  -28.6200    9.7000 O.3       1 SER1        0.0000 
      9 OG        -45.1100  -27.5300   13.1500 O.3       1 SER1        0.0000 
     10 OG        -42.9900  -27.0200   11.7400 O.3       1 SER1        0.0000 
     11 OG        -34.5200  -27.9800   16.1600 O.3       1 SER1        0.0000 
     12 O         -40.7000  -31.4300   11.9800 O.2       2 ALA2        0.0000 
     13 O         -38.5800  -30.4800    9.1400 O.2       2 ALA2        0.0000 
     14 N         -39.6800  -30.3700   12.3000 N.am      2 ALA2        0.0000 
     15 O         -39.6800  -29.9400   10.8700 O.2       2 ALA2        0.0000 
     16 N         -40.7900  -30.2600   15.4700 N.am      2 ALA2        0.0000 
     17 N         -40.7900  -29.8300   14.0300 N.am      2 ALA2        0.0000 
     18 N         -40.7900  -29.4000   12.5900 N.am      2 ALA2        0.0000 
     19 N         -41.8900  -29.2900   15.7600 N.am      2 ALA2        0.0000 
     20 N         -41.8900  -28.8600   14.3200 N.am      2 ALA2        0.0000 
     21 N         -42.9900  -27.4500   13.1800 N.am      2 ALA2        0.0000 
     22 N         -37.5600  -29.4200    9.4600 N.am      2 ALA2        0.0000 
     23 N         -38.6700  -29.3100   12.6200 N.am      2 ALA2        0.0000 
     24 N         -39.7700  -29.2100   15.7900 N.am      2 ALA2        0.0000 
     25 N         -39.7700  -28.7700   14.3500 N.am      2 ALA2        0.0000 
     26 N         -39.7700  -28.3400   12.9100 N.am      2 ALA2        0.0000 
     27 N         -40.8800  -28.2300   16.0800 N.am      2 ALA2        0.0000 
     28 N         -40.8800  -27.8000   14.6400 N.am      2 ALA2        0.0000 
     29 N         -40.8700  -27.3700   13.2100 N.am      2 ALA2        0.0000 
     30 N         -37.6500  -28.2600   12.9400 N.am      2 ALA2        0.0000 
     31 N         -38.7600  -28.1500   16.1100 N.am      2 ALA2        0.0000 
     32 N         -38.7600  -27.7200   14.6700 N.am      2 ALA2        0.0000 
     33 N         -39.8600  -26.7400   14.9600 N.am      2 ALA2        0.0000 
     34 N         -36.6400  -28.0700   16.1300 N.am      2 ALA2        0.0000 
     35 N         -36.6400  -27.6300   14.7000 N.am      2 ALA2        0.0000 
     36 OD1       -40.7000  -30.1300    7.6800 O.co2     3 ASP3        0.0000 
     37 OD1       -41.8000  -29.1600    7.9700 O.co2     3 ASP3        0.0000 
     38 OD1       -39.6800  -29.5100    9.4300 O.co2     3 ASP3        0.0000 
     39 OD1       -39.6800  -29.0700    7.9900 O.co2     3 ASP3        0.0000 
     40 OD1       -40.7800  -28.5300    9.7200 O.co2     3 ASP3        0.0000 
     41 OD1       -40.7800  -28.1000    8.2900 O.co2     3 ASP3        0.0000 
     42 OD1       -38.6700  -28.8800   11.1900 O.co2     3 ASP3        0.0000 
     43 OD1       -38.6600  -28.4500    9.7500 O.co2     3 ASP3        0.0000 
     44 OD1       -38.6600  -28.0200    8.3100 O.co2     3 ASP3        0.0000 
     45 OD1       -39.7700  -27.9100   11.4800 O.co2     3 ASP3        0.0000 
     46 OD1       -39.7700  -27.4800   10.0400 O.co2     3 ASP3        0.0000 
     47 OD1       -37.6500  -27.8300   11.5000 O.co2     3 ASP3        0.0000 
     48 OD1       -38.7600  -27.2800   13.2300 O.co2     3 ASP3        0.0000 
     49 OD1       -38.7500  -26.8500   11.8000 O.co2     3 ASP3        0.0000 
     50 OD1       -37.7400  -26.2300   13.5500 O.co2     3 ASP3        0.0000 
     51 NZ        -42.7300  -33.9700   12.7800 N.4       4 LYS4        0.0000 
     52 NZ        -43.8400  -33.0000   13.0700 N.4       4 LYS4        0.0000 
     53 CZ        -44.8500  -34.0600   12.7600 C.ar      5 PHE5        0.0000 
     54 CZ        -47.0600  -32.5400   14.7800 C.ar      5 PHE5        0.0000 
     55 CZ        -43.8400  -33.4300   14.5100 C.ar      5 PHE5        0.0000 
     56 CZ        -44.9400  -32.4600   14.8000 C.ar      5 PHE5        0.0000 
     57 CZ        -44.9400  -32.0300   13.3700 C.ar      5 PHE5        0.0000 
     58 CZ        -46.0500  -31.9200   16.5300 C.ar      5 PHE5        0.0000 
     59 CZ        -46.0500  -31.4900   15.0900 C.ar      5 PHE5        0.0000 
     60 CZ        -42.9100  -31.2100   18.3100 C.ar      5 PHE5        0.0000 
     61 CZ        -42.9100  -30.7800   16.8800 C.ar      5 PHE5        0.0000 
     62 CZ        -40.7900  -30.6900   16.9000 C.ar      5 PHE5        0.0000 
     63 CZ        -37.7400  -27.5300   17.8600 C.ar      5 PHE5        0.0000 
     64 CZ        -35.6300  -27.8700   19.3200 C.ar      5 PHE5        0.0000 
     65 CZ        -35.6200  -27.4400   17.8900 C.ar      5 PHE5        0.0000 
     66 CZ        -36.7300  -26.4700   18.1800 C.ar      5 PHE5        0.0000 
     67 CA        -42.7300  -34.4000   14.2200 C.3       6 GLY6        0.0000 
     68 CA        -43.8400  -33.8600   15.9500 C.3       6 GLY6        0.0000 
     69 CA        -41.7200  -32.4800   11.6600 C.3       6 GLY6        0.0000 
     70 CA        -41.7100  -31.6200    8.7900 C.3       6 GLY6        0.0000 
     71 CA        -42.8200  -31.0800   10.5200 C.3       6 GLY6        0.0000 
     72 CA        -45.0300  -30.8600   16.8500 C.3       6 GLY6        0.0000 
     73 CA        -45.0300  -30.4300   15.4100 C.3       6 GLY6        0.0000 
     74 CA        -46.1300  -29.4600   15.7100 C.3       6 GLY6        0.0000 
     75 CA        -40.7000  -30.9900   10.5500 C.3       6 GLY6        0.0000 
     76 CA        -40.7000  -30.5600    9.1100 C.3       6 GLY6        0.0000 
     77 CA        -44.0100  -29.8000   17.1700 C.3       6 GLY6        0.0000 
     78 CA        -44.0100  -28.9400   14.3000 C.3       6 GLY6        0.0000 
     79 CA        -44.0100  -28.0800   11.4200 C.3       6 GLY6        0.0000 
     80 CA        -37.5600  -29.8600   10.8900 C.3       6 GLY6        0.0000 
     81 CA        -36.5500  -28.8000   11.2100 C.3       6 GLY6        0.0000 
     82 CA        -35.5400  -29.4700   17.2800 C.3       6 GLY6        0.0000 
     83 CA        -35.5400  -29.0400   15.8400 C.3       6 GLY6        0.0000 
     84 CA        -36.6400  -28.5000   17.5700 C.3       6 GLY6        0.0000 
     85 CA        -37.7400  -27.0900   16.4200 C.3       6 GLY6        0.0000 
     86 CA        -37.7400  -26.6600   14.9900 C.3       6 GLY6        0.0000 
     87 CA        -38.8400  -25.6900   15.2800 C.3       6 GLY6        0.0000 
     88 CA        -35.6200  -27.0100   16.4500 C.3       6 GLY6        0.0000 
     89 CA        -36.7300  -26.0400   16.7400 C.3       6 GLY6        0.0000 
     90 CA        -36.7200  -25.6000   15.3100 C.3       6 GLY6        0.0000 
     91 DU        -42.8200  -31.9400   13.3900 H         7 CUB7        0.0000 
     92 DU        -42.8200  -31.5100   11.9600 H         7 CUB7        0.0000 
     93 DU        -43.9300  -31.8300   16.5600 H         7 CUB7        0.0000 
     94 DU        -43.9300  -31.4000   15.1200 H         7 CUB7        0.0000 
     95 DU        -45.0300  -30.0000   13.9800 H         7 CUB7        0.0000 
     96 DU        -41.8000  -30.4500   12.2800 H         7 CUB7        0.0000 
     97 DU        -41.8000  -30.0200   10.8400 H         7 CUB7        0.0000 
     98 DU        -41.8000  -29.5900    9.4000 H         7 CUB7        0.0000 
     99 DU        -42.9100  -30.3500   15.4400 H         7 CUB7        0.0000 
    100 DU        -42.9100  -29.9100   14.0000 H         7 CUB7        0.0000 
    101 DU        -42.9100  -29.4800   12.5700 H         7 CUB7        0.0000 
    102 DU        -42.9100  -29.0500   11.1300 H         7 CUB7        0.0000 
    103 DU        -44.0100  -28.5100   12.8600 H         7 CUB7        0.0000 
    104 DU        -40.7900  -28.9700   11.1600 H         7 CUB7        0.0000 
    105 DU        -41.8900  -28.4200   12.8900 H         7 CUB7        0.0000 
    106 DU        -41.8900  -27.9900   11.4500 H         7 CUB7        0.0000 
    107 DU        -41.8900  -27.5600   10.0100 H         7 CUB7        0.0000 
    108 DU        -34.5200  -28.4200   17.6000 H         7 CUB7        0.0000 
@<TRIPOS>BOND
@<TRIPOS>SUBSTRUCTURE
     1 SER1        1 GROUP   
     2 ALA2       12 GROUP   
     3 ASP3       36 GROUP   
     4 LYS4       51 GROUP   
     5 PHE5       53 GROUP   
     6 GLY6       67 GROUP   
     7 CUB7       91 GROUP   
@<TRIPOS>SET

