#    Name: 6qlg_6_FMN
#    Modification time : Fri May 22 19:29:24 2020

@<TRIPOS>MOLECULE
6qlg_6_FMN
   31    33     1     0     1
SMALL
NO_CHARGES


@<TRIPOS>ATOM
      1 N1        -29.8310   -5.9090   23.8740 N.2       1 FMN301      0.0000 
      2 C2        -29.6400   -5.2900   22.6570 C.2       1 FMN301      0.0000 
      3 O2        -29.0360   -5.8820   21.7660 O.2       1 FMN301      0.0000 
      4 N3        -30.1240   -4.0120   22.4470 N.am      1 FMN301      0.0000 
      5 C4        -30.8050   -3.3510   23.4550 C.2       1 FMN301      0.0000 
      6 O4        -31.2450   -2.2090   23.2800 O.2       1 FMN301      0.0000 
      7 C4A       -30.9990   -3.9780   24.6810 C.2       1 FMN301      0.0000 
      8 N5        -31.6810   -3.3140   25.6770 N.2       1 FMN301      0.0000 
      9 C5A       -31.8790   -3.9290   26.8970 C.ar      1 FMN301      0.0000 
     10 C6        -32.5660   -3.2620   27.9090 C.ar      1 FMN301      0.0000 
     11 C7        -32.7610   -3.8880   29.1330 C.ar      1 FMN301      0.0000 
     12 C7M       -33.4990   -3.1810   30.2270 C.3       1 FMN301      0.0000 
     13 C8        -32.2750   -5.1740   29.3500 C.ar      1 FMN301      0.0000 
     14 C8M       -32.4950   -5.8350   30.6810 C.3       1 FMN301      0.0000 
     15 C9        -31.5870   -5.8370   28.3390 C.ar      1 FMN301      0.0000 
     16 C9A       -31.3880   -5.2180   27.1120 C.ar      1 FMN301      0.0000 
     17 N10       -30.7080   -5.8830   26.1030 N.pl3     1 FMN301      0.0000 
     18 C10       -30.5090   -5.2600   24.8880 C.2       1 FMN301      0.0000 
     19 C1'       -30.1610   -7.2660   26.3150 C.3       1 FMN301      0.0000 
     20 C2'       -31.0860   -8.3440   25.7660 C.3       1 FMN301      0.0000 
     21 O2'       -32.2960   -8.3250   26.4870 O.3       1 FMN301      0.0000 
     22 C3'       -30.4280   -9.7080   25.9310 C.3       1 FMN301      0.0000 
     23 O3'       -29.3940   -9.8750   24.9850 O.3       1 FMN301      0.0000 
     24 C4'       -31.4380  -10.8340   25.7490 C.3       1 FMN301      0.0000 
     25 O4'       -30.7660  -12.0700   25.8120 O.3       1 FMN301      0.0000 
     26 C5'       -32.1430  -10.7700   24.3960 C.3       1 FMN301      0.0000 
     27 O5'       -33.0370  -11.8620   24.3230 O.3       1 FMN301      0.0000 
     28 P         -34.2430  -11.9250   23.2560 P.3       1 FMN301      0.0000 
     29 O1P       -34.6690  -13.3660   23.0770 O.co2     1 FMN301      0.0000 
     30 O2P       -35.3920  -11.0980   23.7820 O.co2     1 FMN301      0.0000 
     31 O3P       -33.7750  -11.3840   21.9220 O.co2     1 FMN301      0.0000 
@<TRIPOS>BOND
     1    1    2 1    
     2    1   18 2    
     3    2    3 2    
     4    2    4 am   
     5    4    5 am   
     6    5    6 2    
     7    5    7 1    
     8    7    8 2    
     9    7   18 1    
    10    8    9 1    
    11    9   10 ar   
    12    9   16 ar   
    13   10   11 ar   
    14   11   12 1    
    15   11   13 ar   
    16   13   14 1    
    17   13   15 ar   
    18   15   16 ar   
    19   16   17 1    
    20   17   18 1    
    21   17   19 1    
    22   19   20 1    
    23   20   21 1    
    24   20   22 1    
    25   22   23 1    
    26   22   24 1    
    27   24   25 1    
    28   24   26 1    
    29   26   27 1    
    30   27   28 1    
    31   28   29 ar   
    32   28   30 ar   
    33   28   31 ar   
@<TRIPOS>SUBSTRUCTURE
     1 FMN301      1 GROUP   
@<TRIPOS>SET
ATOM$ORANGE STATIC     ATOMS   COLORGROUP SYSTEM 
34 2 2 5 5 7 7 9 9 10 10 11 11 12 12 13 13 14 \
14 15 15 16 16 18 18 19 19 20 20 22 22 24 24 26 26 

