#    Name: 6qlg_5_FMN
#    Modification time : Fri May 22 19:29:15 2020

@<TRIPOS>MOLECULE
6qlg_5_FMN
   31    33     1     0     1
SMALL
NO_CHARGES


@<TRIPOS>ATOM
      1 N1        -36.8540  -27.8340   11.5470 N.2       1 FMN301      0.0000 
      2 C2        -36.0760  -28.0720   10.4340 C.2       1 FMN301      0.0000 
      3 O2        -35.0250  -27.4500   10.2820 O.2       1 FMN301      0.0000 
      4 N3        -36.4730  -29.0040    9.4950 N.am      1 FMN301      0.0000 
      5 C4        -37.6500  -29.7040    9.6650 C.2       1 FMN301      0.0000 
      6 O4        -37.9980  -30.5350    8.8260 O.2       1 FMN301      0.0000 
      7 C4A       -38.4360  -29.4670   10.7870 C.2       1 FMN301      0.0000 
      8 N5        -39.6150  -30.1630   10.9670 N.2       1 FMN301      0.0000 
      9 C5A       -40.3890  -29.9210   12.0860 C.ar      1 FMN301      0.0000 
     10 C6        -41.5770  -30.6210   12.2720 C.ar      1 FMN301      0.0000 
     11 C7        -42.3600  -30.3790   13.3970 C.ar      1 FMN301      0.0000 
     12 C7M       -43.6410  -31.1350   13.5920 C.3       1 FMN301      0.0000 
     13 C8        -41.9530  -29.4390   14.3390 C.ar      1 FMN301      0.0000 
     14 C8M       -42.7930  -29.1730   15.5550 C.3       1 FMN301      0.0000 
     15 C9        -40.7670  -28.7390   14.1520 C.ar      1 FMN301      0.0000 
     16 C9A       -39.9830  -28.9790   13.0280 C.ar      1 FMN301      0.0000 
     17 N10       -38.7990  -28.2900   12.8520 N.pl3     1 FMN301      0.0000 
     18 C10       -38.0320  -28.5270   11.7300 C.2       1 FMN301      0.0000 
     19 C1'       -38.3660  -27.2570   13.8550 C.3       1 FMN301      0.0000 
     20 C2'       -37.3790  -27.7690   14.8930 C.3       1 FMN301      0.0000 
     21 O2'       -37.9900  -28.7610   15.6850 O.3       1 FMN301      0.0000 
     22 C3'       -36.9640  -26.5960   15.7760 C.3       1 FMN301      0.0000 
     23 O3'       -36.2300  -25.6600   15.0150 O.3       1 FMN301      0.0000 
     24 C4'       -36.1390  -27.0230   16.9840 C.3       1 FMN301      0.0000 
     25 O4'       -35.6940  -25.8700   17.6630 O.3       1 FMN301      0.0000 
     26 C5'       -34.9270  -27.8600   16.5960 C.3       1 FMN301      0.0000 
     27 O5'       -34.3300  -28.2990   17.7940 O.3       1 FMN301      0.0000 
     28 P         -33.2610  -29.4990   17.8150 P.3       1 FMN301      0.0000 
     29 O1P       -32.3750  -29.3260   19.0260 O.co2     1 FMN301      0.0000 
     30 O2P       -34.0130  -30.8070   17.8880 O.co2     1 FMN301      0.0000 
     31 O3P       -32.4070  -29.4650   16.5690 O.co2     1 FMN301      0.0000 
@<TRIPOS>BOND
     1    1    2 1    
     2    1   18 2    
     3    2    3 2    
     4    2    4 am   
     5    4    5 am   
     6    5    6 2    
     7    5    7 1    
     8    7    8 2    
     9    7   18 1    
    10    8    9 1    
    11    9   10 ar   
    12    9   16 ar   
    13   10   11 ar   
    14   11   12 1    
    15   11   13 ar   
    16   13   14 1    
    17   13   15 ar   
    18   15   16 ar   
    19   16   17 1    
    20   17   18 1    
    21   17   19 1    
    22   19   20 1    
    23   20   21 1    
    24   20   22 1    
    25   22   23 1    
    26   22   24 1    
    27   24   25 1    
    28   24   26 1    
    29   26   27 1    
    30   27   28 1    
    31   28   29 ar   
    32   28   30 ar   
    33   28   31 ar   
@<TRIPOS>SUBSTRUCTURE
     1 FMN301      1 GROUP   
@<TRIPOS>SET
ATOM$ORANGE STATIC     ATOMS   COLORGROUP SYSTEM 
34 2 2 5 5 7 7 9 9 10 10 11 11 12 12 13 13 14 \
14 15 15 16 16 18 18 19 19 20 20 22 22 24 24 26 26 

