#    Name: 6qlg_3_FMN_CAVITY_N1_4
#    Modification time : Fri May 22 19:29:05 2020

@<TRIPOS>MOLECULE
6qlg_3_FMN_CAVITY_N1_4
   91     0     7     0     0
SMALL
NO_CHARGES


@<TRIPOS>ATOM
      1 OG         10.5600  -16.7600   25.8500 O.3       1 SER1        0.0000 
      2 N           6.5000  -20.1200   21.7000 N.am      2 ALA2        0.0000 
      3 N           6.5000  -19.6900   20.2600 N.am      2 ALA2        0.0000 
      4 O           8.6200  -20.4700   23.1600 O.2       2 ALA2        0.0000 
      5 N          11.8400  -21.3600   22.9000 N.am      2 ALA2        0.0000 
      6 N          11.8500  -20.0600   18.5900 N.am      2 ALA2        0.0000 
      7 O          10.7400  -20.3900   23.1900 O.2       2 ALA2        0.0000 
      8 N          10.7400  -19.9500   21.7600 N.am      2 ALA2        0.0000 
      9 N          10.7400  -19.5200   20.3200 N.am      2 ALA2        0.0000 
     10 N          10.7400  -19.0900   18.8800 N.am      2 ALA2        0.0000 
     11 O           9.6400  -19.4100   23.4800 O.2       2 ALA2        0.0000 
     12 N          13.9600  -20.8400   21.4900 N.am      2 ALA2        0.0000 
     13 N          13.9700  -20.4100   20.0500 N.am      2 ALA2        0.0000 
     14 N          12.8600  -19.8700   21.7800 N.am      2 ALA2        0.0000 
     15 N          12.8600  -19.4400   20.3500 N.am      2 ALA2        0.0000 
     16 N          12.8600  -19.0100   18.9100 N.am      2 ALA2        0.0000 
     17 N          11.7600  -18.9000   22.0700 N.am      2 ALA2        0.0000 
     18 N          11.7600  -18.4600   20.6400 N.am      2 ALA2        0.0000 
     19 N          13.8800  -18.8100   22.1000 N.am      2 ALA2        0.0000 
     20 N          13.8800  -18.3800   20.6700 N.am      2 ALA2        0.0000 
     21 N          12.7700  -17.8400   22.3900 N.am      2 ALA2        0.0000 
     22 N          12.7700  -17.4100   20.9600 N.am      2 ALA2        0.0000 
     23 N          12.7800  -16.9800   19.5200 N.am      2 ALA2        0.0000 
     24 N          11.6700  -16.8700   22.6900 N.am      2 ALA2        0.0000 
     25 N          11.6700  -16.4400   21.2500 N.am      2 ALA2        0.0000 
     26 N          10.5700  -15.8900   22.9800 N.am      2 ALA2        0.0000 
     27 N          14.8900  -18.1900   23.8600 N.am      2 ALA2        0.0000 
     28 N          13.7900  -17.2200   24.1500 N.am      2 ALA2        0.0000 
     29 O          12.6800  -16.2400   24.4400 O.2       2 ALA2        0.0000 
     30 OD1         8.6200  -19.6000   20.2900 O.co2     3 ASP3        0.0000 
     31 OD1         7.5200  -19.5000   23.4600 O.co2     3 ASP3        0.0000 
     32 OD1         7.5200  -19.0600   22.0200 O.co2     3 ASP3        0.0000 
     33 OD1         7.5200  -18.6300   20.5800 O.co2     3 ASP3        0.0000 
     34 OD1         9.6400  -18.9800   22.0500 O.co2     3 ASP3        0.0000 
     35 OD1         9.6400  -18.5500   20.6100 O.co2     3 ASP3        0.0000 
     36 OD1         9.6400  -18.1200   19.1700 O.co2     3 ASP3        0.0000 
     37 OD1         8.5300  -18.0100   22.3400 O.co2     3 ASP3        0.0000 
     38 OD1         7.4300  -17.4700   24.0700 O.co2     3 ASP3        0.0000 
     39 OD1        11.7600  -18.0300   19.2000 O.co2     3 ASP3        0.0000 
     40 OD1        10.6500  -17.4900   20.9300 O.co2     3 ASP3        0.0000 
     41 OD1        10.6600  -17.0600   19.4900 O.co2     3 ASP3        0.0000 
     42 OD1         9.5500  -16.9500   22.6600 O.co2     3 ASP3        0.0000 
     43 OD1        11.6700  -16.0000   19.8100 O.co2     3 ASP3        0.0000 
     44 NZ          6.4100  -18.0900   22.3100 N.4       4 LYS4        0.0000 
     45 NZ          5.3100  -17.5500   24.0400 N.4       4 LYS4        0.0000 
     46 NZ         11.8400  -22.2200   25.7700 N.4       4 LYS4        0.0000 
     47 CZ          9.6300  -19.8500   24.9200 C.ar      5 PHE5        0.0000 
     48 CZ          8.5300  -18.8700   25.2100 C.ar      5 PHE5        0.0000 
     49 CZ          7.4300  -17.9000   25.5000 C.ar      5 PHE5        0.0000 
     50 CZ         11.7500  -19.7600   24.9500 C.ar      5 PHE5        0.0000 
     51 CZ         10.6500  -18.7900   25.2400 C.ar      5 PHE5        0.0000 
     52 CZ          9.5500  -17.8200   25.5300 C.ar      5 PHE5        0.0000 
     53 CZ         14.9800  -20.6500   24.6800 C.ar      5 PHE5        0.0000 
     54 CZ         14.9800  -20.2200   23.2500 C.ar      5 PHE5        0.0000 
     55 CZ         14.9800  -19.7900   21.8100 C.ar      5 PHE5        0.0000 
     56 CZ         14.9800  -19.3500   20.3700 C.ar      5 PHE5        0.0000 
     57 CZ         13.8700  -20.1100   26.4100 C.ar      5 PHE5        0.0000 
     58 CZ         13.8700  -19.6800   24.9700 C.ar      5 PHE5        0.0000 
     59 CZ         12.7700  -19.1400   26.7000 C.ar      5 PHE5        0.0000 
     60 CZ         11.6600  -18.1600   26.9900 C.ar      5 PHE5        0.0000 
     61 CZ         11.6700  -17.7300   25.5600 C.ar      5 PHE5        0.0000 
     62 CZ         15.9900  -19.1600   23.5700 C.ar      5 PHE5        0.0000 
     63 CZ         16.0000  -18.7300   22.1300 C.ar      5 PHE5        0.0000 
     64 CZ         14.8900  -18.6200   25.2900 C.ar      5 PHE5        0.0000 
     65 CZ         13.7900  -17.6500   25.5900 C.ar      5 PHE5        0.0000 
     66 CZ         12.6800  -16.6800   25.8800 C.ar      5 PHE5        0.0000 
     67 CA          7.6100  -21.0900   21.4100 C.3       6 GLY6        0.0000 
     68 CA          7.6100  -20.6600   19.9700 C.3       6 GLY6        0.0000 
     69 CA          9.7300  -20.1500   18.5600 C.3       6 GLY6        0.0000 
     70 CA          8.6200  -20.0400   21.7300 C.3       6 GLY6        0.0000 
     71 CA          7.5100  -19.9300   24.8900 C.3       6 GLY6        0.0000 
     72 CA         11.8400  -21.7900   24.3400 C.3       6 GLY6        0.0000 
     73 CA         10.7400  -21.2500   26.0600 C.3       6 GLY6        0.0000 
     74 CA         10.7400  -20.8200   24.6300 C.3       6 GLY6        0.0000 
     75 CA         13.9600  -22.1400   25.8000 C.3       6 GLY6        0.0000 
     76 CA         13.9700  -19.9800   18.6200 C.3       6 GLY6        0.0000 
     77 CA         12.8600  -21.1700   26.0900 C.3       6 GLY6        0.0000 
     78 CA         12.8600  -20.7400   24.6600 C.3       6 GLY6        0.0000 
     79 CA         12.8600  -20.3000   23.2200 C.3       6 GLY6        0.0000 
     80 CA         12.8600  -18.5700   17.4700 C.3       6 GLY6        0.0000 
     81 CA         11.7600  -17.6000   17.7700 C.3       6 GLY6        0.0000 
     82 CA         10.5600  -16.3300   24.4100 C.3       6 GLY6        0.0000 
     83 DU          8.5300  -18.4400   23.7800 H         7 CUB7        0.0000 
     84 DU         11.7600  -19.3300   23.5100 H         7 CUB7        0.0000 
     85 DU         10.6500  -18.3600   23.8000 H         7 CUB7        0.0000 
     86 DU         10.6500  -17.9200   22.3700 H         7 CUB7        0.0000 
     87 DU          9.5500  -17.3800   24.0900 H         7 CUB7        0.0000 
     88 DU         13.8700  -19.2500   23.5400 H         7 CUB7        0.0000 
     89 DU         12.7700  -18.7100   25.2700 H         7 CUB7        0.0000 
     90 DU         12.7700  -18.2700   23.8300 H         7 CUB7        0.0000 
     91 DU         11.6700  -17.3000   24.1200 H         7 CUB7        0.0000 
@<TRIPOS>BOND
@<TRIPOS>SUBSTRUCTURE
     1 SER1        1 GROUP   
     2 ALA2        2 GROUP   
     3 ASP3       30 GROUP   
     4 LYS4       44 GROUP   
     5 PHE5       47 GROUP   
     6 GLY6       67 GROUP   
     7 CUB7       83 GROUP   
@<TRIPOS>SET

