#    Name: 6qlg_4_FMN_CAVITY_N1_8
#    Modification time : Fri May 22 19:29:11 2020

@<TRIPOS>MOLECULE
6qlg_4_FMN_CAVITY_N1_8
   96     0     6     0     0
SMALL
NO_CHARGES


@<TRIPOS>ATOM
      1 OG         -4.3700   19.1800    3.7600 O.3       1 SER1        0.0000 
      2 OG          1.0600   15.4800    5.7800 O.3       1 SER1        0.0000 
      3 OG         -0.0400   16.4500    6.0700 O.3       1 SER1        0.0000 
      4 OG         -1.1400   17.8600    4.9300 O.3       1 SER1        0.0000 
      5 OG         -3.3500   20.2400    4.0800 O.3       1 SER1        0.0000 
      6 OG          3.1800   15.5600    5.8100 O.3       1 SER1        0.0000 
      7 N          -5.3800   18.5500    2.0000 N.am      2 ALA2        0.0000 
      8 O          -1.0600   14.9600    7.1900 O.2       2 ALA2        0.0000 
      9 N          -3.2600   17.7700    4.9000 N.am      2 ALA2        0.0000 
     10 N          -3.2600   18.2100    3.4700 N.am      2 ALA2        0.0000 
     11 N          -4.3700   19.6100    2.3200 N.am      2 ALA2        0.0000 
     12 N           4.3700   12.5600    4.9100 N.am      2 ALA2        0.0000 
     13 N           4.3700   12.9900    3.4700 N.am      2 ALA2        0.0000 
     14 N           4.3700   13.4200    2.0300 N.am      2 ALA2        0.0000 
     15 N           3.2700   14.4000    2.3300 N.am      2 ALA2        0.0000 
     16 N          -3.3500   20.6700    2.6400 N.am      2 ALA2        0.0000 
     17 N          -3.3500   21.1000    1.2000 N.am      2 ALA2        0.0000 
     18 N          -4.4500   22.0700    1.5000 N.am      2 ALA2        0.0000 
     19 N           5.3900   14.0500    3.7900 N.am      2 ALA2        0.0000 
     20 N           4.2900   15.8900    1.2100 N.am      2 ALA2        0.0000 
     21 O           3.1800   15.1300    7.2500 O.2       2 ALA2        0.0000 
     22 OD1         0.2200    9.9300    5.6800 O.co2     3 ASP3        0.0000 
     23 OD1         1.2300   10.9900    6.0000 O.co2     3 ASP3        0.0000 
     24 OD1         1.2400   11.4200    4.5600 O.co2     3 ASP3        0.0000 
     25 OD1         0.1300   12.3900    4.8500 O.co2     3 ASP3        0.0000 
     26 OD1        -0.9700   13.3700    5.1400 O.co2     3 ASP3        0.0000 
     27 OD1        -2.0800   13.9100    6.8700 O.co2     3 ASP3        0.0000 
     28 OD1        -2.0700   14.3400    5.4400 O.co2     3 ASP3        0.0000 
     29 OD1        -4.2800   17.1500    3.1500 O.co2     3 ASP3        0.0000 
     30 OD1        -5.3800   18.1200    3.4400 O.co2     3 ASP3        0.0000 
     31 OD1         2.2500   11.6100    7.7500 O.co2     3 ASP3        0.0000 
     32 OD1         2.2500   12.0400    6.3200 O.co2     3 ASP3        0.0000 
     33 OD1         1.1500   13.0200    6.6100 O.co2     3 ASP3        0.0000 
     34 OD1         1.1500   13.4500    5.1700 O.co2     3 ASP3        0.0000 
     35 OD1         0.0400   13.9900    6.9000 O.co2     3 ASP3        0.0000 
     36 OD1         0.0400   14.4200    5.4600 O.co2     3 ASP3        0.0000 
     37 OD1        -1.0600   15.3900    5.7500 O.co2     3 ASP3        0.0000 
     38 OD1        -1.0600   15.8300    4.3200 O.co2     3 ASP3        0.0000 
     39 OD1        -2.1600   16.8000    4.6100 O.co2     3 ASP3        0.0000 
     40 OD1        -2.1600   17.2300    3.1700 O.co2     3 ASP3        0.0000 
     41 OD1         3.2700   13.1000    6.6300 O.co2     3 ASP3        0.0000 
     42 OD1         2.1600   14.0700    6.9300 O.co2     3 ASP3        0.0000 
     43 OD1         1.0600   15.0500    7.2200 O.co2     3 ASP3        0.0000 
     44 CZ          2.1700   14.9400    4.0500 C.ar      4 PHE5        0.0000 
     45 CZ          2.1700   15.3700    2.6200 C.ar      4 PHE5        0.0000 
     46 CZ          1.0600   15.9100    4.3500 C.ar      4 PHE5        0.0000 
     47 CZ          1.0600   16.3400    2.9100 C.ar      4 PHE5        0.0000 
     48 CZ         -0.0400   16.8800    4.6400 C.ar      4 PHE5        0.0000 
     49 CZ         -0.0400   17.3200    3.2000 C.ar      4 PHE5        0.0000 
     50 CZ          3.1800   15.9900    4.3700 C.ar      4 PHE5        0.0000 
     51 CZ          3.1800   16.8600    1.5000 C.ar      4 PHE5        0.0000 
     52 CZ          0.9800   18.8000    2.0800 C.ar      4 PHE5        0.0000 
     53 CZ         -0.1300   18.9100    5.2500 C.ar      4 PHE5        0.0000 
     54 CZ         -0.1300   19.3500    3.8100 C.ar      4 PHE5        0.0000 
     55 CZ         -0.1300   19.7800    2.3800 C.ar      4 PHE5        0.0000 
     56 CZ         -1.2300   20.3200    4.1000 C.ar      4 PHE5        0.0000 
     57 CZ         -2.3300   21.2900    4.4000 C.ar      4 PHE5        0.0000 
     58 CZ         -2.3300   21.7200    2.9600 C.ar      4 PHE5        0.0000 
     59 CZ         -2.3300   22.1600    1.5200 C.ar      4 PHE5        0.0000 
     60 CZ          0.8900   20.4000    4.1300 C.ar      4 PHE5        0.0000 
     61 CZ          0.8900   20.8300    2.7000 C.ar      4 PHE5        0.0000 
     62 CZ         -0.2200   21.3800    4.4200 C.ar      4 PHE5        0.0000 
     63 CZ         -0.2100   21.8100    2.9900 C.ar      4 PHE5        0.0000 
     64 CA         -0.8000    8.8700    5.3600 C.3       5 GLY6        0.0000 
     65 CA         -1.9900   12.3100    4.8200 C.3       5 GLY6        0.0000 
     66 CA          3.4400    9.4700    3.9800 C.3       5 GLY6        0.0000 
     67 CA          2.3400   10.4500    4.2700 C.3       5 GLY6        0.0000 
     68 CA          4.4600   10.5300    4.3000 C.3       5 GLY6        0.0000 
     69 CA          3.3600   11.5000    4.5900 C.3       5 GLY6        0.0000 
     70 CA          3.3600   11.9300    3.1500 C.3       5 GLY6        0.0000 
     71 CA         -2.1600   16.3700    6.0500 C.3       5 GLY6        0.0000 
     72 CA         -2.2500   18.8300    5.2200 C.3       5 GLY6        0.0000 
     73 CA          4.2800   14.5900    5.5200 C.3       5 GLY6        0.0000 
     74 CA          4.2900   15.0200    4.0800 C.3       5 GLY6        0.0000 
     75 CA          4.2900   15.4500    2.6400 C.3       5 GLY6        0.0000 
     76 CA         -1.2300   19.8900    5.5400 C.3       5 GLY6        0.0000 
     77 CA         -3.4400   22.7000    3.2500 C.3       5 GLY6        0.0000 
     78 CA         -3.4400   23.1300    1.8200 C.3       5 GLY6        0.0000 
     79 DU          0.3100    7.9000    5.0700 H         6 CUB7        0.0000 
     80 DU          1.3200    8.9600    5.3900 H         6 CUB7        0.0000 
     81 DU          1.3200    9.3900    3.9500 H         6 CUB7        0.0000 
     82 DU          2.3400   10.0100    5.7000 H         6 CUB7        0.0000 
     83 DU          3.3500   11.0700    6.0200 H         6 CUB7        0.0000 
     84 DU          2.2500   12.4800    4.8800 H         6 CUB7        0.0000 
     85 DU          2.2500   12.9100    3.4400 H         6 CUB7        0.0000 
     86 DU          1.1500   13.8800    3.7300 H         6 CUB7        0.0000 
     87 DU          0.0500   14.8500    4.0300 H         6 CUB7        0.0000 
     88 DU         -3.2600   18.6400    2.0300 H         6 CUB7        0.0000 
     89 DU          3.2700   13.5300    5.2000 H         6 CUB7        0.0000 
     90 DU          3.2700   13.9600    3.7600 H         6 CUB7        0.0000 
     91 DU          2.1600   14.5000    5.4900 H         6 CUB7        0.0000 
     92 DU         -1.1400   18.2900    3.4900 H         6 CUB7        0.0000 
     93 DU         -1.1400   18.7200    2.0600 H         6 CUB7        0.0000 
     94 DU         -2.2500   19.2600    3.7900 H         6 CUB7        0.0000 
     95 DU         -2.2500   19.6900    2.3500 H         6 CUB7        0.0000 
     96 DU         -1.2300   20.7500    2.6700 H         6 CUB7        0.0000 
@<TRIPOS>BOND
@<TRIPOS>SUBSTRUCTURE
     1 SER1        1 GROUP   
     2 ALA2        7 GROUP   
     3 ASP3       22 GROUP   
     4 PHE5       44 GROUP   
     5 GLY6       64 GROUP   
     6 CUB7       79 GROUP   
@<TRIPOS>SET

