#    Name: 6qlg_1_FMN
#    Modification time : Fri May 22 19:28:54 2020

@<TRIPOS>MOLECULE
6qlg_1_FMN
   31    33     1     0     1
SMALL
NO_CHARGES


@<TRIPOS>ATOM
      1 N1        -15.4260  -27.4370   26.2400 N.2       1 FMN402      0.0000 
      2 C2        -14.3800  -26.8140   25.5930 C.2       1 FMN402      0.0000 
      3 O2        -14.5990  -26.1320   24.6000 O.2       1 FMN402      0.0000 
      4 N3        -13.0940  -26.9630   26.0650 N.am      1 FMN402      0.0000 
      5 C4        -12.8630  -27.7390   27.1870 C.2       1 FMN402      0.0000 
      6 O4        -11.7200  -27.8860   27.6270 O.2       1 FMN402      0.0000 
      7 C4A       -13.9120  -28.3680   27.8430 C.2       1 FMN402      0.0000 
      8 N5        -13.6520  -29.1370   28.9630 N.2       1 FMN402      0.0000 
      9 C5A       -14.6850  -29.7690   29.6300 C.ar      1 FMN402      0.0000 
     10 C6        -14.4310  -30.5480   30.7650 C.ar      1 FMN402      0.0000 
     11 C7        -15.4620  -31.1900   31.4450 C.ar      1 FMN402      0.0000 
     12 C7M       -15.1680  -32.0230   32.6640 C.3       1 FMN402      0.0000 
     13 C8        -16.7680  -31.0420   30.9740 C.ar      1 FMN402      0.0000 
     14 C8M       -17.9060  -31.7230   31.6830 C.3       1 FMN402      0.0000 
     15 C9        -17.0150  -30.2650   29.8360 C.ar      1 FMN402      0.0000 
     16 C9A       -15.9850  -29.6220   29.1570 C.ar      1 FMN402      0.0000 
     17 N10       -16.2410  -28.8370   28.0330 N.pl3     1 FMN402      0.0000 
     18 C10       -15.2010  -28.2150   27.3630 C.2       1 FMN402      0.0000 
     19 C1'       -17.6400  -28.6910   27.5000 C.3       1 FMN402      0.0000 
     20 C2'       -18.4030  -27.4470   27.9530 C.3       1 FMN402      0.0000 
     21 O2'       -18.5830  -27.4600   29.3540 O.3       1 FMN402      0.0000 
     22 C3'       -19.7560  -27.4170   27.2410 C.3       1 FMN402      0.0000 
     23 O3'       -19.5470  -27.2020   25.8630 O.3       1 FMN402      0.0000 
     24 C4'       -20.6910  -26.3400   27.7780 C.3       1 FMN402      0.0000 
     25 O4'       -21.8130  -26.2210   26.9310 O.3       1 FMN402      0.0000 
     26 C5'       -20.0060  -24.9840   27.8530 C.3       1 FMN402      0.0000 
     27 O5'       -20.8900  -24.1010   28.5010 O.3       1 FMN402      0.0000 
     28 P         -20.3920  -22.6650   29.0260 P.3       1 FMN402      0.0000 
     29 O1P       -21.5770  -21.7370   29.1150 O.co2     1 FMN402      0.0000 
     30 O2P       -19.7780  -22.8470   30.3930 O.co2     1 FMN402      0.0000 
     31 O3P       -19.3810  -22.0620   28.0770 O.co2     1 FMN402      0.0000 
@<TRIPOS>BOND
     1    1    2 1    
     2    1   18 2    
     3    2    3 2    
     4    2    4 am   
     5    4    5 am   
     6    5    6 2    
     7    5    7 1    
     8    7    8 2    
     9    7   18 1    
    10    8    9 1    
    11    9   10 ar   
    12    9   16 ar   
    13   10   11 ar   
    14   11   12 1    
    15   11   13 ar   
    16   13   14 1    
    17   13   15 ar   
    18   15   16 ar   
    19   16   17 1    
    20   17   18 1    
    21   17   19 1    
    22   19   20 1    
    23   20   21 1    
    24   20   22 1    
    25   22   23 1    
    26   22   24 1    
    27   24   25 1    
    28   24   26 1    
    29   26   27 1    
    30   27   28 1    
    31   28   29 ar   
    32   28   30 ar   
    33   28   31 ar   
@<TRIPOS>SUBSTRUCTURE
     1 FMN402      1 GROUP   
@<TRIPOS>SET
ATOM$ORANGE STATIC     ATOMS   COLORGROUP SYSTEM 
34 2 2 5 5 7 7 9 9 10 10 11 11 12 12 13 13 14 \
14 15 15 16 16 18 18 19 19 20 20 22 22 24 24 26 26 

