#    Name: 5gzl_2_NAD
#    Modification time : Fri May 22 19:12:15 2020

@<TRIPOS>MOLECULE
5gzl_2_NAD
   44    48     1     0     1
SMALL
NO_CHARGES


@<TRIPOS>ATOM
      1 PA         27.6810   35.9040   61.4480 P.3       1 NAD401      0.0000 
      2 O1A        27.8310   37.3760   61.5690 O.co2     1 NAD401      0.0000 
      3 O2A        26.6910   35.0870   62.2270 O.co2     1 NAD401      0.0000 
      4 O5B        27.4070   35.7200   59.8760 O.3       1 NAD401      0.0000 
      5 C5B        27.2280   34.4100   59.3310 C.3       1 NAD401      0.0000 
      6 C4B        26.1720   34.4480   58.2180 C.3       1 NAD401      0.0000 
      7 O4B        26.1620   33.2090   57.5440 O.3       1 NAD401      0.0000 
      8 C3B        24.7510   34.6780   58.7210 C.3       1 NAD401      0.0000 
      9 O3B        24.2850   35.9010   58.1910 O.3       1 NAD401      0.0000 
     10 C2B        24.0010   33.4320   58.3090 C.3       1 NAD401      0.0000 
     11 O2B        22.6280   33.6770   58.0810 O.3       1 NAD401      0.0000 
     12 C1B        24.8230   33.0100   57.0920 C.3       1 NAD401      0.0000 
     13 N9A        24.6720   31.6430   56.6830 N.pl3     1 NAD401      0.0000 
     14 C8A        24.4680   30.5390   57.4580 C.2       1 NAD401      0.0000 
     15 N7A        24.3550   29.4350   56.6660 N.2       1 NAD401      0.0000 
     16 C5A        24.5310   29.8450   55.4140 C.ar      1 NAD401      0.0000 
     17 C6A        24.4940   29.2210   54.1040 C.ar      1 NAD401      0.0000 
     18 N6A        24.3150   27.8950   53.9880 N.pl3     1 NAD401      0.0000 
     19 N1A        24.6700   29.9940   53.0400 N.ar      1 NAD401      0.0000 
     20 C2A        24.8290   31.3300   53.1200 C.ar      1 NAD401      0.0000 
     21 N3A        24.8140   31.9730   54.2910 N.ar      1 NAD401      0.0000 
     22 C4A        24.6520   31.2890   55.4160 C.ar      1 NAD401      0.0000 
     23 O3         29.1270   35.1610   61.6880 O.3       1 NAD401      0.0000 
     24 PN         30.5460   35.7350   61.1670 P.3       1 NAD401      0.0000 
     25 O1N        30.3970   36.4150   59.8600 O.co2     1 NAD401      0.0000 
     26 O2N        31.2210   36.4870   62.2720 O.co2     1 NAD401      0.0000 
     27 O5D        31.3700   34.3610   61.0540 O.3       1 NAD401      0.0000 
     28 C5D        31.1380   33.4790   59.9360 C.3       1 NAD401      0.0000 
     29 C4D        32.0890   32.3050   59.9340 C.3       1 NAD401      0.0000 
     30 O4D        33.4730   32.7770   59.8730 O.3       1 NAD401      0.0000 
     31 C3D        32.0040   31.4740   61.2030 C.3       1 NAD401      0.0000 
     32 O3D        32.2520   30.1130   60.8620 O.3       1 NAD401      0.0000 
     33 C2D        33.1060   32.0250   62.0640 C.3       1 NAD401      0.0000 
     34 O2D        33.5260   31.1860   63.1160 O.3       1 NAD401      0.0000 
     35 C1D        34.1600   32.1820   60.9820 C.3       1 NAD401      0.0000 
     36 N1N        35.3260   32.9610   61.3360 N.pl3     1 NAD401      0.0000 
     37 C2N        36.4950   32.5350   60.8330 C.ar      1 NAD401      0.0000 
     38 C3N        37.6600   33.2400   61.1040 C.ar      1 NAD401      0.0000 
     39 C7N        38.8930   32.8230   60.3970 C.2       1 NAD401      0.0000 
     40 O7N        38.8820   32.0840   59.3560 O.2       1 NAD401      0.0000 
     41 N7N        39.9810   33.4280   60.7620 N.am      1 NAD401      0.0000 
     42 C4N        37.6310   34.3520   61.9950 C.ar      1 NAD401      0.0000 
     43 C5N        36.3610   34.8050   62.4510 C.ar      1 NAD401      0.0000 
     44 C6N        35.2340   34.0620   62.1160 C.ar      1 NAD401      0.0000 
@<TRIPOS>BOND
     1    1    2 ar   
     2    1    3 ar   
     3    1    4 1    
     4    1   23 1    
     5    4    5 1    
     6    5    6 1    
     7    6    7 1    
     8    6    8 1    
     9    7   12 1    
    10    8    9 1    
    11    8   10 1    
    12   10   11 1    
    13   10   12 1    
    14   12   13 1    
    15   13   14 1    
    16   13   22 1    
    17   14   15 2    
    18   15   16 1    
    19   16   17 ar   
    20   16   22 ar   
    21   17   18 1    
    22   17   19 ar   
    23   19   20 ar   
    24   20   21 ar   
    25   21   22 ar   
    26   23   24 1    
    27   24   25 ar   
    28   24   26 ar   
    29   24   27 1    
    30   27   28 1    
    31   28   29 1    
    32   29   30 1    
    33   29   31 1    
    34   30   35 1    
    35   31   32 1    
    36   31   33 1    
    37   33   34 1    
    38   33   35 1    
    39   35   36 1    
    40   36   37 ar   
    41   36   44 ar   
    42   37   38 ar   
    43   38   39 1    
    44   38   42 ar   
    45   39   40 2    
    46   39   41 am   
    47   42   43 ar   
    48   43   44 ar   
@<TRIPOS>SUBSTRUCTURE
     1 NAD401      1 GROUP   
@<TRIPOS>SET
ATOM$ORANGE STATIC     ATOMS   COLORGROUP SYSTEM 
42 5 5 6 6 8 8 10 10 12 12 14 14 16 16 17 17 20 \
20 22 22 28 28 29 29 31 31 33 33 35 35 37 37 38 38 39 \
39 42 42 43 43 44 44 

