#    Name: 6his_4_TKT
#    Modification time : Fri May 22 19:24:55 2020

@<TRIPOS>MOLECULE
6his_4_TKT
   21    24     1     0     0
SMALL
NO_CHARGES


@<TRIPOS>ATOM
      1 C12       131.2980  150.8880  150.6970 C.2       1 TKT501      0.0000 
      2 O4        131.8780  149.0930  152.0900 O.2       1 TKT501      0.0000 
      3 C8        137.8490  147.4700  151.7740 C.3       1 TKT501      0.0000 
      4 C9        132.2640  149.8740  151.2950 C.2       1 TKT501      0.0000 
      5 C11       130.5850  150.7550  149.5140 C.2       1 TKT501      0.0000 
      6 O3        133.6060  149.8690  150.9090 O.3       1 TKT501      0.0000 
      7 C7        136.0950  149.2490  152.9180 C.3       1 TKT501      0.0000 
      8 C6        136.6490  149.9870  151.6580 C.3       1 TKT501      0.0000 
      9 N1        136.6100  147.7200  151.2900 N.4       1 TKT501      0.0000 
     10 C5        136.6550  148.7910  150.5860 C.3       1 TKT501      0.0000 
     11 C4        135.4250  148.9460  149.6860 C.3       1 TKT501      0.0000 
     12 C1        135.7880  147.8110  152.2740 C.3       1 TKT501      0.0000 
     13 C2        134.3180  147.7820  151.8370 C.3       1 TKT501      0.0000 
     14 C3        134.0510  148.7080  150.5250 C.3       1 TKT501      0.0000 
     15 C13       129.8780  154.6840  151.7690 C.ar      1 TKT501      0.0000 
     16 C15       130.0530  152.7110  150.3630 C.ar      1 TKT501      0.0000 
     17 C16       130.9440  152.1540  151.2330 C.ar      1 TKT501      0.0000 
     18 C17       131.3220  152.8600  152.3990 C.ar      1 TKT501      0.0000 
     19 C18       130.7880  154.1170  152.6580 C.ar      1 TKT501      0.0000 
     20 N10       129.8580  151.8430  149.3370 N.pl3     1 TKT501      0.0000 
     21 C21       129.5080  153.9910  150.6260 C.ar      1 TKT501      0.0000 
@<TRIPOS>BOND
     1    1    4 1    
     2    1    5 2    
     3    1   17 1    
     4    2    4 2    
     5    3    9 1    
     6    4    6 1    
     7    5   20 1    
     8    6   14 1    
     9    7    8 1    
    10    7   12 1    
    11    8   10 1    
    12    9   10 1    
    13    9   12 1    
    14   10   11 1    
    15   11   14 1    
    16   12   13 1    
    17   13   14 1    
    18   15   19 ar   
    19   15   21 ar   
    20   16   17 ar   
    21   16   20 1    
    22   16   21 ar   
    23   17   18 ar   
    24   18   19 ar   
@<TRIPOS>SUBSTRUCTURE
     1 TKT501      1 GROUP   
@<TRIPOS>SET

