#    Name: 6his_3_TKT
#    Modification time : Fri May 22 19:24:44 2020

@<TRIPOS>MOLECULE
6his_3_TKT
   21    24     1     0     0
SMALL
NO_CHARGES


@<TRIPOS>ATOM
      1 C12       101.7340  139.0270  150.7050 C.2       1 TKT508      0.0000 
      2 O4        103.6190  139.0290  152.1010 O.2       1 TKT508      0.0000 
      3 C8        106.9930  144.2160  151.7900 C.3       1 TKT508      0.0000 
      4 C9        102.9950  139.6370  151.3050 C.2       1 TKT508      0.0000 
      5 C11       101.6440  138.3080  149.5220 C.2       1 TKT508      0.0000 
      6 O3        103.4120  140.9120  150.9200 O.3       1 TKT508      0.0000 
      7 C7        104.7610  143.0920  152.9310 C.3       1 TKT508      0.0000 
      8 C6        104.2300  143.8450  151.6700 C.3       1 TKT508      0.0000 
      9 N1        106.3770  143.1130  151.3050 N.4       1 TKT508      0.0000 
     10 C5        105.3730  143.4840  150.6000 C.3       1 TKT508      0.0000 
     11 C4        104.8500  142.3610  149.6990 C.3       1 TKT508      0.0000 
     12 C1        106.0370  142.3580  152.2880 C.3       1 TKT508      0.0000 
     13 C2        105.6150  140.9500  151.8510 C.3       1 TKT508      0.0000 
     14 C3        104.6530  140.9790  150.5370 C.3       1 TKT508      0.0000 
     15 C13        97.6840  138.8400  151.7700 C.ar      1 TKT508      0.0000 
     16 C15        99.6190  138.4000  150.3670 C.ar      1 TKT508      0.0000 
     17 C16       100.4210  139.0780  151.2390 C.ar      1 TKT508      0.0000 
     18 C17        99.8620  139.6550  152.4030 C.ar      1 TKT508      0.0000 
     19 C18        98.5010  139.5320  152.6610 C.ar      1 TKT508      0.0000 
     20 N10       100.3860  137.9490  149.3430 N.pl3     1 TKT508      0.0000 
     21 C21        98.2320  138.2750  150.6280 C.ar      1 TKT508      0.0000 
@<TRIPOS>BOND
     1    1    4 1    
     2    1    5 2    
     3    1   17 1    
     4    2    4 2    
     5    3    9 1    
     6    4    6 1    
     7    5   20 1    
     8    6   14 1    
     9    7    8 1    
    10    7   12 1    
    11    8   10 1    
    12    9   10 1    
    13    9   12 1    
    14   10   11 1    
    15   11   14 1    
    16   12   13 1    
    17   13   14 1    
    18   15   19 ar   
    19   15   21 ar   
    20   16   17 ar   
    21   16   20 1    
    22   16   21 ar   
    23   17   18 ar   
    24   18   19 ar   
@<TRIPOS>SUBSTRUCTURE
     1 TKT508      1 GROUP   
@<TRIPOS>SET

