#    Name: 6his_1_TKT
#    Modification time : Fri May 22 19:24:25 2020

@<TRIPOS>MOLECULE
6his_1_TKT
   21    24     1     0     0
SMALL
NO_CHARGES


@<TRIPOS>ATOM
      1 C12       134.7880   99.6530  150.6860 C.2       1 TKT508      0.0000 
      2 O4        133.2610  100.7620  152.0810 O.2       1 TKT508      0.0000 
      3 C8        127.4820   98.5530  151.7690 C.3       1 TKT508      0.0000 
      4 C9        133.4090   99.9030  151.2850 C.2       1 TKT508      0.0000 
      5 C11       135.2840  100.1810  149.5030 C.2       1 TKT508      0.0000 
      6 O3        132.3220   99.1170  150.9000 O.3       1 TKT508      0.0000 
      7 C7        129.9470   98.1490  152.9100 C.3       1 TKT508      0.0000 
      8 C6        129.9340   97.2260  151.6500 C.3       1 TKT508      0.0000 
      9 N1        128.6290   99.0820  151.2830 N.4       1 TKT508      0.0000 
     10 C5        129.2230   98.1900  150.5790 C.3       1 TKT508      0.0000 
     11 C4        130.3080   98.7900  149.6780 C.3       1 TKT508      0.0000 
     12 C1        129.3480   99.4930  152.2670 C.3       1 TKT508      0.0000 
     13 C2        130.5180  100.3820  151.8300 C.3       1 TKT508      0.0000 
     14 C3        131.2790   99.7920  150.5160 C.3       1 TKT508      0.0000 
     15 C13       138.1730   97.4220  151.7540 C.ar      1 TKT508      0.0000 
     16 C15       136.8670   98.9150  150.3490 C.ar      1 TKT508      0.0000 
     17 C16       135.8200   98.8390  151.2210 C.ar      1 TKT508      0.0000 
     18 C17       135.9310   98.0450  152.3860 C.ar      1 TKT508      0.0000 
     19 C18       137.1040   97.3440  152.6450 C.ar      1 TKT508      0.0000 
     20 N10       136.5130   99.7310  149.3250 N.pl3     1 TKT508      0.0000 
     21 C21       138.0630   98.2010  150.6120 C.ar      1 TKT508      0.0000 
@<TRIPOS>BOND
     1    1    4 1    
     2    1    5 2    
     3    1   17 1    
     4    2    4 2    
     5    3    9 1    
     6    4    6 1    
     7    5   20 1    
     8    6   14 1    
     9    7    8 1    
    10    7   12 1    
    11    8   10 1    
    12    9   10 1    
    13    9   12 1    
    14   10   11 1    
    15   11   14 1    
    16   12   13 1    
    17   13   14 1    
    18   15   19 ar   
    19   15   21 ar   
    20   16   17 ar   
    21   16   20 1    
    22   16   21 ar   
    23   17   18 ar   
    24   18   19 ar   
@<TRIPOS>SUBSTRUCTURE
     1 TKT508      1 GROUP   
@<TRIPOS>SET

