#    Name: 6his_5_TKT
#    Modification time : Fri May 22 19:25:06 2020

@<TRIPOS>MOLECULE
6his_5_TKT
   21    24     1     0     0
SMALL
NO_CHARGES


@<TRIPOS>ATOM
      1 C12       151.7070  126.5460  150.6320 C.2       1 TKT501      0.0000 
      2 O4        150.1830  125.4360  152.0280 O.2       1 TKT501      0.0000 
      3 C8        150.4980  119.2570  151.7140 C.3       1 TKT501      0.0000 
      4 C9        151.0440  125.3120  151.2310 C.2       1 TKT501      0.0000 
      5 C11       151.3580  127.1810  149.4490 C.2       1 TKT501      0.0000 
      6 O3        151.4560  124.0350  150.8460 O.3       1 TKT501      0.0000 
      7 C7        151.6440  121.4770  152.8550 C.3       1 TKT501      0.0000 
      8 C6        152.5170  121.1800  151.5950 C.3       1 TKT501      0.0000 
      9 N1        150.3490  120.5120  151.2290 N.4       1 TKT501      0.0000 
     10 C5        151.3800  120.8020  150.5240 C.3       1 TKT501      0.0000 
     11 C4        151.1440  122.0190  149.6240 C.3       1 TKT501      0.0000 
     12 C1        150.1810  121.3230  152.2130 C.3       1 TKT501      0.0000 
     13 C2        149.6960  122.7100  151.7770 C.3       1 TKT501      0.0000 
     14 C3        150.4920  123.2520  150.4620 C.3       1 TKT501      0.0000 
     15 C13       154.8750  129.0760  151.6990 C.ar      1 TKT501      0.0000 
     16 C15       153.0510  128.2960  150.2950 C.ar      1 TKT501      0.0000 
     17 C16       152.8000  127.2760  151.1670 C.ar      1 TKT501      0.0000 
     18 C17       153.5910  127.1370  152.3310 C.ar      1 TKT501      0.0000 
     19 C18       154.6210  128.0360  152.5890 C.ar      1 TKT501      0.0000 
     20 N10       152.1650  128.2110  149.2720 N.pl3     1 TKT501      0.0000 
     21 C21       154.1000  129.2120  150.5570 C.ar      1 TKT501      0.0000 
@<TRIPOS>BOND
     1    1    4 1    
     2    1    5 2    
     3    1   17 1    
     4    2    4 2    
     5    3    9 1    
     6    4    6 1    
     7    5   20 1    
     8    6   14 1    
     9    7    8 1    
    10    7   12 1    
    11    8   10 1    
    12    9   10 1    
    13    9   12 1    
    14   10   11 1    
    15   11   14 1    
    16   12   13 1    
    17   13   14 1    
    18   15   19 ar   
    19   15   21 ar   
    20   16   17 ar   
    21   16   20 1    
    22   16   21 ar   
    23   17   18 ar   
    24   18   19 ar   
@<TRIPOS>SUBSTRUCTURE
     1 TKT501      1 GROUP   
@<TRIPOS>SET

