#    Name: 6his_2_TKT
#    Modification time : Fri May 22 19:24:34 2020

@<TRIPOS>MOLECULE
6his_2_TKT
   21    24     1     0     0
SMALL
NO_CHARGES


@<TRIPOS>ATOM
      1 C12       103.9230  107.3630  150.7030 C.2       1 TKT508      0.0000 
      2 O4        104.5080  109.1560  152.0980 O.2       1 TKT508      0.0000 
      3 C8        100.6290  113.9760  151.7820 C.3       1 TKT508      0.0000 
      4 C9        103.7370  108.7510  151.3020 C.2       1 TKT508      0.0000 
      5 C11       104.5780  107.0520  149.5210 C.2       1 TKT508      0.0000 
      6 O3        102.6550  109.5440  150.9160 O.3       1 TKT508      0.0000 
      7 C7        101.0020  111.5070  152.9250 C.3       1 TKT508      0.0000 
      8 C6        100.1210  111.2350  151.6650 C.3       1 TKT508      0.0000 
      9 N1        101.4850  113.0470  151.2980 N.4       1 TKT508      0.0000 
     10 C5        100.8200  112.2070  150.5940 C.3       1 TKT508      0.0000 
     11 C4        101.7250  111.3590  149.6930 C.3       1 TKT508      0.0000 
     12 C1        102.0970  112.4890  152.2810 C.3       1 TKT508      0.0000 
     13 C2        103.3040  111.6500  151.8460 C.3       1 TKT508      0.0000 
     14 C3        102.9760  110.7430  150.5320 C.3       1 TKT508      0.0000 
     15 C13       102.8410  103.4550  151.7730 C.ar      1 TKT508      0.0000 
     16 C15       103.8610  105.1560  150.3680 C.ar      1 TKT508      0.0000 
     17 C16       103.4660  106.1310  151.2390 C.ar      1 TKT508      0.0000 
     18 C17       102.7450  105.7800  152.4040 C.ar      1 TKT508      0.0000 
     19 C18       102.4380  104.4490  152.6630 C.ar      1 TKT508      0.0000 
     20 N10       104.5290  105.7440  149.3440 N.pl3     1 TKT508      0.0000 
     21 C21       103.5490  103.7990  150.6310 C.ar      1 TKT508      0.0000 
@<TRIPOS>BOND
     1    1    4 1    
     2    1    5 2    
     3    1   17 1    
     4    2    4 2    
     5    3    9 1    
     6    4    6 1    
     7    5   20 1    
     8    6   14 1    
     9    7    8 1    
    10    7   12 1    
    11    8   10 1    
    12    9   10 1    
    13    9   12 1    
    14   10   11 1    
    15   11   14 1    
    16   12   13 1    
    17   13   14 1    
    18   15   19 ar   
    19   15   21 ar   
    20   16   17 ar   
    21   16   20 1    
    22   16   21 ar   
    23   17   18 ar   
    24   18   19 ar   
@<TRIPOS>SUBSTRUCTURE
     1 TKT508      1 GROUP   
@<TRIPOS>SET

