#    Name: 6mdq_2_TES
#    Modification time : Fri May 22 19:37:07 2020

@<TRIPOS>MOLECULE
6mdq_2_TES
   21    24     1     0     0
SMALL
NO_CHARGES


@<TRIPOS>ATOM
      1 C1         56.4620   38.0290   68.8540 C.3       1 TES605      0.0000 
      2 C2         55.6570   39.1780   68.2530 C.3       1 TES605      0.0000 
      3 C3         55.4180   38.9650   66.7990 C.2       1 TES605      0.0000 
      4 O3         55.3380   39.9010   66.0120 O.2       1 TES605      0.0000 
      5 C4         55.2870   37.5880   66.3620 C.2       1 TES605      0.0000 
      6 C5         55.3620   36.5330   67.1850 C.2       1 TES605      0.0000 
      7 C6         54.9730   35.1650   66.7110 C.3       1 TES605      0.0000 
      8 C7         56.0260   34.1140   67.0450 C.3       1 TES605      0.0000 
      9 C8         56.4010   34.1380   68.5260 C.3       1 TES605      0.0000 
     10 C9         56.8740   35.5410   68.9350 C.3       1 TES605      0.0000 
     11 C10        55.8170   36.6480   68.6360 C.3       1 TES605      0.0000 
     12 C11        57.4190   35.5830   70.3710 C.3       1 TES605      0.0000 
     13 C12        58.4520   34.4940   70.6700 C.3       1 TES605      0.0000 
     14 C13        57.9490   33.0910   70.3120 C.3       1 TES605      0.0000 
     15 C14        57.5100   33.1270   68.8350 C.3       1 TES605      0.0000 
     16 C15        57.3190   31.6470   68.4790 C.3       1 TES605      0.0000 
     17 C16        58.4060   30.9250   69.3000 C.3       1 TES605      0.0000 
     18 C17        59.0190   31.9880   70.2230 C.3       1 TES605      0.0000 
     19 O17        59.4160   31.4310   71.4790 O.3       1 TES605      0.0000 
     20 C18        56.8220   32.6570   71.2680 C.3       1 TES605      0.0000 
     21 C19        54.5720   36.5160   69.5370 C.3       1 TES605      0.0000 
@<TRIPOS>BOND
     1    1    2 1    
     2    1   11 1    
     3    2    3 1    
     4    3    4 2    
     5    3    5 1    
     6    5    6 2    
     7    6    7 1    
     8    6   11 1    
     9    7    8 1    
    10    8    9 1    
    11    9   10 1    
    12    9   15 1    
    13   10   11 1    
    14   10   12 1    
    15   11   21 1    
    16   12   13 1    
    17   13   14 1    
    18   14   15 1    
    19   14   18 1    
    20   14   20 1    
    21   15   16 1    
    22   16   17 1    
    23   17   18 1    
    24   18   19 1    
@<TRIPOS>SUBSTRUCTURE
     1 TES605      1 GROUP   
@<TRIPOS>SET

