#    Name: 6mdq_1_TES
#    Modification time : Fri May 22 19:37:02 2020

@<TRIPOS>MOLECULE
6mdq_1_TES
   21    24     1     0     0
SMALL
NO_CHARGES


@<TRIPOS>ATOM
      1 C1         33.0240   16.7240   92.8130 C.3       1 TES604      0.0000 
      2 C2         34.0800   17.7370   93.2510 C.3       1 TES604      0.0000 
      3 C3         35.2300   17.0650   93.9220 C.2       1 TES604      0.0000 
      4 O3         35.8830   17.6230   94.7960 O.2       1 TES604      0.0000 
      5 C4         35.5390   15.7140   93.4840 C.2       1 TES604      0.0000 
      6 C5         34.8670   15.0680   92.5210 C.2       1 TES604      0.0000 
      7 C6         35.3870   13.7720   91.9660 C.3       1 TES604      0.0000 
      8 C7         34.3030   12.7040   91.8830 C.3       1 TES604      0.0000 
      9 C8         33.0830   13.2100   91.1150 C.3       1 TES604      0.0000 
     10 C9         32.5230   14.4770   91.7820 C.3       1 TES604      0.0000 
     11 C10        33.5830   15.6160   91.9020 C.3       1 TES604      0.0000 
     12 C11        31.2000   14.9400   91.1480 C.3       1 TES604      0.0000 
     13 C12        30.1610   13.8290   90.9850 C.3       1 TES604      0.0000 
     14 C13        30.7240   12.6100   90.2470 C.3       1 TES604      0.0000 
     15 C14        31.9770   12.1520   91.0220 C.3       1 TES604      0.0000 
     16 C15        32.2840   10.7670   90.4310 C.3       1 TES604      0.0000 
     17 C16        30.9000   10.1900   90.0730 C.3       1 TES604      0.0000 
     18 C17        29.8920   11.3190   90.3300 C.3       1 TES604      0.0000 
     19 O17        28.7880   11.2530   89.4220 O.3       1 TES604      0.0000 
     20 C18        31.0160   12.9540   88.7740 C.3       1 TES604      0.0000 
     21 C19        33.9360   16.2190   90.5270 C.3       1 TES604      0.0000 
@<TRIPOS>BOND
     1    1    2 1    
     2    1   11 1    
     3    2    3 1    
     4    3    4 2    
     5    3    5 1    
     6    5    6 2    
     7    6    7 1    
     8    6   11 1    
     9    7    8 1    
    10    8    9 1    
    11    9   10 1    
    12    9   15 1    
    13   10   11 1    
    14   10   12 1    
    15   11   21 1    
    16   12   13 1    
    17   13   14 1    
    18   14   15 1    
    19   14   18 1    
    20   14   20 1    
    21   15   16 1    
    22   16   17 1    
    23   17   18 1    
    24   18   19 1    
@<TRIPOS>SUBSTRUCTURE
     1 TES604      1 GROUP   
@<TRIPOS>SET

