#    Name: 6fii_1_GTP_CAVITY_N1_6
#    Modification time : Fri May 22 19:31:02 2020

@<TRIPOS>MOLECULE
6fii_1_GTP_CAVITY_N1_6
    7     0     3     0     0
SMALL
NO_CHARGES


@<TRIPOS>ATOM
      1 O          22.1600   78.2000   42.7600 O.2       1 ALA2        0.0000 
      2 O          21.5300   77.0200   43.4400 O.2       1 ALA2        0.0000 
      3 N          20.9000   75.8500   44.1200 N.am      1 ALA2        0.0000 
      4 OD1        22.6200   75.0200   40.9800 O.co2     2 ASP3        0.0000 
      5 OD1        21.9900   73.8400   41.6600 O.co2     2 ASP3        0.0000 
      6 OD1        22.7500   75.7100   42.3000 O.co2     2 ASP3        0.0000 
      7 NZ         23.2500   76.2000   40.3000 N.4       3 LYS4        0.0000 
@<TRIPOS>BOND
@<TRIPOS>SUBSTRUCTURE
     1 ALA2        1 GROUP   
     2 ASP3        4 GROUP   
     3 LYS4        7 GROUP   
@<TRIPOS>SET

