#    Name: 6fii_1_GTP
#    Modification time : Fri May 22 19:31:00 2020

@<TRIPOS>MOLECULE
6fii_1_GTP
   32    34     1     0     1
SMALL
NO_CHARGES


@<TRIPOS>ATOM
      1 PG         27.5970   74.7560   46.0530 P.3       1 GTP501      0.0000 
      2 O1G        28.8040   74.9540   45.1650 O.co2     1 GTP501      0.0000 
      3 O2G        26.3710   75.2560   45.3210 O.co2     1 GTP501      0.0000 
      4 O3G        27.4550   73.2980   46.4450 O.co2     1 GTP501      0.0000 
      5 O3B        27.8340   75.5450   47.4410 O.3       1 GTP501      0.0000 
      6 PB         26.8800   76.7000   48.0160 P.3       1 GTP501      0.0000 
      7 O1B        26.5420   77.7100   46.9450 O.co2     1 GTP501      0.0000 
      8 O2B        27.6430   77.3040   49.1700 O.co2     1 GTP501      0.0000 
      9 O3A        25.5460   75.9460   48.5250 O.3       1 GTP501      0.0000 
     10 PA         24.3620   76.6400   49.3820 P.3       1 GTP501      0.0000 
     11 O1A        23.1330   76.9140   48.5580 O.co2     1 GTP501      0.0000 
     12 O2A        24.8380   77.9120   50.0480 O.co2     1 GTP501      0.0000 
     13 O5'        24.0380   75.5050   50.4660 O.3       1 GTP501      0.0000 
     14 C5'        22.7780   74.8930   50.5190 C.3       1 GTP501      0.0000 
     15 C4'        22.2090   75.0620   51.9230 C.3       1 GTP501      0.0000 
     16 O4'        22.1110   76.4410   52.2030 O.3       1 GTP501      0.0000 
     17 C3'        20.8060   74.4970   52.0000 C.3       1 GTP501      0.0000 
     18 O3'        20.6080   73.9940   53.3020 O.3       1 GTP501      0.0000 
     19 C2'        19.9190   75.7000   51.7660 C.3       1 GTP501      0.0000 
     20 O2'        18.6960   75.5580   52.4430 O.3       1 GTP501      0.0000 
     21 C1'        20.7520   76.8260   52.3510 C.3       1 GTP501      0.0000 
     22 N9         20.5610   78.1230   51.6690 N.pl3     1 GTP501      0.0000 
     23 C8         20.9030   78.4740   50.3830 C.2       1 GTP501      0.0000 
     24 N7         20.5680   79.7760   50.1890 N.2       1 GTP501      0.0000 
     25 C5         20.0300   80.2580   51.3400 C.2       1 GTP501      0.0000 
     26 C6         19.5300   81.5010   51.7150 C.2       1 GTP501      0.0000 
     27 O6         19.5160   82.4450   50.9290 O.2       1 GTP501      0.0000 
     28 N1         19.0340   81.6810   52.9850 N.am      1 GTP501      0.0000 
     29 C2         19.0470   80.6380   53.8850 C.2       1 GTP501      0.0000 
     30 N2         18.5700   80.8080   55.1160 N.pl3     1 GTP501      0.0000 
     31 N3         19.5470   79.4120   53.5140 N.2       1 GTP501      0.0000 
     32 C4         20.0260   79.2300   52.2690 C.2       1 GTP501      0.0000 
@<TRIPOS>BOND
     1    1    2 ar   
     2    1    3 ar   
     3    1    4 ar   
     4    1    5 1    
     5    5    6 1    
     6    6    7 ar   
     7    6    8 ar   
     8    6    9 1    
     9    9   10 1    
    10   10   11 ar   
    11   10   12 ar   
    12   10   13 1    
    13   13   14 1    
    14   14   15 1    
    15   15   16 1    
    16   15   17 1    
    17   16   21 1    
    18   17   18 1    
    19   17   19 1    
    20   19   20 1    
    21   19   21 1    
    22   21   22 1    
    23   22   23 1    
    24   22   32 1    
    25   23   24 2    
    26   24   25 1    
    27   25   26 1    
    28   25   32 2    
    29   26   27 2    
    30   26   28 am   
    31   28   29 1    
    32   29   30 1    
    33   29   31 2    
    34   31   32 1    
@<TRIPOS>SUBSTRUCTURE
     1 GTP501      1 GROUP   
@<TRIPOS>SET
ATOM$ORANGE STATIC     ATOMS   COLORGROUP SYSTEM 
20 14 14 15 15 17 17 19 19 21 21 23 23 25 25 26 26 29 \
29 32 32 

