#    Name: 6fii_1_GTP_CAVITY_N1_8
#    Modification time : Fri May 22 19:31:02 2020

@<TRIPOS>MOLECULE
6fii_1_GTP_CAVITY_N1_8
   25     0     4     0     0
SMALL
NO_CHARGES


@<TRIPOS>ATOM
      1 N          20.6700   78.1200   41.2400 N.am      1 ALA2        0.0000 
      2 N          21.4000   76.3300   42.1100 N.am      1 ALA2        0.0000 
      3 N          20.0400   76.9400   41.9200 N.am      1 ALA2        0.0000 
      4 N          20.7700   75.1500   42.8000 N.am      1 ALA2        0.0000 
      5 O          21.4300   80.0000   41.8800 O.2       1 ALA2        0.0000 
      6 O          22.1600   78.2000   42.7600 O.2       1 ALA2        0.0000 
      7 O          20.8000   78.8200   42.5700 O.2       1 ALA2        0.0000 
      8 O          19.4500   79.4300   42.3700 O.2       1 ALA2        0.0000 
      9 O          21.5300   77.0200   43.4400 O.2       1 ALA2        0.0000 
     10 O          20.1700   77.6400   43.2500 O.2       1 ALA2        0.0000 
     11 N          20.9000   75.8500   44.1200 N.am      1 ALA2        0.0000 
     12 O          20.2100   81.3100   43.0200 O.2       1 ALA2        0.0000 
     13 O          18.8600   81.9200   42.8300 O.2       1 ALA2        0.0000 
     14 N          19.6200   83.7900   43.4700 N.am      1 ALA2        0.0000 
     15 N          18.9900   82.6200   44.1500 N.am      1 ALA2        0.0000 
     16 OD1        22.6200   75.0200   40.9800 O.co2     2 ASP3        0.0000 
     17 OD1        21.9900   73.8400   41.6600 O.co2     2 ASP3        0.0000 
     18 OD1        22.7500   75.7100   42.3000 O.co2     2 ASP3        0.0000 
     19 NZ         22.5300   77.9900   39.4300 N.4       3 LYS4        0.0000 
     20 NZ         23.2500   76.2000   40.3000 N.4       3 LYS4        0.0000 
     21 NZ         21.9000   76.8100   40.1100 N.4       3 LYS4        0.0000 
     22 NZ         22.0300   77.5100   41.4300 N.4       3 LYS4        0.0000 
     23 CA         22.4900   74.3200   39.6600 C.3       4 GLY6        0.0000 
     24 CA         21.2700   75.6300   40.7900 C.3       4 GLY6        0.0000 
     25 CA         20.6400   74.4500   41.4700 C.3       4 GLY6        0.0000 
@<TRIPOS>BOND
@<TRIPOS>SUBSTRUCTURE
     1 ALA2        1 GROUP   
     2 ASP3       16 GROUP   
     3 LYS4       19 GROUP   
     4 GLY6       23 GROUP   
@<TRIPOS>SET

