#    Name: 6fii_1_GTP_CAVITY_N1_12
#    Modification time : Fri May 22 19:31:02 2020

@<TRIPOS>MOLECULE
6fii_1_GTP_CAVITY_N1_12
   70     0     6     0     0
SMALL
NO_CHARGES


@<TRIPOS>ATOM
      1 OG         21.6800   79.0900   37.2300 O.3       1 SER1        0.0000 
      2 N          19.0600   77.3500   38.4100 N.am      2 ALA2        0.0000 
      3 O          18.4700   79.8400   38.8600 O.2       2 ALA2        0.0000 
      4 N          20.5400   77.4300   39.9200 N.am      2 ALA2        0.0000 
      5 N          19.1900   78.0400   39.7300 N.am      2 ALA2        0.0000 
      6 N          17.8300   78.6600   39.5400 N.am      2 ALA2        0.0000 
      7 N          19.9100   76.2500   40.6000 N.am      2 ALA2        0.0000 
      8 N          20.6700   78.1200   41.2400 N.am      2 ALA2        0.0000 
      9 N          19.3200   78.7400   41.0500 N.am      2 ALA2        0.0000 
     10 N          17.9600   79.3500   40.8600 N.am      2 ALA2        0.0000 
     11 O          16.6100   79.9700   40.6700 O.2       2 ALA2        0.0000 
     12 N          21.4000   76.3300   42.1100 N.am      2 ALA2        0.0000 
     13 N          20.0400   76.9400   41.9200 N.am      2 ALA2        0.0000 
     14 N          20.7700   75.1500   42.8000 N.am      2 ALA2        0.0000 
     15 O          21.4300   80.0000   41.8800 O.2       2 ALA2        0.0000 
     16 O          20.0800   80.6100   41.6900 O.2       2 ALA2        0.0000 
     17 O          22.1600   78.2000   42.7600 O.2       2 ALA2        0.0000 
     18 O          20.8000   78.8200   42.5700 O.2       2 ALA2        0.0000 
     19 O          19.4500   79.4300   42.3700 O.2       2 ALA2        0.0000 
     20 O          18.0900   80.0500   42.1800 O.2       2 ALA2        0.0000 
     21 O          21.5300   77.0200   43.4400 O.2       2 ALA2        0.0000 
     22 O          20.1700   77.6400   43.2500 O.2       2 ALA2        0.0000 
     23 O          16.1100   79.4900   42.6800 O.2       2 ALA2        0.0000 
     24 N          20.9000   75.8500   44.1200 N.am      2 ALA2        0.0000 
     25 N          21.4700   83.6600   41.6500 N.am      2 ALA2        0.0000 
     26 O          20.2100   81.3100   43.0200 O.2       2 ALA2        0.0000 
     27 O          18.8600   81.9200   42.8300 O.2       2 ALA2        0.0000 
     28 N          19.6200   83.7900   43.4700 N.am      2 ALA2        0.0000 
     29 N          18.9900   82.6200   44.1500 N.am      2 ALA2        0.0000 
     30 OD1        19.6900   78.5200   37.7300 O.co2     3 ASP3        0.0000 
     31 OD1        22.6200   75.0200   40.9800 O.co2     3 ASP3        0.0000 
     32 OD1        21.9900   73.8400   41.6600 O.co2     3 ASP3        0.0000 
     33 OD1        22.7500   75.7100   42.3000 O.co2     3 ASP3        0.0000 
     34 NZ         22.5300   77.9900   39.4300 N.4       4 LYS4        0.0000 
     35 NZ         21.1700   78.6000   39.2400 N.4       4 LYS4        0.0000 
     36 NZ         23.2500   76.2000   40.3000 N.4       4 LYS4        0.0000 
     37 NZ         21.9000   76.8100   40.1100 N.4       4 LYS4        0.0000 
     38 NZ         21.3000   79.3000   40.5600 N.4       4 LYS4        0.0000 
     39 NZ         22.0300   77.5100   41.4300 N.4       4 LYS4        0.0000 
     40 NZ         18.7600   84.8900   41.2700 N.4       4 LYS4        0.0000 
     41 CA         20.9500   80.8800   36.3600 C.3       5 GLY6        0.0000 
     42 CA         20.3200   79.7000   37.0400 C.3       5 GLY6        0.0000 
     43 CA         18.3400   79.1400   37.5300 C.3       5 GLY6        0.0000 
     44 CA         21.7700   76.1200   38.7900 C.3       5 GLY6        0.0000 
     45 CA         20.4100   76.7300   38.6000 C.3       5 GLY6        0.0000 
     46 CA         22.4900   74.3200   39.6600 C.3       5 GLY6        0.0000 
     47 CA         21.8100   79.7800   38.5600 C.3       5 GLY6        0.0000 
     48 CA         20.4500   80.4000   38.3700 C.3       5 GLY6        0.0000 
     49 CA         19.1000   81.0100   38.1800 C.3       5 GLY6        0.0000 
     50 CA         21.2700   75.6300   40.7900 C.3       5 GLY6        0.0000 
     51 CA         20.6400   74.4500   41.4700 C.3       5 GLY6        0.0000 
     52 CA         19.8600   82.8900   38.8200 C.3       5 GLY6        0.0000 
     53 CA         19.2300   81.7100   39.5000 C.3       5 GLY6        0.0000 
     54 CA         19.9500   79.9200   40.3700 C.3       5 GLY6        0.0000 
     55 CA         15.2600   80.5800   40.4800 C.3       5 GLY6        0.0000 
     56 CA         15.9800   78.7900   41.3500 C.3       5 GLY6        0.0000 
     57 CA         19.9900   83.5800   40.1400 C.3       5 GLY6        0.0000 
     58 CA         20.7100   81.7900   41.0100 C.3       5 GLY6        0.0000 
     59 CA         19.3600   82.4000   40.8200 C.3       5 GLY6        0.0000 
     60 CA         20.1200   84.2800   41.4600 C.3       5 GLY6        0.0000 
     61 CA         20.8400   82.4800   42.3300 C.3       5 GLY6        0.0000 
     62 CA         20.2500   84.9700   42.7900 C.3       5 GLY6        0.0000 
     63 CA         18.8900   85.5900   42.6000 C.3       5 GLY6        0.0000 
     64 DU         21.0400   77.9100   37.9200 H         6 CUB7        0.0000 
     65 DU         19.8200   79.2200   39.0500 H         6 CUB7        0.0000 
     66 DU         17.8700   82.3200   39.3100 H         6 CUB7        0.0000 
     67 DU         18.6000   80.5300   40.1800 H         6 CUB7        0.0000 
     68 DU         17.2400   81.1500   39.9900 H         6 CUB7        0.0000 
     69 DU         18.7300   81.2300   41.5000 H         6 CUB7        0.0000 
     70 DU         19.4900   83.1000   42.1400 H         6 CUB7        0.0000 
@<TRIPOS>BOND
@<TRIPOS>SUBSTRUCTURE
     1 SER1        1 GROUP   
     2 ALA2        2 GROUP   
     3 ASP3       30 GROUP   
     4 LYS4       34 GROUP   
     5 GLY6       41 GROUP   
     6 CUB7       64 GROUP   
@<TRIPOS>SET

