#    Name: 6fii_5_ACP
#    Modification time : Fri May 22 19:31:08 2020

@<TRIPOS>MOLECULE
6fii_5_ACP
   45    47     1     0     1
SMALL
NO_CHARGES


@<TRIPOS>ATOM
      1 PG          8.6650   50.1010   94.0560 P.3       1 ACP401      0.0000 
      2 O1G         9.3430   50.6590   92.7180 O.co2     1 ACP401      0.0000 
      3 O2G         8.4530   51.1920   94.9960 O.co2     1 ACP401      0.0000 
      4 O3G         7.2650   49.3930   93.7150 O.co2     1 ACP401      0.0000 
      5 PB         11.0120   49.7470   95.7040 P.3       1 ACP401      0.0000 
      6 O1B        11.7250   50.6660   94.7960 O.co2     1 ACP401      0.0000 
      7 O2B        12.0250   48.6660   96.2900 O.co2     1 ACP401      0.0000 
      8 C3B         9.7490   48.8510   94.7850 C.3       1 ACP401      0.0000 
      9 PA         11.0030   50.8770   98.2270 P.3       1 ACP401      0.0000 
     10 O1A        12.4510   50.6050   98.0050 O.co2     1 ACP401      0.0000 
     11 O2A        10.5580   52.1720   98.8230 O.co2     1 ACP401      0.0000 
     12 O3A        10.2720   50.5750   96.8530 O.3       1 ACP401      0.0000 
     13 O5'        10.3990   49.6960   99.1200 O.3       1 ACP401      0.0000 
     14 C5'        10.5780   49.6520  100.5240 C.3       1 ACP401      0.0000 
     15 C4'         9.3660   49.0270  101.1950 C.3       1 ACP401      0.0000 
     16 O4'         9.4930   49.1570  102.6100 O.3       1 ACP401      0.0000 
     17 C3'         8.1010   49.7440  100.8270 C.3       1 ACP401      0.0000 
     18 O3'         7.2830   48.9830   99.9530 O.3       1 ACP401      0.0000 
     19 C2'         7.4110   50.0090  102.1400 C.3       1 ACP401      0.0000 
     20 O2'         6.5330   48.9510  102.4630 O.3       1 ACP401      0.0000 
     21 C1'         8.4480   49.9300  103.1920 C.3       1 ACP401      0.0000 
     22 N9          8.9450   51.2540  103.5060 N.pl3     1 ACP401      0.0000 
     23 C8          9.7140   51.9640  102.6980 C.2       1 ACP401      0.0000 
     24 N7         10.0230   53.1440  103.2590 N.2       1 ACP401      0.0000 
     25 C5          9.4320   53.1730  104.4410 C.ar      1 ACP401      0.0000 
     26 C6          9.3620   54.1340  105.5190 C.ar      1 ACP401      0.0000 
     27 N6         10.0160   55.2840  105.3740 N.pl3     1 ACP401      0.0000 
     28 N1          8.6540   53.8340  106.6140 N.ar      1 ACP401      0.0000 
     29 C2          8.0160   52.6680  106.7140 C.ar      1 ACP401      0.0000 
     30 N3          8.0450   51.7410  105.7440 N.ar      1 ACP401      0.0000 
     31 C4          8.7220   51.9310  104.6090 C.ar      1 ACP401      0.0000 
     32 H3B1       10.1620   48.3070   94.0960 H         1 ACP401      0.0000 
     33 H3B2        9.2540   48.2680   95.3820 H         1 ACP401      0.0000 
     34 H5'1       10.7090   50.5510  100.8630 H         1 ACP401      0.0000 
     35 H5'2       11.3700   49.1330  100.7340 H         1 ACP401      0.0000 
     36 H4'         9.3020   48.0910  100.9500 H         1 ACP401      0.0000 
     37 H3'         8.3370   50.5800  100.3950 H         1 ACP401      0.0000 
     38 HO3'        6.8130   49.5090   99.4790 H         1 ACP401      0.0000 
     39 H2'         7.0020   50.8880  102.1370 H         1 ACP401      0.0000 
     40 HO2'        6.0580   49.1750  103.1320 H         1 ACP401      0.0000 
     41 H1'         8.0880   49.5310  103.9990 H         1 ACP401      0.0000 
     42 H8         10.0020   51.6850  101.8590 H         1 ACP401      0.0000 
     43 HN61        9.5750   56.0150  105.2740 H         1 ACP401      0.0000 
     44 HN62       10.8760   55.2890  105.3820 H         1 ACP401      0.0000 
     45 H2          7.5320   52.4940  107.4890 H         1 ACP401      0.0000 
@<TRIPOS>BOND
     1    1    2 ar   
     2    1    3 ar   
     3    1    4 ar   
     4    1    8 1    
     5    5    6 ar   
     6    5    7 ar   
     7    5    8 1    
     8    5   12 1    
     9    8   32 1    
    10    8   33 1    
    11    9   10 ar   
    12    9   11 ar   
    13    9   12 1    
    14    9   13 1    
    15   13   14 1    
    16   14   15 1    
    17   14   34 1    
    18   14   35 1    
    19   15   16 1    
    20   15   17 1    
    21   15   36 1    
    22   16   21 1    
    23   17   18 1    
    24   17   19 1    
    25   17   37 1    
    26   18   38 1    
    27   19   20 1    
    28   19   21 1    
    29   19   39 1    
    30   20   40 1    
    31   21   22 1    
    32   21   41 1    
    33   22   23 1    
    34   22   31 1    
    35   23   24 2    
    36   23   42 1    
    37   24   25 1    
    38   25   26 ar   
    39   25   31 ar   
    40   26   27 1    
    41   26   28 ar   
    42   27   43 1    
    43   27   44 1    
    44   28   29 ar   
    45   29   30 ar   
    46   29   45 1    
    47   30   31 ar   
@<TRIPOS>SUBSTRUCTURE
     1 ACP401      1 GROUP   
@<TRIPOS>SET
ATOM$ORANGE STATIC     ATOMS   COLORGROUP SYSTEM 
22 8 8 14 14 15 15 17 17 19 19 21 21 23 23 25 25 26 \
26 29 29 31 31 

