#    Name: 6ie9_1_JN3
#    Modification time : Fri May 22 19:27:04 2020

@<TRIPOS>MOLECULE
6ie9_1_JN3
   28    31     1     0     0
SMALL
NO_CHARGES


@<TRIPOS>ATOM
      1 C1        -10.6740  -29.9590   11.1180 C.3       1 JN3200      0.0000 
      2 C2        -12.1480  -29.8680   11.3980 C.3       1 JN3200      0.0000 
      3 C3        -12.3260  -29.5830   12.8710 C.3       1 JN3200      0.0000 
      4 O3        -13.6800  -29.4490   13.1830 O.3       1 JN3200      0.0000 
      5 C4        -11.8180  -30.8260   13.6250 C.3       1 JN3200      0.0000 
      6 C5        -10.3350  -31.0600   13.3310 C.3       1 JN3200      0.0000 
      7 C6         -9.7930  -32.3170   14.0500 C.3       1 JN3200      0.0000 
      8 C7        -10.2410  -33.6140   13.4660 C.3       1 JN3200      0.0000 
      9 O7        -11.6380  -33.9340   13.7380 O.3       1 JN3200      0.0000 
     10 C8         -9.9950  -33.6820   11.9390 C.3       1 JN3200      0.0000 
     11 C9        -10.6010  -32.4980   11.2490 C.3       1 JN3200      0.0000 
     12 C10       -10.0680  -31.1920   11.8190 C.3       1 JN3200      0.0000 
     13 C11       -10.5450  -32.6920    9.6930 C.3       1 JN3200      0.0000 
     14 C12       -11.0030  -34.0930    9.2200 C.3       1 JN3200      0.0000 
     15 C13       -10.2550  -35.2510    9.8930 C.3       1 JN3200      0.0000 
     16 C14       -10.5470  -34.9880   11.3560 C.3       1 JN3200      0.0000 
     17 C15       -10.1220  -36.2940   12.0300 C.3       1 JN3200      0.0000 
     18 C16       -10.5310  -37.4000   11.0460 C.3       1 JN3200      0.0000 
     19 C17       -10.8570  -36.6720    9.7330 C.3       1 JN3200      0.0000 
     20 C18        -8.7360  -35.2240    9.5750 C.3       1 JN3200      0.0000 
     21 C19        -8.5400  -31.0480   11.6000 C.3       1 JN3200      0.0000 
     22 C20       -10.5510  -37.5720    8.5000 C.3       1 JN3200      0.0000 
     23 C21       -10.9050  -36.7770    7.2270 C.3       1 JN3200      0.0000 
     24 C22       -11.3100  -38.9260    8.6800 C.3       1 JN3200      0.0000 
     25 C23       -10.6800  -40.1700    8.0050 C.3       1 JN3200      0.0000 
     26 O25        -8.9950  -41.8650    8.1970 O.co2     1 JN3200      0.0000 
     27 C24        -9.8370  -41.1810    8.8220 C.2       1 JN3200      0.0000 
     28 O26        -9.9870  -41.3490   10.0510 O.co2     1 JN3200      0.0000 
@<TRIPOS>BOND
     1    1    2 1    
     2    1   12 1    
     3    2    3 1    
     4    3    4 1    
     5    3    5 1    
     6    5    6 1    
     7    6    7 1    
     8    6   12 1    
     9    7    8 1    
    10    8    9 1    
    11    8   10 1    
    12   10   11 1    
    13   10   16 1    
    14   11   12 1    
    15   11   13 1    
    16   12   21 1    
    17   13   14 1    
    18   14   15 1    
    19   15   16 1    
    20   15   19 1    
    21   15   20 1    
    22   16   17 1    
    23   17   18 1    
    24   18   19 1    
    25   19   22 1    
    26   22   23 1    
    27   22   24 1    
    28   24   25 1    
    29   25   27 1    
    30   26   27 ar   
    31   27   28 ar   
@<TRIPOS>SUBSTRUCTURE
     1 JN3200      1 GROUP   
@<TRIPOS>SET

