#    Name: 6ezu_2_AMP
#    Modification time : Fri May 22 19:27:02 2020

@<TRIPOS>MOLECULE
6ezu_2_AMP
   23    25     1     0     1
SMALL
NO_CHARGES


@<TRIPOS>ATOM
      1 P          33.1850  -18.5320  -22.3660 P.3       1 AMP703      0.0000 
      2 O1P        32.1540  -19.7030  -22.6760 O.co2     1 AMP703      0.0000 
      3 O2P        34.5230  -19.2210  -21.9320 O.co2     1 AMP703      0.0000 
      4 O3P        32.5930  -17.3830  -21.2970 O.co2     1 AMP703      0.0000 
      5 O5'        33.3780  -17.9390  -23.9230 O.3       1 AMP703      0.0000 
      6 C5'        33.6140  -18.7070  -25.0440 C.3       1 AMP703      0.0000 
      7 C4'        32.3590  -19.0720  -25.8800 C.3       1 AMP703      0.0000 
      8 O4'        32.9570  -19.7500  -27.0780 O.3       1 AMP703      0.0000 
      9 C3'        31.3440  -20.1440  -25.3860 C.3       1 AMP703      0.0000 
     10 O3'        30.4170  -19.8230  -24.3420 O.3       1 AMP703      0.0000 
     11 C2'        30.7780  -20.7070  -26.6870 C.3       1 AMP703      0.0000 
     12 O2'        29.9920  -19.7050  -27.3330 O.3       1 AMP703      0.0000 
     13 C1'        32.0650  -20.8000  -27.4970 C.3       1 AMP703      0.0000 
     14 N9         32.8470  -22.0540  -27.4260 N.pl3     1 AMP703      0.0000 
     15 C8         34.0660  -22.3420  -26.8160 C.2       1 AMP703      0.0000 
     16 N7         34.4490  -23.6050  -27.0290 N.2       1 AMP703      0.0000 
     17 C5         33.4780  -24.1620  -27.7960 C.ar      1 AMP703      0.0000 
     18 C6         33.2700  -25.5040  -28.4090 C.ar      1 AMP703      0.0000 
     19 N6         34.1770  -26.5240  -28.2230 N.pl3     1 AMP703      0.0000 
     20 N1         32.1590  -25.6310  -29.1210 N.ar      1 AMP703      0.0000 
     21 C2         31.2200  -24.6680  -29.3010 C.ar      1 AMP703      0.0000 
     22 N3         31.3450  -23.4310  -28.7900 N.ar      1 AMP703      0.0000 
     23 C4         32.4360  -23.1450  -28.0740 C.ar      1 AMP703      0.0000 
@<TRIPOS>BOND
     1    1    2 ar   
     2    1    3 ar   
     3    1    4 ar   
     4    1    5 1    
     5    5    6 1    
     6    6    7 1    
     7    7    8 1    
     8    7    9 1    
     9    8   13 1    
    10    9   10 1    
    11    9   11 1    
    12   11   12 1    
    13   11   13 1    
    14   13   14 1    
    15   14   15 1    
    16   14   23 1    
    17   15   16 2    
    18   16   17 1    
    19   17   18 ar   
    20   17   23 ar   
    21   18   19 1    
    22   18   20 ar   
    23   20   21 ar   
    24   21   22 ar   
    25   22   23 ar   
@<TRIPOS>SUBSTRUCTURE
     1 AMP703      1 GROUP   
@<TRIPOS>SET
ATOM$ORANGE STATIC     ATOMS   COLORGROUP SYSTEM 
20 6 6 7 7 9 9 11 11 13 13 15 15 17 17 18 18 21 \
21 23 23 

