#    Name: 6ih1_2_C2E
#    Modification time : Fri May 22 19:26:46 2020

@<TRIPOS>MOLECULE
6ih1_2_C2E
   46    52     1     0     0
SMALL
NO_CHARGES


@<TRIPOS>ATOM
      1 P1         -4.4750  -17.0880   14.5190 P.3       1 C2E501      0.0000 
      2 O2P        -5.0520  -15.6870   14.3890 O.co2     1 C2E501      0.0000 
      3 O1P        -3.5120  -17.0270   15.6810 O.co2     1 C2E501      0.0000 
      4 O5'        -5.5950  -18.2700   14.8530 O.3       1 C2E501      0.0000 
      5 C5'        -5.2850  -19.3950   15.7420 C.3       1 C2E501      0.0000 
      6 C4'        -4.7280  -20.4220   15.0360 C.3       1 C2E501      0.0000 
      7 O4'        -4.1810  -21.5070   15.9470 O.3       1 C2E501      0.0000 
      8 C3'        -5.8230  -21.2160   14.1520 C.3       1 C2E501      0.0000 
      9 O3'        -5.0010  -21.8980   13.0590 O.3       1 C2E501      0.0000 
     10 C2'        -6.2630  -22.0520   14.9550 C.3       1 C2E501      0.0000 
     11 O2'        -6.8880  -23.2130   14.2890 O.3       1 C2E501      0.0000 
     12 C1'        -4.9300  -22.5740   15.8360 C.3       1 C2E501      0.0000 
     13 N9         -5.4190  -23.0070   17.0960 N.pl3     1 C2E501      0.0000 
     14 C8         -6.4880  -22.8840   17.8860 C.2       1 C2E501      0.0000 
     15 N7         -6.2790  -23.5880   19.0060 N.2       1 C2E501      0.0000 
     16 C5         -5.0840  -24.1530   18.9210 C.2       1 C2E501      0.0000 
     17 C6         -4.3350  -25.0750   19.8940 C.2       1 C2E501      0.0000 
     18 O6         -4.8240  -25.3890   20.9490 O.2       1 C2E501      0.0000 
     19 N1         -3.0340  -25.5540   19.5340 N.am      1 C2E501      0.0000 
     20 C2         -2.4680  -25.1670   18.2650 C.2       1 C2E501      0.0000 
     21 N2         -1.1540  -25.6440   17.8910 N.pl3     1 C2E501      0.0000 
     22 N3         -3.1960  -24.2980   17.3440 N.2       1 C2E501      0.0000 
     23 C4         -4.5320  -23.7890   17.7130 C.2       1 C2E501      0.0000 
     24 P11        -5.5530  -21.6140   11.4730 P.3       1 C2E501      0.0000 
     25 O21        -4.9630  -22.5930   10.4720 O.co2     1 C2E501      0.0000 
     26 O11        -7.0450  -21.7820   11.4310 O.co2     1 C2E501      0.0000 
     27 O5A        -5.2430  -19.9990   11.2480 O.3       1 C2E501      0.0000 
     28 C5A        -3.8360  -19.7840   11.1770 C.3       1 C2E501      0.0000 
     29 C4A        -3.5740  -18.2500   11.0440 C.3       1 C2E501      0.0000 
     30 O4A        -4.1910  -17.7370    9.6430 O.3       1 C2E501      0.0000 
     31 C3A        -4.2290  -17.6260   11.9060 C.3       1 C2E501      0.0000 
     32 O3A        -3.4410  -17.5180   13.2400 O.3       1 C2E501      0.0000 
     33 C2A        -4.3430  -16.1970   11.2910 C.3       1 C2E501      0.0000 
     34 O2A        -3.1870  -15.5050   11.5000 O.3       1 C2E501      0.0000 
     35 C1A        -4.5270  -16.4910    9.8350 C.3       1 C2E501      0.0000 
     36 N91        -5.9510  -16.1220    9.4280 N.pl3     1 C2E501      0.0000 
     37 C81        -6.7710  -17.1620    9.6960 C.2       1 C2E501      0.0000 
     38 N71        -8.0200  -16.7480    9.3120 N.2       1 C2E501      0.0000 
     39 C51        -7.9290  -15.4890    8.8440 C.2       1 C2E501      0.0000 
     40 C61        -8.9330  -14.4690    8.2680 C.2       1 C2E501      0.0000 
     41 O61       -10.0980  -14.7160    8.1530 O.2       1 C2E501      0.0000 
     42 N11        -8.4600  -13.1830    7.8550 N.am      1 C2E501      0.0000 
     43 C21        -7.0670  -12.8170    7.9610 C.2       1 C2E501      0.0000 
     44 N21        -6.5850  -11.4990    7.5450 N.pl3     1 C2E501      0.0000 
     45 N31        -6.1260  -13.7750    8.5090 N.2       1 C2E501      0.0000 
     46 C41        -6.6190  -15.1090    8.9340 C.2       1 C2E501      0.0000 
@<TRIPOS>BOND
     1    1    2 ar   
     2    1    3 ar   
     3    1    4 1    
     4    1   32 1    
     5    4    5 1    
     6    5    6 1    
     7    6    7 1    
     8    6    8 1    
     9    7   12 1    
    10    8    9 1    
    11    8   10 1    
    12    9   24 1    
    13   10   11 1    
    14   10   12 1    
    15   12   13 1    
    16   13   14 1    
    17   13   23 1    
    18   14   15 2    
    19   15   16 1    
    20   16   17 1    
    21   16   23 2    
    22   17   18 2    
    23   17   19 am   
    24   19   20 1    
    25   20   21 1    
    26   20   22 2    
    27   22   23 1    
    28   24   25 ar   
    29   24   26 ar   
    30   24   27 1    
    31   27   28 1    
    32   28   29 1    
    33   29   30 1    
    34   29   31 1    
    35   30   35 1    
    36   31   32 1    
    37   31   33 1    
    38   33   34 1    
    39   33   35 1    
    40   35   36 1    
    41   36   37 1    
    42   36   46 1    
    43   37   38 2    
    44   38   39 1    
    45   39   40 1    
    46   39   46 2    
    47   40   41 2    
    48   40   42 am   
    49   42   43 1    
    50   43   44 1    
    51   43   45 2    
    52   45   46 1    
@<TRIPOS>SUBSTRUCTURE
     1 C2E501      1 GROUP   
@<TRIPOS>SET

