#    Name: 6ih1_4_C2E
#    Modification time : Fri May 22 19:26:51 2020

@<TRIPOS>MOLECULE
6ih1_4_C2E
   46    52     1     0     0
SMALL
NO_CHARGES


@<TRIPOS>ATOM
      1 P1         21.0740   -0.0520   18.3300 P.3       1 C2E501      0.0000 
      2 O2P        21.6850   -1.4120   18.6260 O.co2     1 C2E501      0.0000 
      3 O1P        19.8070    0.0650   19.1460 O.co2     1 C2E501      0.0000 
      4 O5'        22.0180    1.2260   18.8340 O.3       1 C2E501      0.0000 
      5 C5'        21.3460    2.3770   19.4370 C.3       1 C2E501      0.0000 
      6 C4'        21.1360    3.3220   18.4820 C.3       1 C2E501      0.0000 
      7 O4'        20.4540    4.5340   19.0800 O.3       1 C2E501      0.0000 
      8 C3'        22.5260    3.8980   17.8910 C.3       1 C2E501      0.0000 
      9 O3'        22.1890    4.4430   16.4960 O.3       1 C2E501      0.0000 
     10 C2'        22.7760    4.8190   18.6880 C.3       1 C2E501      0.0000 
     11 O2'        23.6500    5.8500   18.1150 O.3       1 C2E501      0.0000 
     12 C1'        21.3000    5.5300   19.0490 C.3       1 C2E501      0.0000 
     13 N9         21.3810    6.0870   20.3410 N.pl3     1 C2E501      0.0000 
     14 C8         22.0960    6.0500   21.4690 C.2       1 C2E501      0.0000 
     15 N7         21.5180    6.8860   22.3510 N.2       1 C2E501      0.0000 
     16 C5         20.4500    7.4240   21.7730 C.2       1 C2E501      0.0000 
     17 C6         19.4230    8.4240   22.3000 C.2       1 C2E501      0.0000 
     18 O6         19.5290    8.8500   23.4190 O.2       1 C2E501      0.0000 
     19 N1         18.3440    8.8370   21.4450 N.am      1 C2E501      0.0000 
     20 C2         18.2580    8.3080   20.1000 C.2       1 C2E501      0.0000 
     21 N2         17.1830    8.7120   19.2170 N.pl3     1 C2E501      0.0000 
     22 N3         19.2440    7.3440   19.6150 N.2       1 C2E501      0.0000 
     23 C4         20.3520    6.9220   20.5040 C.2       1 C2E501      0.0000 
     24 P11        23.2880    4.0470   15.2570 P.3       1 C2E501      0.0000 
     25 O21        23.0820    4.8560   13.9850 O.co2     1 C2E501      0.0000 
     26 O11        24.7000    4.2810   15.7640 O.co2     1 C2E501      0.0000 
     27 O5A        23.0350    2.4180   15.0930 O.3       1 C2E501      0.0000 
     28 C5A        21.7010    2.1690   14.6870 C.3       1 C2E501      0.0000 
     29 C4A        21.4970    0.6250   14.6930 C.3       1 C2E501      0.0000 
     30 O4A        22.5880   -0.0450   13.7030 O.3       1 C2E501      0.0000 
     31 C3A        21.7880    0.1640   15.8140 C.3       1 C2E501      0.0000 
     32 O3A        20.5440    0.1290   16.7310 O.3       1 C2E501      0.0000 
     33 C2A        22.1750   -1.3160   15.5220 C.3       1 C2E501      0.0000 
     34 O2A        21.0560   -2.0910   15.4230 O.3       1 C2E501      0.0000 
     35 C1A        22.8470   -1.2160   14.1960 C.3       1 C2E501      0.0000 
     36 N91        24.3390   -1.5090   14.3600 N.pl3     1 C2E501      0.0000 
     37 C81        25.0250   -0.4010   14.7240 C.2       1 C2E501      0.0000 
     38 N71        26.3420   -0.8210   14.8280 N.2       1 C2E501      0.0000 
     39 C51        26.4010   -2.1440   14.5440 C.2       1 C2E501      0.0000 
     40 C61        27.5010   -3.2310   14.4610 C.2       1 C2E501      0.0000 
     41 O61        28.6620   -2.9860   14.6950 O.2       1 C2E501      0.0000 
     42 N11        27.1260   -4.5810   14.1020 N.am      1 C2E501      0.0000 
     43 C21        25.7550   -4.9350   13.8070 C.2       1 C2E501      0.0000 
     44 N21        25.3140   -6.2750   13.4440 N.pl3     1 C2E501      0.0000 
     45 N31        24.7440   -3.9170   13.8880 N.2       1 C2E501      0.0000 
     46 C41        25.1260   -2.5380   14.2530 C.2       1 C2E501      0.0000 
@<TRIPOS>BOND
     1    1    2 ar   
     2    1    3 ar   
     3    1    4 1    
     4    1   32 1    
     5    4    5 1    
     6    5    6 1    
     7    6    7 1    
     8    6    8 1    
     9    7   12 1    
    10    8    9 1    
    11    8   10 1    
    12    9   24 1    
    13   10   11 1    
    14   10   12 1    
    15   12   13 1    
    16   13   14 1    
    17   13   23 1    
    18   14   15 2    
    19   15   16 1    
    20   16   17 1    
    21   16   23 2    
    22   17   18 2    
    23   17   19 am   
    24   19   20 1    
    25   20   21 1    
    26   20   22 2    
    27   22   23 1    
    28   24   25 ar   
    29   24   26 ar   
    30   24   27 1    
    31   27   28 1    
    32   28   29 1    
    33   29   30 1    
    34   29   31 1    
    35   30   35 1    
    36   31   32 1    
    37   31   33 1    
    38   33   34 1    
    39   33   35 1    
    40   35   36 1    
    41   36   37 1    
    42   36   46 1    
    43   37   38 2    
    44   38   39 1    
    45   39   40 1    
    46   39   46 2    
    47   40   41 2    
    48   40   42 am   
    49   42   43 1    
    50   43   44 1    
    51   43   45 2    
    52   45   46 1    
@<TRIPOS>SUBSTRUCTURE
     1 C2E501      1 GROUP   
@<TRIPOS>SET

