#    Name: 6gqf_2_HC3
#    Modification time : Fri May 22 19:24:48 2020

@<TRIPOS>MOLECULE
6gqf_2_HC3
   29    32     1     0     0
SMALL
NO_CHARGES


@<TRIPOS>ATOM
      1 C18        10.0550   23.6010    5.6310 C.3       1 HC3601      0.0000 
      2 C13         9.8520   22.2620    6.3310 C.3       1 HC3601      0.0000 
      3 C12         8.5860   21.7900    5.8620 C.3       1 HC3601      0.0000 
      4 C11         7.3090   22.6440    6.4080 C.3       1 HC3601      0.0000 
      5 C9          7.3210   22.7780    7.9170 C.3       1 HC3601      0.0000 
      6 C10         6.0270   23.5940    8.4620 C.3       1 HC3601      0.0000 
      7 C19         5.9430   24.9070    7.7120 C.3       1 HC3601      0.0000 
      8 C1          4.7610   22.7980    8.1270 C.3       1 HC3601      0.0000 
      9 C2          3.5230   23.3590    8.7840 C.3       1 HC3601      0.0000 
     10 C3          3.6920   23.4950   10.2610 C.3       1 HC3601      0.0000 
     11 O1          2.5080   24.0260   10.8580 O.3       1 HC3601      0.0000 
     12 C4          4.8680   24.4140   10.5780 C.3       1 HC3601      0.0000 
     13 C5          6.1400   23.8900    9.9100 C.2       1 HC3601      0.0000 
     14 C6          7.6280   24.3660   10.4650 C.2       1 HC3601      0.0000 
     15 C7          8.7810   23.5670    9.9550 C.3       1 HC3601      0.0000 
     16 C8          8.6640   23.3660    8.3500 C.3       1 HC3601      0.0000 
     17 C14         9.8210   22.5210    7.8610 C.3       1 HC3601      0.0000 
     18 C15        11.3510   22.8690    8.2520 C.3       1 HC3601      0.0000 
     19 C16        12.2550   21.9560    7.1100 C.3       1 HC3601      0.0000 
     20 C17        11.2450   21.4010    6.0970 C.3       1 HC3601      0.0000 
     21 C20        11.7840   21.4940    4.7710 C.3       1 HC3601      0.0000 
     22 C21        10.7680   20.9870    3.7130 C.3       1 HC3601      0.0000 
     23 C22        13.0740   20.6300    4.6430 C.3       1 HC3601      0.0000 
     24 C23        14.1720   21.4900    4.0520 C.3       1 HC3601      0.0000 
     25 C24        15.5330   20.8470    4.2600 C.3       1 HC3601      0.0000 
     26 C25        16.1380   20.1460    3.0530 C.3       1 HC3601      0.0000 
     27 C26        17.5990   20.5330    2.9570 C.3       1 HC3601      0.0000 
     28 C27        16.0670   18.6450    3.2350 C.3       1 HC3601      0.0000 
     29 O2         15.5080   20.4850    1.8430 O.3       1 HC3601      0.0000 
@<TRIPOS>BOND
     1    1    2 1    
     2    2    3 1    
     3    2   17 1    
     4    2   20 1    
     5    3    4 1    
     6    4    5 1    
     7    5    6 1    
     8    5   16 1    
     9    6    7 1    
    10    6    8 1    
    11    6   13 1    
    12    8    9 1    
    13    9   10 1    
    14   10   11 1    
    15   10   12 1    
    16   12   13 1    
    17   13   14 2    
    18   14   15 1    
    19   15   16 1    
    20   16   17 1    
    21   17   18 1    
    22   18   19 1    
    23   19   20 1    
    24   20   21 1    
    25   21   22 1    
    26   21   23 1    
    27   23   24 1    
    28   24   25 1    
    29   25   26 1    
    30   26   27 1    
    31   26   28 1    
    32   26   29 1    
@<TRIPOS>SUBSTRUCTURE
     1 HC3601      1 GROUP   
@<TRIPOS>SET

