#    Name: 6gqf_4_HC3
#    Modification time : Fri May 22 19:24:54 2020

@<TRIPOS>MOLECULE
6gqf_4_HC3
   29    32     1     0     0
SMALL
NO_CHARGES


@<TRIPOS>ATOM
      1 C18        31.8150   12.2420   -9.5920 C.3       1 HC3601      0.0000 
      2 C13        30.7460   12.9760   -8.7940 C.3       1 HC3601      0.0000 
      3 C12        31.0150   12.6290   -7.4240 C.3       1 HC3601      0.0000 
      4 C11        30.7700   11.0530   -7.0490 C.3       1 HC3601      0.0000 
      5 C9         29.4220   10.5290   -7.5340 C.3       1 HC3601      0.0000 
      6 C10        29.2160    8.9430   -7.2460 C.3       1 HC3601      0.0000 
      7 C19        30.4740    8.2120   -7.6710 C.3       1 HC3601      0.0000 
      8 C1         29.0740    8.8080   -5.7210 C.3       1 HC3601      0.0000 
      9 C2         28.5280    7.4800   -5.2640 C.3       1 HC3601      0.0000 
     10 C3         27.2450    7.1830   -5.9570 C.3       1 HC3601      0.0000 
     11 O1         26.6640    5.9850   -5.4470 O.3       1 HC3601      0.0000 
     12 C4         27.4930    7.0410   -7.4560 C.3       1 HC3601      0.0000 
     13 C5         28.0820    8.3440   -8.0060 C.2       1 HC3601      0.0000 
     14 C6         27.4720    9.0650   -9.3790 C.2       1 HC3601      0.0000 
     15 C7         27.7100   10.5240   -9.5400 C.3       1 HC3601      0.0000 
     16 C8         29.1860   10.9130   -8.9940 C.3       1 HC3601      0.0000 
     17 C14        29.3640   12.3980   -9.1970 C.3       1 HC3601      0.0000 
     18 C15        28.9680   13.0700  -10.6120 C.3       1 HC3601      0.0000 
     19 C16        29.8010   14.5660  -10.5940 C.3       1 HC3601      0.0000 
     20 C17        30.7260   14.5400   -9.3630 C.3       1 HC3601      0.0000 
     21 C20        32.0020   15.1040   -9.7180 C.3       1 HC3601      0.0000 
     22 C21        32.9000   15.2630   -8.4560 C.3       1 HC3601      0.0000 
     23 C22        31.7700   16.4940  -10.3930 C.3       1 HC3601      0.0000 
     24 C23        33.0170   17.3530  -10.3960 C.3       1 HC3601      0.0000 
     25 C24        32.8620   18.3750  -11.4990 C.3       1 HC3601      0.0000 
     26 C25        33.7430   19.5980  -11.3170 C.3       1 HC3601      0.0000 
     27 C26        32.9320   20.6630  -10.6150 C.3       1 HC3601      0.0000 
     28 C27        35.0280   19.3310  -10.5550 C.3       1 HC3601      0.0000 
     29 O2         34.0980   20.0850  -12.5860 O.3       1 HC3601      0.0000 
@<TRIPOS>BOND
     1    1    2 1    
     2    2    3 1    
     3    2   17 1    
     4    2   20 1    
     5    3    4 1    
     6    4    5 1    
     7    5    6 1    
     8    5   16 1    
     9    6    7 1    
    10    6    8 1    
    11    6   13 1    
    12    8    9 1    
    13    9   10 1    
    14   10   11 1    
    15   10   12 1    
    16   12   13 1    
    17   13   14 2    
    18   14   15 1    
    19   15   16 1    
    20   16   17 1    
    21   17   18 1    
    22   18   19 1    
    23   19   20 1    
    24   20   21 1    
    25   21   22 1    
    26   21   23 1    
    27   23   24 1    
    28   24   25 1    
    29   25   26 1    
    30   26   27 1    
    31   26   28 1    
    32   26   29 1    
@<TRIPOS>SUBSTRUCTURE
     1 HC3601      1 GROUP   
@<TRIPOS>SET

