#    Name: 6gqf_1_HC3
#    Modification time : Fri May 22 19:24:44 2020

@<TRIPOS>MOLECULE
6gqf_1_HC3
   29    32     1     0     0
SMALL
NO_CHARGES


@<TRIPOS>ATOM
      1 C18        10.4230    0.8200   25.6560 C.3       1 HC3601      0.0000 
      2 C13        10.2750    2.2470   25.1160 C.3       1 HC3601      0.0000 
      3 C12         9.0620    2.7270   25.6950 C.3       1 HC3601      0.0000 
      4 C11         7.7270    1.9620   25.1400 C.3       1 HC3601      0.0000 
      5 C9          7.6440    1.9450   23.6170 C.3       1 HC3601      0.0000 
      6 C10         6.3160    1.1890   23.0630 C.3       1 HC3601      0.0000 
      7 C19         6.1290   -0.0770   23.8670 C.3       1 HC3601      0.0000 
      8 C1          5.0900    2.0660   23.3130 C.3       1 HC3601      0.0000 
      9 C2          3.8250    1.4550   22.7580 C.3       1 HC3601      0.0000 
     10 C3          3.9290    1.1290   21.3030 C.3       1 HC3601      0.0000 
     11 O1          2.7520    0.4450   20.8710 O.3       1 HC3601      0.0000 
     12 C4          5.1400    0.2500   21.0030 C.3       1 HC3601      0.0000 
     13 C5          6.4020    0.8360   21.6300 C.2       1 HC3601      0.0000 
     14 C6          7.8780    0.4920   20.9760 C.2       1 HC3601      0.0000 
     15 C7          9.0140    1.3200   21.4430 C.3       1 HC3601      0.0000 
     16 C8          8.9430    1.3730   23.0600 C.3       1 HC3601      0.0000 
     17 C14        10.1260    2.1520   23.5760 C.3       1 HC3601      0.0000 
     18 C15        11.6010    1.8050   23.0230 C.3       1 HC3601      0.0000 
     19 C16        12.6310    2.4760   24.2250 C.3       1 HC3601      0.0000 
     20 C17        11.7210    3.0240   25.3420 C.3       1 HC3601      0.0000 
     21 C20        12.2190    2.8900   26.7010 C.3       1 HC3601      0.0000 
     22 C21        11.6870    4.1090   27.5120 C.3       1 HC3601      0.0000 
     23 C22        13.7690    2.7480   26.8920 C.3       1 HC3601      0.0000 
     24 C23        14.4690    3.9110   27.5510 C.3       1 HC3601      0.0000 
     25 C24        15.9430    3.6510   27.3490 C.3       1 HC3601      0.0000 
     26 C25        16.7560    4.4600   28.3290 C.3       1 HC3601      0.0000 
     27 C26        18.2110    4.2620   27.9800 C.3       1 HC3601      0.0000 
     28 C27        16.3930    5.9270   28.2020 C.3       1 HC3601      0.0000 
     29 O2         16.5100    3.9960   29.6360 O.3       1 HC3601      0.0000 
@<TRIPOS>BOND
     1    1    2 1    
     2    2    3 1    
     3    2   17 1    
     4    2   20 1    
     5    3    4 1    
     6    4    5 1    
     7    5    6 1    
     8    5   16 1    
     9    6    7 1    
    10    6    8 1    
    11    6   13 1    
    12    8    9 1    
    13    9   10 1    
    14   10   11 1    
    15   10   12 1    
    16   12   13 1    
    17   13   14 2    
    18   14   15 1    
    19   15   16 1    
    20   16   17 1    
    21   17   18 1    
    22   18   19 1    
    23   19   20 1    
    24   20   21 1    
    25   21   22 1    
    26   21   23 1    
    27   23   24 1    
    28   24   25 1    
    29   25   26 1    
    30   26   27 1    
    31   26   28 1    
    32   26   29 1    
@<TRIPOS>SUBSTRUCTURE
     1 HC3601      1 GROUP   
@<TRIPOS>SET

