#    Name: 6gqf_3_HC3
#    Modification time : Fri May 22 19:24:51 2020

@<TRIPOS>MOLECULE
6gqf_3_HC3
   29    32     1     0     0
SMALL
NO_CHARGES


@<TRIPOS>ATOM
      1 C18        32.0320   12.6810   40.6220 C.3       1 HC3601      0.0000 
      2 C13        30.9480   11.9220   39.8630 C.3       1 HC3601      0.0000 
      3 C12        31.1390   12.2780   38.4910 C.3       1 HC3601      0.0000 
      4 C11        30.8120   13.8410   38.1530 C.3       1 HC3601      0.0000 
      5 C9         29.4400   14.2670   38.6400 C.3       1 HC3601      0.0000 
      6 C10        29.1470   15.8340   38.3440 C.3       1 HC3601      0.0000 
      7 C19        30.2950   16.6570   38.8920 C.3       1 HC3601      0.0000 
      8 C1         29.0900   16.0420   36.8260 C.3       1 HC3601      0.0000 
      9 C2         28.5870   17.4080   36.4290 C.3       1 HC3601      0.0000 
     10 C3         27.2810   17.7550   37.0640 C.3       1 HC3601      0.0000 
     11 O1         26.8960   19.0850   36.7200 O.3       1 HC3601      0.0000 
     12 C4         27.3790   17.6630   38.5800 C.3       1 HC3601      0.0000 
     13 C5         27.9010   16.2950   38.9970 C.2       1 HC3601      0.0000 
     14 C6         27.4160   15.6570   40.4430 C.2       1 HC3601      0.0000 
     15 C7         27.7710   14.2280   40.6600 C.3       1 HC3601      0.0000 
     16 C8         29.2630   13.8920   40.1080 C.3       1 HC3601      0.0000 
     17 C14        29.5670   12.4290   40.3600 C.3       1 HC3601      0.0000 
     18 C15        29.3900   11.8000   41.8380 C.3       1 HC3601      0.0000 
     19 C16        30.3810   10.4000   41.8000 C.3       1 HC3601      0.0000 
     20 C17        31.0060   10.3550   40.3980 C.3       1 HC3601      0.0000 
     21 C20        32.3080    9.7410   40.4450 C.3       1 HC3601      0.0000 
     22 C21        32.7910    9.3610   39.0170 C.3       1 HC3601      0.0000 
     23 C22        32.2630    8.4500   41.3190 C.3       1 HC3601      0.0000 
     24 C23        33.4920    7.5880   41.1150 C.3       1 HC3601      0.0000 
     25 C24        33.4870    6.4990   42.1690 C.3       1 HC3601      0.0000 
     26 C25        34.5910    5.4750   41.9600 C.3       1 HC3601      0.0000 
     27 C26        34.0380    4.3070   41.1770 C.3       1 HC3601      0.0000 
     28 C27        35.8100    6.0160   41.2310 C.3       1 HC3601      0.0000 
     29 O2         34.9890    5.0010   43.2210 O.3       1 HC3601      0.0000 
@<TRIPOS>BOND
     1    1    2 1    
     2    2    3 1    
     3    2   17 1    
     4    2   20 1    
     5    3    4 1    
     6    4    5 1    
     7    5    6 1    
     8    5   16 1    
     9    6    7 1    
    10    6    8 1    
    11    6   13 1    
    12    8    9 1    
    13    9   10 1    
    14   10   11 1    
    15   10   12 1    
    16   12   13 1    
    17   13   14 2    
    18   14   15 1    
    19   15   16 1    
    20   16   17 1    
    21   17   18 1    
    22   18   19 1    
    23   19   20 1    
    24   20   21 1    
    25   21   22 1    
    26   21   23 1    
    27   23   24 1    
    28   24   25 1    
    29   25   26 1    
    30   26   27 1    
    31   26   28 1    
    32   26   29 1    
@<TRIPOS>SUBSTRUCTURE
     1 HC3601      1 GROUP   
@<TRIPOS>SET

