#    Name: 6czm_4_AMP_CAVITY_N1_4
#    Modification time : Fri May 22 19:27:36 2020

@<TRIPOS>MOLECULE
6czm_4_AMP_CAVITY_N1_4
   65     0     5     0     0
SMALL
NO_CHARGES


@<TRIPOS>ATOM
      1 OG         -5.9700   75.9900   13.1700 O.3       1 SER1        0.0000 
      2 OG         -4.1200   77.7100   12.5600 O.3       1 SER1        0.0000 
      3 OG         -3.8900   76.4100   13.2700 O.3       1 SER1        0.0000 
      4 OG         -6.0300   75.6600   15.7400 O.3       1 SER1        0.0000 
      5 OG         -3.9500   76.0800   15.8500 O.3       1 SER1        0.0000 
      6 OG          1.9000   74.3600   14.0200 O.3       1 SER1        0.0000 
      7 N          -4.2700   73.4400   11.1400 N.am      2 ALA2        0.0000 
      8 N          -4.7900   75.7100   12.2900 N.am      2 ALA2        0.0000 
      9 N          -3.3800   74.1300   12.1200 N.am      2 ALA2        0.0000 
     10 N           0.8500   69.4000   11.6200 N.am      2 ALA2        0.0000 
     11 O          -2.7100   76.1300   12.3900 O.2       2 ALA2        0.0000 
     12 N          -2.4800   74.8300   13.1000 N.am      2 ALA2        0.0000 
     13 N          -3.6700   75.1100   13.9800 N.am      2 ALA2        0.0000 
     14 N          -4.8500   75.3800   14.8600 N.am      2 ALA2        0.0000 
     15 N          -2.2600   73.5300   13.8200 N.am      2 ALA2        0.0000 
     16 N           1.7400   70.1000   12.6000 N.am      2 ALA2        0.0000 
     17 O          -0.6300   76.5500   12.4900 O.2       2 ALA2        0.0000 
     18 O          -1.8100   76.8200   13.3700 O.2       2 ALA2        0.0000 
     19 O          -3.0000   77.1000   14.2500 O.2       2 ALA2        0.0000 
     20 O          -0.4100   75.2500   13.2100 O.2       2 ALA2        0.0000 
     21 O          -1.5900   75.5200   14.0900 O.2       2 ALA2        0.0000 
     22 O          -2.7700   75.8000   14.9700 O.2       2 ALA2        0.0000 
     23 N           1.2300   72.3700   13.7500 N.am      2 ALA2        0.0000 
     24 N           2.6400   70.7900   13.5800 N.am      2 ALA2        0.0000 
     25 N           1.6700   75.6600   13.3100 N.am      2 ALA2        0.0000 
     26 N           0.4900   75.9400   14.1900 N.am      2 ALA2        0.0000 
     27 O          -0.6900   76.2200   15.0700 O.2       2 ALA2        0.0000 
     28 N           3.3100   72.7900   13.8500 N.am      2 ALA2        0.0000 
     29 N           2.1200   73.0600   14.7300 N.am      2 ALA2        0.0000 
     30 N           3.5300   71.4900   14.5700 N.am      2 ALA2        0.0000 
     31 NZ         -5.6800   75.0200   11.3000 N.4       3 LYS4        0.0000 
     32 NZ          1.1400   68.4300    9.7500 N.4       3 LYS4        0.0000 
     33 CA          0.9100   69.7300    9.0400 C.3       4 GLY6        0.0000 
     34 CA         -0.2700   70.0100    9.9200 C.3       4 GLY6        0.0000 
     35 CA         -0.0500   68.7100   10.6300 C.3       4 GLY6        0.0000 
     36 CA         -0.7900   72.2800   11.0700 C.3       4 GLY6        0.0000 
     37 CA         -1.9700   72.5600   11.9500 C.3       4 GLY6        0.0000 
     38 CA          1.8000   70.4200   10.0200 C.3       4 GLY6        0.0000 
     39 CA          0.6200   70.7000   10.9000 C.3       4 GLY6        0.0000 
     40 CA         -0.5600   70.9800   11.7800 C.3       4 GLY6        0.0000 
     41 CA          2.0300   69.1200   10.7400 C.3       4 GLY6        0.0000 
     42 CA          3.6600   72.1400    9.4100 C.3       4 GLY6        0.0000 
     43 CA          2.7000   71.1200   11.0100 C.3       4 GLY6        0.0000 
     44 CA          0.3300   71.6700   12.7700 C.3       4 GLY6        0.0000 
     45 CA         -0.8500   71.9500   13.6500 C.3       4 GLY6        0.0000 
     46 CA          2.9300   69.8200   11.7200 C.3       4 GLY6        0.0000 
     47 CA         -0.1800   73.9500   13.9200 C.3       4 GLY6        0.0000 
     48 CA         -1.3600   74.2200   14.8000 C.3       4 GLY6        0.0000 
     49 CA          4.7800   71.5400   11.1100 C.3       4 GLY6        0.0000 
     50 CA          3.5900   71.8100   11.9900 C.3       4 GLY6        0.0000 
     51 CA         -1.8800   76.4900   15.9500 C.3       4 GLY6        0.0000 
     52 CA          4.4900   72.5100   12.9700 C.3       4 GLY6        0.0000 
     53 DU          1.5800   71.7200    9.3100 H         5 CUB7        0.0000 
     54 DU          0.4000   72.0000   10.1900 H         5 CUB7        0.0000 
     55 DU         -1.3000   74.5500   12.2200 H         5 CUB7        0.0000 
     56 DU          2.4700   72.4200   10.2900 H         5 CUB7        0.0000 
     57 DU          0.1100   72.9700   12.0500 H         5 CUB7        0.0000 
     58 DU         -1.0700   73.2500   12.9400 H         5 CUB7        0.0000 
     59 DU          1.5200   71.4000   11.8900 H         5 CUB7        0.0000 
     60 DU          1.9600   74.6900   11.4400 H         5 CUB7        0.0000 
     61 DU          0.7800   74.9700   12.3200 H         5 CUB7        0.0000 
     62 DU          3.3700   73.1100   11.2800 H         5 CUB7        0.0000 
     63 DU          1.0000   73.6700   13.0400 H         5 CUB7        0.0000 
     64 DU          2.4100   72.0900   12.8700 H         5 CUB7        0.0000 
     65 DU          3.0800   74.0900   13.1400 H         5 CUB7        0.0000 
@<TRIPOS>BOND
@<TRIPOS>SUBSTRUCTURE
     1 SER1        1 GROUP   
     2 ALA2        7 GROUP   
     3 LYS4       31 GROUP   
     4 GLY6       33 GROUP   
     5 CUB7       53 GROUP   
@<TRIPOS>SET

