#    Name: 6czm_3_AMP
#    Modification time : Fri May 22 19:27:24 2020

@<TRIPOS>MOLECULE
6czm_3_AMP
   23    25     1     0     1
SMALL
NO_CHARGES


@<TRIPOS>ATOM
      1 P          14.5800  113.1660  -11.2600 P.3       1 AMP401      0.0000 
      2 O1P        15.5130  114.0360  -12.0820 O.co2     1 AMP401      0.0000 
      3 O2P        14.3640  113.5080   -9.8180 O.co2     1 AMP401      0.0000 
      4 O3P        13.2410  113.0840  -11.9460 O.co2     1 AMP401      0.0000 
      5 O5'        15.2080  111.7120  -11.2760 O.3       1 AMP401      0.0000 
      6 C5'        16.4160  111.4600  -11.9690 C.3       1 AMP401      0.0000 
      7 C4'        17.0010  110.1340  -11.5770 C.3       1 AMP401      0.0000 
      8 O4'        16.5020  109.1220  -12.4920 O.3       1 AMP401      0.0000 
      9 C3'        18.5210  110.0660  -11.6550 C.3       1 AMP401      0.0000 
     10 O3'        19.0090  109.1520  -10.6770 O.3       1 AMP401      0.0000 
     11 C2'        18.7560  109.4990  -13.0480 C.3       1 AMP401      0.0000 
     12 O2'        19.9960  108.8470  -13.2030 O.3       1 AMP401      0.0000 
     13 C1'        17.5850  108.5270  -13.1830 C.3       1 AMP401      0.0000 
     14 N9         17.1810  108.2450  -14.5690 N.pl3     1 AMP401      0.0000 
     15 C8         16.2650  109.1510  -14.9300 C.2       1 AMP401      0.0000 
     16 N7         15.8970  108.8900  -16.1860 N.2       1 AMP401      0.0000 
     17 C5         16.5840  107.8210  -16.6050 C.ar      1 AMP401      0.0000 
     18 C6         16.6060  107.1270  -17.7970 C.ar      1 AMP401      0.0000 
     19 N6         15.9110  107.2720  -19.0440 N.pl3     1 AMP401      0.0000 
     20 N1         17.3980  106.0800  -17.9510 N.ar      1 AMP401      0.0000 
     21 C2         18.1980  105.6860  -16.9310 C.ar      1 AMP401      0.0000 
     22 N3         18.1810  106.3620  -15.7630 N.ar      1 AMP401      0.0000 
     23 C4         17.3720  107.4280  -15.6080 C.ar      1 AMP401      0.0000 
@<TRIPOS>BOND
     1    1    2 ar   
     2    1    3 ar   
     3    1    4 ar   
     4    1    5 1    
     5    5    6 1    
     6    6    7 1    
     7    7    8 1    
     8    7    9 1    
     9    8   13 1    
    10    9   10 1    
    11    9   11 1    
    12   11   12 1    
    13   11   13 1    
    14   13   14 1    
    15   14   15 1    
    16   14   23 1    
    17   15   16 2    
    18   16   17 1    
    19   17   18 ar   
    20   17   23 ar   
    21   18   19 1    
    22   18   20 ar   
    23   20   21 ar   
    24   21   22 ar   
    25   22   23 ar   
@<TRIPOS>SUBSTRUCTURE
     1 AMP401      1 GROUP   
@<TRIPOS>SET
ATOM$ORANGE STATIC     ATOMS   COLORGROUP SYSTEM 
20 6 6 7 7 9 9 11 11 13 13 15 15 17 17 18 18 21 \
21 23 23 

