#    Name: 6czm_5_AMP_CAVITY_N1_4
#    Modification time : Fri May 22 19:27:48 2020

@<TRIPOS>MOLECULE
6czm_5_AMP_CAVITY_N1_4
   63     0     6     0     0
SMALL
NO_CHARGES


@<TRIPOS>ATOM
      1 OG         19.8100  105.2800    7.9100 O.3       1 SER1        0.0000 
      2 OG         19.3000  107.5500    9.0600 O.3       1 SER1        0.0000 
      3 OG         20.7100  105.9700    8.8900 O.3       1 SER1        0.0000 
      4 OG         19.5300  106.2500    9.7700 O.3       1 SER1        0.0000 
      5 OG         21.6000  106.6700    9.8700 O.3       1 SER1        0.0000 
      6 OG         21.3300  101.7400   13.6000 O.3       1 SER1        0.0000 
      7 OG         22.2700  108.6600   10.1400 O.3       1 SER1        0.0000 
      8 O          20.2700  102.6800    9.3300 O.2       2 ALA2        0.0000 
      9 N          18.3500  106.5200   10.6500 N.am      2 ALA2        0.0000 
     10 O          20.9400  104.6700    9.6000 O.2       2 ALA2        0.0000 
     11 O          22.3400  103.0900    9.4300 O.2       2 ALA2        0.0000 
     12 O          21.1600  103.3700   10.3100 O.2       2 ALA2        0.0000 
     13 N          21.3900  102.0700   11.0300 N.am      2 ALA2        0.0000 
     14 N          20.2000  108.2400   10.0400 N.am      2 ALA2        0.0000 
     15 N          20.4200  106.9400   10.7500 N.am      2 ALA2        0.0000 
     16 O          23.0100  105.0900    9.7000 O.2       2 ALA2        0.0000 
     17 N          20.6500  105.6400   11.4600 N.am      2 ALA2        0.0000 
     18 N          19.4700  105.9200   12.3500 N.am      2 ALA2        0.0000 
     19 O          23.2400  103.7900   10.4200 O.2       2 ALA2        0.0000 
     20 O          22.5000  107.3600   10.8500 O.2       2 ALA2        0.0000 
     21 O          22.7300  106.0600   11.5700 O.2       2 ALA2        0.0000 
     22 O          21.5400  106.3400   12.4500 O.2       2 ALA2        0.0000 
     23 N          21.0400  102.7100   15.4700 N.am      2 ALA2        0.0000 
     24 N          19.8600  102.9900   16.3500 N.am      2 ALA2        0.0000 
     25 N          21.2700  101.4100   16.1800 N.am      2 ALA2        0.0000 
     26 OD1        21.5500  100.4400   14.3200 O.co2     3 ASP3        0.0000 
     27 NZ         17.0000  108.4300    8.2400 N.4       4 LYS4        0.0000 
     28 NZ         18.1200  107.8200    9.9400 N.4       4 LYS4        0.0000 
     29 CA         18.3500  100.6300   12.5200 C.3       5 GLY6        0.0000 
     30 CA         17.4000   99.6100   14.1100 C.3       5 GLY6        0.0000 
     31 CA         16.2200   99.8800   14.9900 C.3       5 GLY6        0.0000 
     32 CA         19.0800  108.8500    8.3400 C.3       5 GLY6        0.0000 
     33 CA         19.4800  100.0200   14.2100 C.3       5 GLY6        0.0000 
     34 CA         18.2900  100.3000   15.0900 C.3       5 GLY6        0.0000 
     35 CA         17.1100  100.5800   15.9800 C.3       5 GLY6        0.0000 
     36 CA         18.5200   99.0000   15.8100 C.3       5 GLY6        0.0000 
     37 CA         19.9700  109.5400    9.3300 C.3       5 GLY6        0.0000 
     38 CA         21.8300  105.3600   10.5800 C.3       5 GLY6        0.0000 
     39 CA         18.2800  106.2000   13.2300 C.3       5 GLY6        0.0000 
     40 CA         22.0600  104.0600   11.3000 C.3       5 GLY6        0.0000 
     41 CA         20.8700  104.3400   12.1800 C.3       5 GLY6        0.0000 
     42 CA         18.5100  104.9000   13.9400 C.3       5 GLY6        0.0000 
     43 CA         22.2800  102.7600   12.0100 C.3       5 GLY6        0.0000 
     44 CA         21.1000  103.0400   12.8900 C.3       5 GLY6        0.0000 
     45 CA         20.3700  100.7200   15.2000 C.3       5 GLY6        0.0000 
     46 CA         19.1900  101.0000   16.0800 C.3       5 GLY6        0.0000 
     47 CA         18.0100  101.2700   16.9600 C.3       5 GLY6        0.0000 
     48 CA         20.6000   99.4200   15.9100 C.3       5 GLY6        0.0000 
     49 CA         20.5900  105.3100   14.0400 C.3       5 GLY6        0.0000 
     50 CA         19.4000  105.5900   14.9200 C.3       5 GLY6        0.0000 
     51 CA         20.8100  104.0100   14.7500 C.3       5 GLY6        0.0000 
     52 CA         19.6300  104.2900   15.6300 C.3       5 GLY6        0.0000 
     53 DU         17.1700  100.9100   13.4000 H         6 CUB7        0.0000 
     54 DU         19.7500  104.9500   10.4800 H         6 CUB7        0.0000 
     55 DU         19.9800  103.6500   11.1900 H         6 CUB7        0.0000 
     56 DU         20.2100  102.3500   11.9100 H         6 CUB7        0.0000 
     57 DU         19.2500  101.3200   13.5000 H         6 CUB7        0.0000 
     58 DU         16.8900  101.8800   15.2600 H         6 CUB7        0.0000 
     59 DU         19.6900  104.6200   13.0600 H         6 CUB7        0.0000 
     60 DU         19.9200  103.3200   13.7700 H         6 CUB7        0.0000 
     61 DU         18.7400  103.6000   14.6500 H         6 CUB7        0.0000 
     62 DU         20.1400  102.0200   14.4800 H         6 CUB7        0.0000 
     63 DU         18.9600  102.3000   15.3600 H         6 CUB7        0.0000 
@<TRIPOS>BOND
@<TRIPOS>SUBSTRUCTURE
     1 SER1        1 GROUP   
     2 ALA2        8 GROUP   
     3 ASP3       26 GROUP   
     4 LYS4       27 GROUP   
     5 GLY6       29 GROUP   
     6 CUB7       53 GROUP   
@<TRIPOS>SET

