#    Name: 6czm_4_AMP
#    Modification time : Fri May 22 19:27:35 2020

@<TRIPOS>MOLECULE
6czm_4_AMP
   23    25     1     0     1
SMALL
NO_CHARGES


@<TRIPOS>ATOM
      1 P          -3.0950   76.7420   16.5900 P.3       1 AMP401      0.0000 
      2 O1P        -3.9530   77.9040   17.0120 O.co2     1 AMP401      0.0000 
      3 O2P        -1.6730   76.9420   17.0870 O.co2     1 AMP401      0.0000 
      4 O3P        -3.8290   75.5130   17.0290 O.co2     1 AMP401      0.0000 
      5 O5'        -3.0530   76.7260   15.0030 O.3       1 AMP401      0.0000 
      6 C5'        -3.8270   75.7800   14.2870 C.3       1 AMP401      0.0000 
      7 C4'        -3.8430   76.0630   12.8110 C.3       1 AMP401      0.0000 
      8 O4'        -2.5900   75.6140   12.2380 O.3       1 AMP401      0.0000 
      9 C3'        -4.9380   75.3390   12.0440 C.3       1 AMP401      0.0000 
     10 O3'        -5.2990   76.1070   10.9000 O.3       1 AMP401      0.0000 
     11 C2'        -4.2440   74.0560   11.6030 C.3       1 AMP401      0.0000 
     12 O2'        -4.8070   73.4660   10.4530 O.3       1 AMP401      0.0000 
     13 C1'        -2.8220   74.5440   11.3380 C.3       1 AMP401      0.0000 
     14 N9         -1.7680   73.5340   11.5220 N.pl3     1 AMP401      0.0000 
     15 C8         -1.3670   73.5970   12.7930 C.2       1 AMP401      0.0000 
     16 N7         -0.3920   72.7040   12.9690 N.2       1 AMP401      0.0000 
     17 C5         -0.1770   72.0870   11.8040 C.ar      1 AMP401      0.0000 
     18 C6          0.6970   71.0910   11.4120 C.ar      1 AMP401      0.0000 
     19 N6          1.7140   70.3290   12.0810 N.pl3     1 AMP401      0.0000 
     20 N1          0.6940   70.6530   10.1630 N.ar      1 AMP401      0.0000 
     21 C2         -0.1640   71.1830    9.2560 C.ar      1 AMP401      0.0000 
     22 N3         -1.0210   72.1510    9.6390 N.ar      1 AMP401      0.0000 
     23 C4         -1.0230   72.6010   10.9120 C.ar      1 AMP401      0.0000 
@<TRIPOS>BOND
     1    1    2 ar   
     2    1    3 ar   
     3    1    4 ar   
     4    1    5 1    
     5    5    6 1    
     6    6    7 1    
     7    7    8 1    
     8    7    9 1    
     9    8   13 1    
    10    9   10 1    
    11    9   11 1    
    12   11   12 1    
    13   11   13 1    
    14   13   14 1    
    15   14   15 1    
    16   14   23 1    
    17   15   16 2    
    18   16   17 1    
    19   17   18 ar   
    20   17   23 ar   
    21   18   19 1    
    22   18   20 ar   
    23   20   21 ar   
    24   21   22 ar   
    25   22   23 ar   
@<TRIPOS>SUBSTRUCTURE
     1 AMP401      1 GROUP   
@<TRIPOS>SET
ATOM$ORANGE STATIC     ATOMS   COLORGROUP SYSTEM 
20 6 6 7 7 9 9 11 11 13 13 15 15 17 17 18 18 21 \
21 23 23 

