#    Name: 6czm_3_AMP_CAVITY_N1_4
#    Modification time : Fri May 22 19:27:25 2020

@<TRIPOS>MOLECULE
6czm_3_AMP_CAVITY_N1_4
   18     0     4     0     0
SMALL
NO_CHARGES


@<TRIPOS>ATOM
      1 OG         12.5000  109.8500  -16.1400 O.3       1 SER1        0.0000 
      2 N          12.7900  108.8800  -18.0000 N.am      2 ALA2        0.0000 
      3 N          13.6800  109.5800  -17.0200 N.am      2 ALA2        0.0000 
      4 N          12.7300  108.5500  -15.4200 N.am      2 ALA2        0.0000 
      5 N          12.9500  107.2500  -14.7100 N.am      2 ALA2        0.0000 
      6 N          12.4400  109.5300  -13.5600 N.am      2 ALA2        0.0000 
      7 N          13.8500  107.9500  -13.7300 N.am      2 ALA2        0.0000 
      8 O          14.7400  108.6400  -12.7400 O.2       2 ALA2        0.0000 
      9 CA         12.4100  105.9200  -20.1300 C.3       3 GLY6        0.0000 
     10 CA         13.3000  106.6100  -19.1500 C.3       3 GLY6        0.0000 
     11 CA         12.1200  106.8900  -18.2700 C.3       3 GLY6        0.0000 
     12 CA         13.6200  109.2500  -14.4400 C.3       3 GLY6        0.0000 
     13 DU         13.0100  107.5800  -17.2900 H         4 CUB7        0.0000 
     14 DU         14.4200  106.0000  -17.4500 H         4 CUB7        0.0000 
     15 DU         13.2400  106.2800  -16.5700 H         4 CUB7        0.0000 
     16 DU         15.0900  108.0000  -17.1800 H         4 CUB7        0.0000 
     17 DU         13.9100  108.2800  -16.3000 H         4 CUB7        0.0000 
     18 DU         14.8000  108.9700  -15.3200 H         4 CUB7        0.0000 
@<TRIPOS>BOND
@<TRIPOS>SUBSTRUCTURE
     1 SER1        1 GROUP   
     2 ALA2        2 GROUP   
     3 GLY6        9 GROUP   
     4 CUB7       13 GROUP   
@<TRIPOS>SET

