#    Name: 6czm_3_AMP_CAVITY_N1_6
#    Modification time : Fri May 22 19:27:25 2020

@<TRIPOS>MOLECULE
6czm_3_AMP_CAVITY_N1_6
   38     0     6     0     0
SMALL
NO_CHARGES


@<TRIPOS>ATOM
      1 OG         12.5000  109.8500  -16.1400 O.3       1 SER1        0.0000 
      2 O          10.4800  109.7600  -18.8200 O.2       2 ALA2        0.0000 
      3 O          13.7500  104.0100  -17.7200 O.2       2 ALA2        0.0000 
      4 N          12.7900  108.8800  -18.0000 N.am      2 ALA2        0.0000 
      5 N          11.6000  109.1600  -17.1200 N.am      2 ALA2        0.0000 
      6 N          10.6500  108.1400  -15.5300 N.am      2 ALA2        0.0000 
      7 N          13.6800  109.5800  -17.0200 N.am      2 ALA2        0.0000 
      8 N          12.7300  108.5500  -15.4200 N.am      2 ALA2        0.0000 
      9 N          12.9500  107.2500  -14.7100 N.am      2 ALA2        0.0000 
     10 N          12.4400  109.5300  -13.5600 N.am      2 ALA2        0.0000 
     11 N          13.8500  107.9500  -13.7300 N.am      2 ALA2        0.0000 
     12 N          12.8900  106.9300  -12.1300 N.am      2 ALA2        0.0000 
     13 O          14.7400  108.6400  -12.7400 O.2       2 ALA2        0.0000 
     14 OD1        12.0600  106.5600  -15.6900 O.co2     3 ASP3        0.0000 
     15 NZ         10.0400  106.4700  -18.3700 N.4       4 LYS4        0.0000 
     16 CA         12.4100  105.9200  -20.1300 C.3       5 GLY6        0.0000 
     17 CA         11.2200  106.1900  -19.2500 C.3       5 GLY6        0.0000 
     18 CA         11.4500  104.8900  -18.5400 C.3       5 GLY6        0.0000 
     19 CA         11.8900  108.1900  -18.9800 C.3       5 GLY6        0.0000 
     20 CA         10.7100  108.4600  -18.1000 C.3       5 GLY6        0.0000 
     21 CA         13.3000  106.6100  -19.1500 C.3       5 GLY6        0.0000 
     22 CA         12.1200  106.8900  -18.2700 C.3       5 GLY6        0.0000 
     23 CA         10.9400  107.1600  -17.3900 C.3       5 GLY6        0.0000 
     24 CA         12.3400  105.5900  -17.5600 C.3       5 GLY6        0.0000 
     25 CA         11.1600  105.8600  -16.6800 C.3       5 GLY6        0.0000 
     26 CA         12.5700  104.2900  -16.8400 C.3       5 GLY6        0.0000 
     27 CA         10.4200  109.4400  -16.2400 C.3       5 GLY6        0.0000 
     28 CA         12.2800  105.2600  -14.9800 C.3       5 GLY6        0.0000 
     29 CA         11.3200  110.1300  -15.2600 C.3       5 GLY6        0.0000 
     30 CA         13.6200  109.2500  -14.4400 C.3       5 GLY6        0.0000 
     31 DU         13.0100  107.5800  -17.2900 H         6 CUB7        0.0000 
     32 DU         11.8300  107.8600  -16.4100 H         6 CUB7        0.0000 
     33 DU         14.4200  106.0000  -17.4500 H         6 CUB7        0.0000 
     34 DU         13.2400  106.2800  -16.5700 H         6 CUB7        0.0000 
     35 DU         15.0900  108.0000  -17.1800 H         6 CUB7        0.0000 
     36 DU         13.9100  108.2800  -16.3000 H         6 CUB7        0.0000 
     37 DU         13.1800  105.9500  -14.0000 H         6 CUB7        0.0000 
     38 DU         14.8000  108.9700  -15.3200 H         6 CUB7        0.0000 
@<TRIPOS>BOND
@<TRIPOS>SUBSTRUCTURE
     1 SER1        1 GROUP   
     2 ALA2        2 GROUP   
     3 ASP3       14 GROUP   
     4 LYS4       15 GROUP   
     5 GLY6       16 GROUP   
     6 CUB7       31 GROUP   
@<TRIPOS>SET

