#    Name: 6czm_5_AMP
#    Modification time : Fri May 22 19:27:47 2020

@<TRIPOS>MOLECULE
6czm_5_AMP
   23    25     1     0     1
SMALL
NO_CHARGES


@<TRIPOS>ATOM
      1 P          23.5150  106.3450   10.1450 P.3       1 AMP401      0.0000 
      2 O1P        23.8110  106.5200    8.6770 O.co2     1 AMP401      0.0000 
      3 O2P        24.1940  105.0670   10.6080 O.co2     1 AMP401      0.0000 
      4 O3P        23.8770  107.6310   10.8240 O.co2     1 AMP401      0.0000 
      5 O5'        21.9410  106.1520   10.3170 O.3       1 AMP401      0.0000 
      6 C5'        21.0550  107.2690   10.2830 C.3       1 AMP401      0.0000 
      7 C4'        19.7780  106.9430    9.5460 C.3       1 AMP401      0.0000 
      8 O4'        19.2940  105.6640   10.0110 O.3       1 AMP401      0.0000 
      9 C3'        18.6290  107.9200    9.7540 C.3       1 AMP401      0.0000 
     10 O3'        17.7380  107.8630    8.6420 O.3       1 AMP401      0.0000 
     11 C2'        17.9300  107.3500   10.9790 C.3       1 AMP401      0.0000 
     12 O2'        16.5610  107.6860   11.0800 O.3       1 AMP401      0.0000 
     13 C1'        18.1240  105.8410   10.7940 C.3       1 AMP401      0.0000 
     14 N9         18.3000  105.1210   12.0560 N.pl3     1 AMP401      0.0000 
     15 C8         19.6140  105.0600   12.2900 C.2       1 AMP401      0.0000 
     16 N7         19.8070  104.4110   13.4390 N.2       1 AMP401      0.0000 
     17 C5         18.6050  104.0760   13.9090 C.ar      1 AMP401      0.0000 
     18 C6         18.2210  103.4070   15.0360 C.ar      1 AMP401      0.0000 
     19 N6         18.9610  102.8220   16.1170 N.pl3     1 AMP401      0.0000 
     20 N1         16.9370  103.1990   15.2740 N.ar      1 AMP401      0.0000 
     21 C2         15.9990  103.6440   14.4070 C.ar      1 AMP401      0.0000 
     22 N3         16.3760  104.3080   13.3020 N.ar      1 AMP401      0.0000 
     23 C4         17.6790  104.5150   13.0630 C.ar      1 AMP401      0.0000 
@<TRIPOS>BOND
     1    1    2 ar   
     2    1    3 ar   
     3    1    4 ar   
     4    1    5 1    
     5    5    6 1    
     6    6    7 1    
     7    7    8 1    
     8    7    9 1    
     9    8   13 1    
    10    9   10 1    
    11    9   11 1    
    12   11   12 1    
    13   11   13 1    
    14   13   14 1    
    15   14   15 1    
    16   14   23 1    
    17   15   16 2    
    18   16   17 1    
    19   17   18 ar   
    20   17   23 ar   
    21   18   19 1    
    22   18   20 ar   
    23   20   21 ar   
    24   21   22 ar   
    25   22   23 ar   
@<TRIPOS>SUBSTRUCTURE
     1 AMP401      1 GROUP   
@<TRIPOS>SET
ATOM$ORANGE STATIC     ATOMS   COLORGROUP SYSTEM 
20 6 6 7 7 9 9 11 11 13 13 15 15 17 17 18 18 21 \
21 23 23 

