#    Name: 6sjs_1_THH
#    Modification time : Fri May 22 19:24:49 2020

@<TRIPOS>MOLECULE
6sjs_1_THH
   33    35     1     0     0
SMALL
NO_CHARGES


@<TRIPOS>ATOM
      1 OE1        15.7920   -8.4190   46.1810 O.co2     1 THH901      0.0000 
      2 CD         16.7500   -8.6010   46.9670 C.2       1 THH901      0.0000 
      3 OE2        17.9370   -8.7990   46.6170 O.co2     1 THH901      0.0000 
      4 CG         16.4690   -8.4920   48.4570 C.3       1 THH901      0.0000 
      5 CB         15.3170   -9.4480   48.7320 C.3       1 THH901      0.0000 
      6 CA         14.7250   -9.0880   50.1160 C.3       1 THH901      0.0000 
      7 CT         13.3690   -9.8070   50.2470 C.2       1 THH901      0.0000 
      8 O1         12.3770   -9.2500   49.7340 O.co2     1 THH901      0.0000 
      9 O2         13.3540  -10.9010   50.8500 O.co2     1 THH901      0.0000 
     10 N          15.5890   -9.4810   51.2660 N.am      1 THH901      0.0000 
     11 C          15.3500   -8.9490   52.4960 C.2       1 THH901      0.0000 
     12 O          14.4250   -8.1570   52.6750 O.2       1 THH901      0.0000 
     13 C12        16.1340   -9.3340   53.6080 C.ar      1 THH901      0.0000 
     14 C13        17.2600  -10.1680   53.5630 C.ar      1 THH901      0.0000 
     15 C14        17.9550  -10.4920   54.7370 C.ar      1 THH901      0.0000 
     16 C15        17.5510   -9.9990   55.9830 C.ar      1 THH901      0.0000 
     17 C16        16.4300   -9.1690   56.0300 C.ar      1 THH901      0.0000 
     18 C17        15.7420   -8.8510   54.8610 C.ar      1 THH901      0.0000 
     19 N10        18.2460  -10.3340   57.0880 N.pl3     1 THH901      0.0000 
     20 C9         17.7970  -10.1320   58.4730 C.3       1 THH901      0.0000 
     21 C6         16.6930  -11.1900   58.7530 C.3       1 THH901      0.0000 
     22 C7         17.3230  -12.5710   58.7250 C.3       1 THH901      0.0000 
     23 N8         18.1180  -12.7150   59.9870 N.pl3     1 THH901      0.0000 
     24 C8A        17.7730  -12.0640   61.1870 C.ar      1 THH901      0.0000 
     25 N1         18.5190  -12.2670   62.2940 N.ar      1 THH901      0.0000 
     26 C4A        16.6730  -11.2080   61.2100 C.ar      1 THH901      0.0000 
     27 N5         15.9790  -11.0680   60.0610 N.3       1 THH901      0.0000 
     28 C11        14.4900  -11.0720   60.0770 C.3       1 THH901      0.0000 
     29 C4         16.3390  -10.5730   62.4120 C.ar      1 THH901      0.0000 
     30 O4         15.3800   -9.8100   62.5150 O.3       1 THH901      0.0000 
     31 N3         17.1320  -10.8040   63.5440 N.ar      1 THH901      0.0000 
     32 C2         18.2270  -11.6620   63.4580 C.ar      1 THH901      0.0000 
     33 NA2        18.9770  -11.8720   64.5390 N.pl3     1 THH901      0.0000 
@<TRIPOS>BOND
     1    1    2 ar   
     2    2    3 ar   
     3    2    4 1    
     4    4    5 1    
     5    5    6 1    
     6    6    7 1    
     7    6   10 1    
     8    7    8 ar   
     9    7    9 ar   
    10   10   11 am   
    11   11   12 2    
    12   11   13 1    
    13   13   14 ar   
    14   13   18 ar   
    15   14   15 ar   
    16   15   16 ar   
    17   16   17 ar   
    18   16   19 1    
    19   17   18 ar   
    20   19   20 1    
    21   20   21 1    
    22   21   22 1    
    23   21   27 1    
    24   22   23 1    
    25   23   24 1    
    26   24   25 ar   
    27   24   26 ar   
    28   25   32 ar   
    29   26   27 1    
    30   26   29 ar   
    31   27   28 1    
    32   29   30 1    
    33   29   31 ar   
    34   31   32 ar   
    35   32   33 1    
@<TRIPOS>SUBSTRUCTURE
     1 THH901      1 GROUP   
@<TRIPOS>SET

