#    Name: 5yjb_1_FAD
#    Modification time : Fri May 22 19:26:18 2020

@<TRIPOS>MOLECULE
5yjb_1_FAD
   53    58     1     0     1
SMALL
NO_CHARGES


@<TRIPOS>ATOM
      1 PA          6.4050  -67.9300  -28.8890 P.3       1 FAD901      0.0000 
      2 O1A         5.4390  -68.1910  -29.9760 O.co2     1 FAD901      0.0000 
      3 O2A         7.8280  -67.3370  -29.1670 O.co2     1 FAD901      0.0000 
      4 O5B         6.8070  -69.2910  -28.1240 O.3       1 FAD901      0.0000 
      5 C5B         5.8340  -70.3050  -27.8020 C.3       1 FAD901      0.0000 
      6 C4B         6.5560  -71.5860  -28.0720 C.3       1 FAD901      0.0000 
      7 O4B         5.6580  -72.6900  -27.8520 O.3       1 FAD901      0.0000 
      8 C3B         7.0830  -71.7320  -29.5030 C.3       1 FAD901      0.0000 
      9 O3B         8.4740  -72.0310  -29.4490 O.3       1 FAD901      0.0000 
     10 C2B         6.2100  -72.8520  -30.0930 C.3       1 FAD901      0.0000 
     11 O2B         6.8600  -73.7030  -31.0280 O.3       1 FAD901      0.0000 
     12 C1B         5.9230  -73.6560  -28.8390 C.3       1 FAD901      0.0000 
     13 N9A         4.7920  -74.5650  -28.9150 N.pl3     1 FAD901      0.0000 
     14 C8A         3.5880  -74.3820  -29.5420 C.2       1 FAD901      0.0000 
     15 N7A         2.7550  -75.3910  -29.4100 N.2       1 FAD901      0.0000 
     16 C5A         3.4620  -76.2940  -28.6320 C.ar      1 FAD901      0.0000 
     17 C6A         3.1390  -77.5720  -28.1290 C.ar      1 FAD901      0.0000 
     18 N6A         1.9670  -78.1790  -28.3460 N.pl3     1 FAD901      0.0000 
     19 N1A         4.0790  -78.2110  -27.3880 N.ar      1 FAD901      0.0000 
     20 C2A         5.2560  -77.6070  -27.1740 C.ar      1 FAD901      0.0000 
     21 N3A         5.6740  -76.4070  -27.5940 N.ar      1 FAD901      0.0000 
     22 C4A         4.7190  -75.7960  -28.3140 C.ar      1 FAD901      0.0000 
     23 N1          7.9040  -58.2710  -31.6660 N.2       1 FAD901      0.0000 
     24 C2          8.7280  -57.1900  -31.5440 C.2       1 FAD901      0.0000 
     25 O2          8.9460  -56.6460  -30.4510 O.2       1 FAD901      0.0000 
     26 N3          9.3360  -56.6780  -32.6710 N.am      1 FAD901      0.0000 
     27 C4          9.2040  -57.1540  -33.9500 C.2       1 FAD901      0.0000 
     28 O4          9.8050  -56.6330  -34.8840 O.2       1 FAD901      0.0000 
     29 C4X         8.3340  -58.2850  -34.0700 C.2       1 FAD901      0.0000 
     30 N5          8.1810  -58.7890  -35.2330 N.2       1 FAD901      0.0000 
     31 C5X         7.3850  -59.9010  -35.3610 C.ar      1 FAD901      0.0000 
     32 C6          7.2210  -60.4540  -36.6240 C.ar      1 FAD901      0.0000 
     33 C7          6.4250  -61.5740  -36.8160 C.ar      1 FAD901      0.0000 
     34 C7M         6.2740  -62.1380  -38.2040 C.3       1 FAD901      0.0000 
     35 C8          5.7690  -62.1540  -35.7170 C.ar      1 FAD901      0.0000 
     36 C8M         4.9060  -63.3710  -35.8900 C.3       1 FAD901      0.0000 
     37 C9          5.9330  -61.6050  -34.4480 C.ar      1 FAD901      0.0000 
     38 C9A         6.7350  -60.4850  -34.2670 C.ar      1 FAD901      0.0000 
     39 N10         6.9330  -59.9030  -33.0020 N.pl3     1 FAD901      0.0000 
     40 C10         7.7350  -58.7910  -32.8680 C.2       1 FAD901      0.0000 
     41 C1'         6.2690  -60.4540  -31.8140 C.3       1 FAD901      0.0000 
     42 C2'         7.1760  -61.3350  -30.9640 C.3       1 FAD901      0.0000 
     43 O2'         8.0160  -62.1300  -31.8000 O.3       1 FAD901      0.0000 
     44 C3'         6.3100  -62.2570  -30.1090 C.3       1 FAD901      0.0000 
     45 O3'         5.3470  -61.5110  -29.3770 O.3       1 FAD901      0.0000 
     46 C4'         7.1190  -63.0640  -29.1090 C.3       1 FAD901      0.0000 
     47 O4'         8.4550  -63.2190  -29.5900 O.3       1 FAD901      0.0000 
     48 C5'         6.4570  -64.4020  -28.8660 C.3       1 FAD901      0.0000 
     49 O5'         7.0750  -65.0410  -27.7300 O.3       1 FAD901      0.0000 
     50 P           6.2390  -65.9570  -26.7750 P.3       1 FAD901      0.0000 
     51 O1P         7.4270  -66.4690  -25.9540 O.co2     1 FAD901      0.0000 
     52 O2P         5.1360  -65.3660  -26.0780 O.co2     1 FAD901      0.0000 
     53 O3P         5.6850  -67.0850  -27.7540 O.3       1 FAD901      0.0000 
@<TRIPOS>BOND
     1   50   51 ar   
     2   50   52 ar   
     3   50   53 1    
     4    1    2 ar   
     5    1    3 ar   
     6    1    4 1    
     7    1   53 1    
     8    4    5 1    
     9    5    6 1    
    10    6    7 1    
    11    6    8 1    
    12    7   12 1    
    13    8    9 1    
    14    8   10 1    
    15   10   11 1    
    16   10   12 1    
    17   12   13 1    
    18   13   14 1    
    19   13   22 1    
    20   14   15 2    
    21   15   16 1    
    22   16   17 ar   
    23   16   22 ar   
    24   17   18 1    
    25   17   19 ar   
    26   19   20 ar   
    27   20   21 ar   
    28   21   22 ar   
    29   23   24 1    
    30   23   40 2    
    31   24   25 2    
    32   24   26 am   
    33   26   27 am   
    34   27   28 2    
    35   27   29 1    
    36   29   30 2    
    37   29   40 1    
    38   30   31 1    
    39   31   32 ar   
    40   31   38 ar   
    41   32   33 ar   
    42   33   34 1    
    43   33   35 ar   
    44   35   36 1    
    45   35   37 ar   
    46   37   38 ar   
    47   38   39 1    
    48   39   40 1    
    49   39   41 1    
    50   41   42 1    
    51   42   43 1    
    52   42   44 1    
    53   44   45 1    
    54   44   46 1    
    55   46   47 1    
    56   46   48 1    
    57   48   49 1    
    58   49   50 1    
@<TRIPOS>SUBSTRUCTURE
     1 FAD901      1 GROUP   
@<TRIPOS>SET
ATOM$ORANGE STATIC     ATOMS   COLORGROUP SYSTEM 
54 5 5 6 6 8 8 10 10 12 12 14 14 16 16 17 17 20 \
20 22 22 24 24 27 27 29 29 31 31 32 32 33 33 34 34 35 \
35 36 36 37 37 38 38 40 40 41 41 42 42 44 44 46 46 48 \
48 

