#    Name: 6snc_2_PC_CAVITY_N1_4
#    Modification time : Fri May 22 19:28:37 2020

@<TRIPOS>MOLECULE
6snc_2_PC_CAVITY_N1_4
   80     0     6     0     0
SMALL
NO_CHARGES


@<TRIPOS>ATOM
      1 OG          7.3800   -8.8900  -19.6500 O.3       1 SER1        0.0000 
      2 OG          7.6400   -7.3100  -18.2600 O.3       1 SER1        0.0000 
      3 OG          8.5600   -8.2700  -18.9600 O.3       1 SER1        0.0000 
      4 OG          8.4000   -9.2500  -17.8300 O.3       1 SER1        0.0000 
      5 OG          9.4800   -9.2400  -19.6600 O.3       1 SER1        0.0000 
      6 OG         10.3900  -10.2000  -20.3500 O.3       1 SER1        0.0000 
      7 OG         11.3100  -11.1600  -21.0500 O.3       1 SER1        0.0000 
      8 OG          8.8200   -6.7000  -17.5600 O.3       1 SER1        0.0000 
      9 OG          8.6700   -7.6700  -16.4300 O.3       1 SER1        0.0000 
     10 OG          9.5800   -8.6300  -17.1300 O.3       1 SER1        0.0000 
     11 O           5.8900  -11.4500  -18.0800 O.2       2 ALA2        0.0000 
     12 O           5.7300  -12.4300  -16.9500 O.2       2 ALA2        0.0000 
     13 O           6.6500  -13.3900  -17.6500 O.2       2 ALA2        0.0000 
     14 O           6.3300  -15.3300  -15.3900 O.2       2 ALA2        0.0000 
     15 O           8.4800  -15.3100  -19.0500 O.2       2 ALA2        0.0000 
     16 O           6.3100   -8.9000  -17.8200 O.2       2 ALA2        0.0000 
     17 O           6.1500   -9.8800  -16.6900 O.2       2 ALA2        0.0000 
     18 O           7.8300  -12.7700  -16.9600 O.2       2 ALA2        0.0000 
     19 O           7.6700  -13.7400  -15.8200 O.2       2 ALA2        0.0000 
     20 O           7.5100  -14.7100  -14.6900 O.2       2 ALA2        0.0000 
     21 O           8.7400  -13.7300  -17.6500 O.2       2 ALA2        0.0000 
     22 O           8.5800  -14.7000  -16.5200 O.2       2 ALA2        0.0000 
     23 O           8.4300  -15.6800  -15.3900 O.2       2 ALA2        0.0000 
     24 O           9.6600  -14.6900  -18.3500 O.2       2 ALA2        0.0000 
     25 O           9.5000  -15.6600  -17.2200 O.2       2 ALA2        0.0000 
     26 O          10.7300  -14.6800  -20.1800 O.2       2 ALA2        0.0000 
     27 O          11.6500  -15.6400  -20.8800 O.2       2 ALA2        0.0000 
     28 O          12.0700  -13.0900  -20.6200 O.2       2 ALA2        0.0000 
     29 O          11.9100  -14.0600  -19.4900 O.2       2 ALA2        0.0000 
     30 N          12.9800  -14.0500  -21.3200 N.am      2 ALA2        0.0000 
     31 N          12.8200  -15.0200  -20.1900 N.am      2 ALA2        0.0000 
     32 N          10.5000   -9.5900  -17.8300 N.am      2 ALA2        0.0000 
     33 N          11.5700   -9.5800  -19.6600 N.am      2 ALA2        0.0000 
     34 N          11.4100  -10.5500  -18.5300 N.am      2 ALA2        0.0000 
     35 N          13.3500  -11.8700  -17.4000 N.am      2 ALA2        0.0000 
     36 N          13.1900  -12.8400  -16.2700 N.am      2 ALA2        0.0000 
     37 OD1         6.9100  -11.8100  -16.2600 O.co2     3 ASP3        0.0000 
     38 OD1         6.7500  -12.7800  -15.1300 O.co2     3 ASP3        0.0000 
     39 OD1         6.6000  -13.7500  -13.9900 O.co2     3 ASP3        0.0000 
     40 OD1         7.3300   -9.2600  -16.0000 O.co2     3 ASP3        0.0000 
     41 OD1         8.8500  -13.1200  -15.1300 O.co2     3 ASP3        0.0000 
     42 CZ          5.0300  -10.1300  -21.0400 C.ar      4 PHE5        0.0000 
     43 CZ          4.8700  -11.1000  -19.9100 C.ar      4 PHE5        0.0000 
     44 CZ          6.2100   -9.5100  -20.3500 C.ar      4 PHE5        0.0000 
     45 CZ          6.0500  -10.4800  -19.2100 C.ar      4 PHE5        0.0000 
     46 CZ          5.5800  -13.4000  -15.8200 C.ar      4 PHE5        0.0000 
     47 CZ          6.8100  -12.4100  -18.7800 C.ar      4 PHE5        0.0000 
     48 CZ          8.3000   -9.8500  -20.3500 C.ar      4 PHE5        0.0000 
     49 CZ          8.1400  -10.8300  -19.2200 C.ar      4 PHE5        0.0000 
     50 CZ          7.9800  -11.8000  -18.0900 C.ar      4 PHE5        0.0000 
     51 CZ          9.0600  -11.7900  -19.9200 C.ar      4 PHE5        0.0000 
     52 CZ          8.9000  -12.7600  -18.7900 C.ar      4 PHE5        0.0000 
     53 CZ          9.8100  -13.7200  -19.4800 C.ar      4 PHE5        0.0000 
     54 CZ         11.1500  -12.1300  -19.9200 C.ar      4 PHE5        0.0000 
     55 CZ         12.3300  -11.5100  -19.2300 C.ar      4 PHE5        0.0000 
     56 CZ         13.0900  -13.4500  -18.7900 C.ar      4 PHE5        0.0000 
     57 CZ         14.1600  -13.4400  -20.6200 C.ar      4 PHE5        0.0000 
     58 CZ         13.5100  -10.9000  -18.5300 C.ar      4 PHE5        0.0000 
     59 CZ         14.2600  -12.8300  -18.1000 C.ar      4 PHE5        0.0000 
     60 CA          4.5000  -13.4100  -13.9900 C.3       5 GLY6        0.0000 
     61 CA          5.4200  -14.3700  -14.6900 C.3       5 GLY6        0.0000 
     62 CA          8.2500  -10.2200  -16.6900 C.3       5 GLY6        0.0000 
     63 CA          9.1600  -11.1800  -17.3900 C.3       5 GLY6        0.0000 
     64 CA          9.0000  -12.1500  -16.2600 C.3       5 GLY6        0.0000 
     65 CA          9.9200  -13.1100  -16.9600 C.3       5 GLY6        0.0000 
     66 CA         10.3400  -10.5600  -16.7000 C.3       5 GLY6        0.0000 
     67 CA         11.2500  -11.5200  -17.4000 C.3       5 GLY6        0.0000 
     68 CA         11.1000  -12.5000  -16.2700 C.3       5 GLY6        0.0000 
     69 DU          7.2300   -9.8600  -18.5200 H         6 CUB7        0.0000 
     70 DU          7.0700  -10.8400  -17.3900 H         6 CUB7        0.0000 
     71 DU          7.4900   -8.2900  -17.1300 H         6 CUB7        0.0000 
     72 DU          9.3200  -10.2100  -18.5200 H         6 CUB7        0.0000 
     73 DU         10.2300  -11.1700  -19.2200 H         6 CUB7        0.0000 
     74 DU         10.0800  -12.1400  -18.0900 H         6 CUB7        0.0000 
     75 DU         10.9900  -13.1000  -18.7900 H         6 CUB7        0.0000 
     76 DU         10.8400  -14.0700  -17.6600 H         6 CUB7        0.0000 
     77 DU         10.6800  -15.0500  -16.5300 H         6 CUB7        0.0000 
     78 DU          7.7500   -6.7100  -15.7300 H         6 CUB7        0.0000 
     79 DU         12.1700  -12.4900  -18.1000 H         6 CUB7        0.0000 
     80 DU         12.0100  -13.4600  -16.9600 H         6 CUB7        0.0000 
@<TRIPOS>BOND
@<TRIPOS>SUBSTRUCTURE
     1 SER1        1 GROUP   
     2 ALA2       11 GROUP   
     3 ASP3       37 GROUP   
     4 PHE5       42 GROUP   
     5 GLY6       60 GROUP   
     6 CUB7       69 GROUP   
@<TRIPOS>SET

