#    Name: 6snc_1_PC_CAVITY_N1_12
#    Modification time : Fri May 22 19:28:31 2020

@<TRIPOS>MOLECULE
6snc_1_PC_CAVITY_N1_12
   80     0     5     0     0
SMALL
NO_CHARGES


@<TRIPOS>ATOM
      1 OG         -0.9900  -21.2400   28.2300 O.3       1 SER1        0.0000 
      2 OG          1.1000  -21.5900   28.2300 O.3       1 SER1        0.0000 
      3 OG          0.0000  -15.1700   27.6200 O.3       1 SER1        0.0000 
      4 OG          2.2800  -20.9700   28.9200 O.3       1 SER1        0.0000 
      5 OG          1.1800  -14.5500   28.3200 O.3       1 SER1        0.0000 
      6 OG          3.2700  -14.8900   28.3100 O.3       1 SER1        0.0000 
      7 OG          3.6900  -12.3400   28.5700 O.3       1 SER1        0.0000 
      8 OG          4.8700  -11.7300   29.2700 O.3       1 SER1        0.0000 
      9 N          -1.5900  -18.3400   26.6700 N.am      2 ALA2        0.0000 
     10 N          -1.7500  -19.3100   27.8000 N.am      2 ALA2        0.0000 
     11 N          -1.9100  -20.2800   28.9300 N.am      2 ALA2        0.0000 
     12 N          -2.0700  -21.2500   30.0600 N.am      2 ALA2        0.0000 
     13 N          -1.4900  -17.7300   29.1900 N.am      2 ALA2        0.0000 
     14 O          -0.2600  -16.7500   26.2300 O.2       2 ALA2        0.0000 
     15 N          -0.4200  -17.7200   27.3600 N.am      2 ALA2        0.0000 
     16 N          -0.5700  -18.6900   28.4900 N.am      2 ALA2        0.0000 
     17 N          -0.7300  -19.6600   29.6300 N.am      2 ALA2        0.0000 
     18 O          -0.1500  -16.1400   28.7600 O.2       2 ALA2        0.0000 
     19 O          -0.3100  -17.1100   29.8900 O.2       2 ALA2        0.0000 
     20 N          -0.4700  -18.0800   31.0200 N.am      2 ALA2        0.0000 
     21 N           2.4400  -20.0000   27.7900 N.am      2 ALA2        0.0000 
     22 N           3.1900  -21.9300   28.2200 N.am      2 ALA2        0.0000 
     23 O           1.0200  -15.5200   29.4500 O.2       2 ALA2        0.0000 
     24 O           0.8700  -16.4900   30.5800 O.2       2 ALA2        0.0000 
     25 N           3.9300  -17.4300   26.2200 N.am      2 ALA2        0.0000 
     26 N           3.7700  -18.4100   27.3500 N.am      2 ALA2        0.0000 
     27 N           3.6100  -19.3800   28.4900 N.am      2 ALA2        0.0000 
     28 N           4.1900  -15.8600   27.6100 N.am      2 ALA2        0.0000 
     29 N           4.6100  -13.3000   27.8800 N.am      2 ALA2        0.0000 
     30 CZ         -0.6800  -19.3000   25.9700 C.ar      3 PHE5        0.0000 
     31 CZ         -0.8400  -20.2700   27.1000 C.ar      3 PHE5        0.0000 
     32 CZ          0.6600  -17.7100   25.5300 C.ar      3 PHE5        0.0000 
     33 CZ          1.5700  -18.6700   24.8300 C.ar      3 PHE5        0.0000 
     34 CZ          1.4200  -19.6400   25.9700 C.ar      3 PHE5        0.0000 
     35 CZ          1.2600  -20.6100   27.1000 C.ar      3 PHE5        0.0000 
     36 CZ          0.9200  -16.1300   26.9300 C.ar      3 PHE5        0.0000 
     37 CZ          1.8300  -17.0900   26.2300 C.ar      3 PHE5        0.0000 
     38 CZ          2.7500  -18.0500   25.5300 C.ar      3 PHE5        0.0000 
     39 CZ          0.7100  -17.4700   31.7100 C.ar      3 PHE5        0.0000 
     40 CZ          2.1000  -15.5100   27.6200 C.ar      3 PHE5        0.0000 
     41 CZ          3.0100  -16.4700   26.9200 C.ar      3 PHE5        0.0000 
     42 CZ          2.3600  -13.9300   29.0100 C.ar      3 PHE5        0.0000 
     43 CZ          2.2000  -14.9100   30.1400 C.ar      3 PHE5        0.0000 
     44 CZ          2.0400  -15.8800   31.2700 C.ar      3 PHE5        0.0000 
     45 CZ          3.5400  -13.3200   29.7100 C.ar      3 PHE5        0.0000 
     46 CZ          3.3800  -14.2900   30.8400 C.ar      3 PHE5        0.0000 
     47 CZ          4.7100  -12.7000   30.4000 C.ar      3 PHE5        0.0000 
     48 CA          2.5900  -19.0200   26.6600 C.3       4 GLY6        0.0000 
     49 CA          5.1100  -16.8200   26.9200 C.3       4 GLY6        0.0000 
     50 CA          4.9500  -17.7900   28.0500 C.3       4 GLY6        0.0000 
     51 CA          5.3700  -15.2400   28.3100 C.3       4 GLY6        0.0000 
     52 CA          5.2100  -16.2100   29.4400 C.3       4 GLY6        0.0000 
     53 CA          5.7900  -12.6900   28.5700 C.3       4 GLY6        0.0000 
     54 CA          6.5500  -14.6200   29.0000 C.3       4 GLY6        0.0000 
     55 CA          6.3900  -15.5900   30.1300 C.3       4 GLY6        0.0000 
     56 CA          6.9600  -12.0700   29.2600 C.3       4 GLY6        0.0000 
     57 CA          7.8800  -13.0300   28.5700 C.3       4 GLY6        0.0000 
     58 CA          7.5700  -14.9800   30.8300 C.3       4 GLY6        0.0000 
     59 DU          0.5000  -18.6800   26.6600 H         5 CUB7        0.0000 
     60 DU          0.3400  -19.6500   27.8000 H         5 CUB7        0.0000 
     61 DU          0.1800  -20.6200   28.9300 H         5 CUB7        0.0000 
     62 DU          0.7600  -17.1000   28.0600 H         5 CUB7        0.0000 
     63 DU          0.6000  -18.0700   29.1900 H         5 CUB7        0.0000 
     64 DU          0.4500  -19.0500   30.3200 H         5 CUB7        0.0000 
     65 DU          1.6800  -18.0600   27.3600 H         5 CUB7        0.0000 
     66 DU          1.5200  -19.0300   28.4900 H         5 CUB7        0.0000 
     67 DU          1.3600  -20.0100   29.6200 H         5 CUB7        0.0000 
     68 DU          1.9400  -16.4800   28.7500 H         5 CUB7        0.0000 
     69 DU          1.7800  -17.4600   29.8800 H         5 CUB7        0.0000 
     70 DU          1.6200  -18.4300   31.0100 H         5 CUB7        0.0000 
     71 DU          2.8500  -17.4400   28.0500 H         5 CUB7        0.0000 
     72 DU          2.7000  -18.4200   29.1800 H         5 CUB7        0.0000 
     73 DU          3.1200  -15.8700   29.4400 H         5 CUB7        0.0000 
     74 DU          2.9600  -16.8400   30.5800 H         5 CUB7        0.0000 
     75 DU          4.0300  -16.8300   28.7500 H         5 CUB7        0.0000 
     76 DU          4.4500  -14.2800   29.0100 H         5 CUB7        0.0000 
     77 DU          4.2900  -15.2500   30.1400 H         5 CUB7        0.0000 
     78 DU          5.6300  -13.6600   29.7000 H         5 CUB7        0.0000 
     79 DU          5.4700  -14.6300   30.8300 H         5 CUB7        0.0000 
     80 DU          6.8100  -13.0400   30.4000 H         5 CUB7        0.0000 
@<TRIPOS>BOND
@<TRIPOS>SUBSTRUCTURE
     1 SER1        1 GROUP   
     2 ALA2        9 GROUP   
     3 PHE5       30 GROUP   
     4 GLY6       48 GROUP   
     5 CUB7       59 GROUP   
@<TRIPOS>SET

