#    Name: 6snc_2_PC
#    Modification time : Fri May 22 19:28:37 2020

@<TRIPOS>MOLECULE
6snc_2_PC
   11    10     1     0     0
SMALL
NO_CHARGES


@<TRIPOS>ATOM
      1 P1          6.7470  -11.3570  -16.9950 P.3       1 PC701       0.0000 
      2 O1          5.4390  -10.9720  -17.6430 O.co2     1 PC701       0.0000 
      3 O3          7.4290  -10.0660  -16.5980 O.co2     1 PC701       0.0000 
      4 O4          6.4640  -12.2370  -15.8020 O.co2     1 PC701       0.0000 
      5 O2          7.6850  -12.2480  -18.0250 O.3       1 PC701       0.0000 
      6 C1          9.0170  -11.9020  -18.2690 C.3       1 PC701       0.0000 
      7 C2          9.0780  -10.6960  -19.2160 C.3       1 PC701       0.0000 
      8 N1         10.3930  -10.5960  -19.8070 N.4       1 PC701       0.0000 
      9 C3         10.6990  -11.7990  -20.5390 C.3       1 PC701       0.0000 
     10 C4         11.3910  -10.4600  -18.7770 C.3       1 PC701       0.0000 
     11 C5         10.4260   -9.4570  -20.7030 C.3       1 PC701       0.0000 
@<TRIPOS>BOND
     1    1    2 ar   
     2    1    3 ar   
     3    1    4 ar   
     4    1    5 1    
     5    5    6 1    
     6    6    7 1    
     7    7    8 1    
     8    8    9 1    
     9    8   10 1    
    10    8   11 1    
@<TRIPOS>SUBSTRUCTURE
     1 PC701       1 GROUP   
@<TRIPOS>SET

