#    Name: 6snc_1_PC
#    Modification time : Fri May 22 19:28:31 2020

@<TRIPOS>MOLECULE
6snc_1_PC
   11    10     1     0     0
SMALL
NO_CHARGES


@<TRIPOS>ATOM
      1 P1          6.6250  -13.8430   32.7580 P.3       1 PC701       0.0000 
      2 O1          7.9070  -13.4630   32.0870 O.co2     1 PC701       0.0000 
      3 O3          6.0590  -12.7820   33.6500 O.co2     1 PC701       0.0000 
      4 O4          6.5720  -15.2280   33.3240 O.co2     1 PC701       0.0000 
      5 O2          5.6500  -13.8980   31.5030 O.3       1 PC701       0.0000 
      6 C1          5.8830  -12.9570   30.4690 C.3       1 PC701       0.0000 
      7 C2          5.4130  -13.5150   29.1340 C.3       1 PC701       0.0000 
      8 N1          3.9790  -13.7970   29.1250 N.4       1 PC701       0.0000 
      9 C3          3.2810  -12.9060   30.0510 C.3       1 PC701       0.0000 
     10 C4          3.7470  -15.1850   29.5120 C.3       1 PC701       0.0000 
     11 C5          3.4410  -13.5910   27.7830 C.3       1 PC701       0.0000 
@<TRIPOS>BOND
     1    1    2 ar   
     2    1    3 ar   
     3    1    4 ar   
     4    1    5 1    
     5    5    6 1    
     6    6    7 1    
     7    7    8 1    
     8    8    9 1    
     9    8   10 1    
    10    8   11 1    
@<TRIPOS>SUBSTRUCTURE
     1 PC701       1 GROUP   
@<TRIPOS>SET

