#    Name: 6snc_1_PC_CAVITY_N1_4
#    Modification time : Fri May 22 19:28:31 2020

@<TRIPOS>MOLECULE
6snc_1_PC_CAVITY_N1_4
   43     0     5     0     0
SMALL
NO_CHARGES


@<TRIPOS>ATOM
      1 OG          0.0000  -15.1700   27.6200 O.3       1 SER1        0.0000 
      2 OG          1.1800  -14.5500   28.3200 O.3       1 SER1        0.0000 
      3 OG          3.2700  -14.8900   28.3100 O.3       1 SER1        0.0000 
      4 OG          3.6900  -12.3400   28.5700 O.3       1 SER1        0.0000 
      5 OG          4.8700  -11.7300   29.2700 O.3       1 SER1        0.0000 
      6 O           1.0200  -15.5200   29.4500 O.2       2 ALA2        0.0000 
      7 O           0.8700  -16.4900   30.5800 O.2       2 ALA2        0.0000 
      8 N           3.9300  -17.4300   26.2200 N.am      2 ALA2        0.0000 
      9 N           3.7700  -18.4100   27.3500 N.am      2 ALA2        0.0000 
     10 N           4.1900  -15.8600   27.6100 N.am      2 ALA2        0.0000 
     11 N           4.6100  -13.3000   27.8800 N.am      2 ALA2        0.0000 
     12 CZ          0.9200  -16.1300   26.9300 C.ar      3 PHE5        0.0000 
     13 CZ          2.1000  -15.5100   27.6200 C.ar      3 PHE5        0.0000 
     14 CZ          3.0100  -16.4700   26.9200 C.ar      3 PHE5        0.0000 
     15 CZ          2.3600  -13.9300   29.0100 C.ar      3 PHE5        0.0000 
     16 CZ          2.2000  -14.9100   30.1400 C.ar      3 PHE5        0.0000 
     17 CZ          2.0400  -15.8800   31.2700 C.ar      3 PHE5        0.0000 
     18 CZ          3.5400  -13.3200   29.7100 C.ar      3 PHE5        0.0000 
     19 CZ          3.3800  -14.2900   30.8400 C.ar      3 PHE5        0.0000 
     20 CZ          4.7100  -12.7000   30.4000 C.ar      3 PHE5        0.0000 
     21 CA          5.1100  -16.8200   26.9200 C.3       4 GLY6        0.0000 
     22 CA          4.9500  -17.7900   28.0500 C.3       4 GLY6        0.0000 
     23 CA          5.3700  -15.2400   28.3100 C.3       4 GLY6        0.0000 
     24 CA          5.2100  -16.2100   29.4400 C.3       4 GLY6        0.0000 
     25 CA          5.7900  -12.6900   28.5700 C.3       4 GLY6        0.0000 
     26 CA          6.5500  -14.6200   29.0000 C.3       4 GLY6        0.0000 
     27 CA          6.3900  -15.5900   30.1300 C.3       4 GLY6        0.0000 
     28 CA          6.9600  -12.0700   29.2600 C.3       4 GLY6        0.0000 
     29 CA          7.8800  -13.0300   28.5700 C.3       4 GLY6        0.0000 
     30 CA          7.5700  -14.9800   30.8300 C.3       4 GLY6        0.0000 
     31 DU          0.7600  -17.1000   28.0600 H         5 CUB7        0.0000 
     32 DU          1.9400  -16.4800   28.7500 H         5 CUB7        0.0000 
     33 DU          1.7800  -17.4600   29.8800 H         5 CUB7        0.0000 
     34 DU          2.8500  -17.4400   28.0500 H         5 CUB7        0.0000 
     35 DU          2.7000  -18.4200   29.1800 H         5 CUB7        0.0000 
     36 DU          3.1200  -15.8700   29.4400 H         5 CUB7        0.0000 
     37 DU          2.9600  -16.8400   30.5800 H         5 CUB7        0.0000 
     38 DU          4.0300  -16.8300   28.7500 H         5 CUB7        0.0000 
     39 DU          4.4500  -14.2800   29.0100 H         5 CUB7        0.0000 
     40 DU          4.2900  -15.2500   30.1400 H         5 CUB7        0.0000 
     41 DU          5.6300  -13.6600   29.7000 H         5 CUB7        0.0000 
     42 DU          5.4700  -14.6300   30.8300 H         5 CUB7        0.0000 
     43 DU          6.8100  -13.0400   30.4000 H         5 CUB7        0.0000 
@<TRIPOS>BOND
@<TRIPOS>SUBSTRUCTURE
     1 SER1        1 GROUP   
     2 ALA2        6 GROUP   
     3 PHE5       12 GROUP   
     4 GLY6       21 GROUP   
     5 CUB7       31 GROUP   
@<TRIPOS>SET

