#    Name: 6ce2_1_SVR
#    Modification time : Fri May 22 19:33:01 2020

@<TRIPOS>MOLECULE
6ce2_1_SVR
   86    93     1     0     0
SMALL
NO_CHARGES


@<TRIPOS>ATOM
      1 O35        15.5360   11.1970   10.6670 O.co2     1 SVR202      0.0000 
      2 S31        16.7560   10.2890   10.9460 S.o2      1 SVR202      0.0000 
      3 O36        17.5510   10.4360    9.6790 O.co2     1 SVR202      0.0000 
      4 O34        17.5370   10.7690   12.1610 O.co2     1 SVR202      0.0000 
      5 C22        16.2350    8.5570   11.1920 C.ar      1 SVR202      0.0000 
      6 C18        16.1130    8.0630   12.5300 C.ar      1 SVR202      0.0000 
      7 C11        15.7270    6.7670   12.7610 C.ar      1 SVR202      0.0000 
      8 S17        15.6120    6.2740   14.5370 S.o2      1 SVR202      0.0000 
      9 O23        16.3020    4.9640   14.8050 O.co2     1 SVR202      0.0000 
     10 O24        14.1830    5.9850   14.9480 O.co2     1 SVR202      0.0000 
     11 O25        16.1820    7.3640   15.3800 O.co2     1 SVR202      0.0000 
     12 C16        15.9670    7.7420   10.1260 C.ar      1 SVR202      0.0000 
     13 C10        15.5620    6.3870   10.3530 C.ar      1 SVR202      0.0000 
     14 C15        15.3010    5.5950    9.2870 C.ar      1 SVR202      0.0000 
     15 S21        15.4690    6.2720    7.5730 S.o2      1 SVR202      0.0000 
     16 O28        15.1300    5.2280    6.5420 O.co2     1 SVR202      0.0000 
     17 O29        16.9200    6.5710    7.2350 O.co2     1 SVR202      0.0000 
     18 O30        14.6000    7.5000    7.4120 O.co2     1 SVR202      0.0000 
     19 C12        14.9020    4.2600    9.4730 C.ar      1 SVR202      0.0000 
     20 C7         14.7820    3.7630   10.7570 C.ar      1 SVR202      0.0000 
     21 C6         15.4390    5.8950   11.6520 C.ar      1 SVR202      0.0000 
     22 C3         15.0390    4.5550   11.8320 C.ar      1 SVR202      0.0000 
     23 N1         14.9010    4.0130   13.1290 N.am      1 SVR202      0.0000 
     24 C2         13.6420    3.4670   13.5320 C.2       1 SVR202      0.0000 
     25 O4         12.7030    3.4800   12.8040 O.2       1 SVR202      0.0000 
     26 C5         13.4750    2.8840   14.9570 C.ar      1 SVR202      0.0000 
     27 C8         12.1930    2.8620   15.4840 C.ar      1 SVR202      0.0000 
     28 C9         14.5350    2.4130   15.6940 C.ar      1 SVR202      0.0000 
     29 C14        14.3090    1.9030   16.9870 C.ar      1 SVR202      0.0000 
     30 C20        13.0250    1.8780   17.5150 C.ar      1 SVR202      0.0000 
     31 C27        12.7860    1.3310   18.9050 C.3       1 SVR202      0.0000 
     32 C13        11.9660    2.3670   16.7480 C.ar      1 SVR202      0.0000 
     33 N19        10.5040    2.4010   17.2100 N.am      1 SVR202      0.0000 
     34 C26         9.7270    1.1750   17.4150 C.2       1 SVR202      0.0000 
     35 O32        10.2050    0.1070   17.2480 O.2       1 SVR202      0.0000 
     36 C33         8.2460    1.3780   17.8430 C.ar      1 SVR202      0.0000 
     37 C37         7.5490    2.3510   17.1530 C.ar      1 SVR202      0.0000 
     38 C38         7.6300    0.6510   18.8380 C.ar      1 SVR202      0.0000 
     39 C40         6.2900    0.9100   19.1470 C.ar      1 SVR202      0.0000 
     40 C42         5.5840    1.8840   18.4630 C.ar      1 SVR202      0.0000 
     41 C39         6.2180    2.6060   17.4600 C.ar      1 SVR202      0.0000 
     42 N41         5.5230    3.6730   16.6850 N.am      1 SVR202      0.0000 
     43 C43         4.4520    3.3870   15.7470 C.2       1 SVR202      0.0000 
     44 O45         4.0670    2.2910   15.5560 O.2       1 SVR202      0.0000 
     45 N44         3.8570    4.5800   15.0410 N.am      1 SVR202      0.0000 
     46 C46         2.7160    4.5270   14.0000 C.ar      1 SVR202      0.0000 
     47 C47         3.0520    4.6320   12.6680 C.ar      1 SVR202      0.0000 
     48 C48         1.3790    4.4060   14.3760 C.ar      1 SVR202      0.0000 
     49 C50         0.3960    4.3770   13.3950 C.ar      1 SVR202      0.0000 
     50 C52         0.7340    4.4770   12.0490 C.ar      1 SVR202      0.0000 
     51 C49         2.0650    4.6050   11.6910 C.ar      1 SVR202      0.0000 
     52 C51         2.5420    4.7180   10.2500 C.2       1 SVR202      0.0000 
     53 O54         1.8110    4.4580    9.3030 O.2       1 SVR202      0.0000 
     54 N53         3.9310    5.1570   10.0820 N.am      1 SVR202      0.0000 
     55 C55         4.5980    5.3090    8.7480 C.ar      1 SVR202      0.0000 
     56 C56         4.6450    4.2120    7.8990 C.ar      1 SVR202      0.0000 
     57 C57         5.2010    6.5220    8.3670 C.ar      1 SVR202      0.0000 
     58 C59         5.1590    7.7690    9.3270 C.3       1 SVR202      0.0000 
     59 C60         5.8240    6.6240    7.1260 C.ar      1 SVR202      0.0000 
     60 C62         5.8710    5.5120    6.2590 C.ar      1 SVR202      0.0000 
     61 C58         5.2890    4.3150    6.6540 C.ar      1 SVR202      0.0000 
     62 C61         5.2850    3.0700    5.7140 C.2       1 SVR202      0.0000 
     63 O64         4.4470    2.2200    5.9060 O.2       1 SVR202      0.0000 
     64 N63         6.2480    2.8670    4.5770 N.am      1 SVR202      0.0000 
     65 C65         5.9410    1.6180    3.8640 C.ar      1 SVR202      0.0000 
     66 C67         5.0030    1.7460    2.8440 C.ar      1 SVR202      0.0000 
     67 C70         4.5900    0.6410    2.0980 C.ar      1 SVR202      0.0000 
     68 C71         5.1200   -0.6060    2.4020 C.ar      1 SVR202      0.0000 
     69 S75         4.5880   -2.1000    1.4260 S.o2      1 SVR202      0.0000 
     70 O80         3.7620   -3.0420    2.2960 O.co2     1 SVR202      0.0000 
     71 O81         5.7900   -2.8030    0.8490 O.co2     1 SVR202      0.0000 
     72 O82         3.5840   -1.7280    0.3410 O.co2     1 SVR202      0.0000 
     73 C66         6.4740    0.3510    4.1950 C.ar      1 SVR202      0.0000 
     74 C68         6.0530   -0.7520    3.4390 C.ar      1 SVR202      0.0000 
     75 C72         6.5570   -2.0530    3.7000 C.ar      1 SVR202      0.0000 
     76 C69         7.4240    0.1460    5.2380 C.ar      1 SVR202      0.0000 
     77 S73         8.0640    1.4180    6.2770 S.o2      1 SVR202      0.0000 
     78 O77         9.4330    1.0390    6.7440 O.co2     1 SVR202      0.0000 
     79 O78         8.3670    2.6700    5.5220 O.co2     1 SVR202      0.0000 
     80 O79         7.1480    1.6660    7.4550 O.co2     1 SVR202      0.0000 
     81 C74         7.9160   -1.1440    5.4890 C.ar      1 SVR202      0.0000 
     82 C76         7.4870   -2.2430    4.7220 C.ar      1 SVR202      0.0000 
     83 S83         8.1700   -3.9500    5.0960 S.o2      1 SVR202      0.0000 
     84 O85         7.2740   -4.6840    6.0630 O.co2     1 SVR202      0.0000 
     85 O86         9.5810   -3.8350    5.6390 O.co2     1 SVR202      0.0000 
     86 O84         8.0980   -4.8510    3.8920 O.co2     1 SVR202      0.0000 
@<TRIPOS>BOND
     1   83   85 ar   
     2   83   86 ar   
     3    1    2 ar   
     4    2    3 ar   
     5    2    4 ar   
     6    2    5 1    
     7    5    6 ar   
     8    5   12 ar   
     9    6    7 ar   
    10    7    8 1    
    11    7   21 ar   
    12    8    9 ar   
    13    8   10 ar   
    14    8   11 ar   
    15   12   13 ar   
    16   13   14 ar   
    17   13   21 ar   
    18   14   15 1    
    19   14   19 ar   
    20   15   16 ar   
    21   15   17 ar   
    22   15   18 ar   
    23   19   20 ar   
    24   20   22 ar   
    25   21   22 ar   
    26   22   23 1    
    27   23   24 am   
    28   24   25 2    
    29   24   26 1    
    30   26   27 ar   
    31   26   28 ar   
    32   27   32 ar   
    33   28   29 ar   
    34   29   30 ar   
    35   30   31 1    
    36   30   32 ar   
    37   32   33 1    
    38   33   34 am   
    39   34   35 2    
    40   34   36 1    
    41   36   37 ar   
    42   36   38 ar   
    43   37   41 ar   
    44   38   39 ar   
    45   39   40 ar   
    46   40   41 ar   
    47   41   42 1    
    48   42   43 am   
    49   43   44 2    
    50   43   45 am   
    51   45   46 1    
    52   46   47 ar   
    53   46   48 ar   
    54   47   51 ar   
    55   48   49 ar   
    56   49   50 ar   
    57   50   51 ar   
    58   51   52 1    
    59   52   53 2    
    60   52   54 am   
    61   54   55 1    
    62   55   56 ar   
    63   55   57 ar   
    64   56   61 ar   
    65   57   58 1    
    66   57   59 ar   
    67   59   60 ar   
    68   60   61 ar   
    69   61   62 1    
    70   62   63 2    
    71   62   64 am   
    72   64   65 1    
    73   65   66 ar   
    74   65   73 ar   
    75   66   67 ar   
    76   67   68 ar   
    77   68   69 1    
    78   68   74 ar   
    79   69   70 ar   
    80   69   71 ar   
    81   69   72 ar   
    82   73   74 ar   
    83   73   76 ar   
    84   74   75 ar   
    85   75   82 ar   
    86   76   77 1    
    87   76   81 ar   
    88   77   78 ar   
    89   77   79 ar   
    90   77   80 ar   
    91   81   82 ar   
    92   82   83 1    
    93   83   84 ar   
@<TRIPOS>SUBSTRUCTURE
     1 SVR202      1 GROUP   
@<TRIPOS>SET

