#    Name: 6bvq_1_4AA
#    Modification time : Fri May 22 19:27:15 2020

@<TRIPOS>MOLECULE
6bvq_1_4AA
   12    12     1     0     0
SMALL
NO_CHARGES


@<TRIPOS>ATOM
      1 OAB         6.7090   25.1250    6.8650 O.co2     1 4AA203      0.0000 
      2 CAH         7.3610   25.7780    6.0190 C.2       1 4AA203      0.0000 
      3 OAC         6.7750   26.2200    4.9900 O.co2     1 4AA203      0.0000 
      4 CAL         8.8550   26.0310    6.2400 C.ar      1 4AA203      0.0000 
      5 CAG         9.4650   27.1300    5.6500 C.ar      1 4AA203      0.0000 
      6 CAF        10.8120   27.3800    5.8480 C.ar      1 4AA203      0.0000 
      7 CAJ        11.5550   26.5220    6.6400 C.ar      1 4AA203      0.0000 
      8 CLAE       13.2900   26.8720    6.8780 Cl        1 4AA203      0.0000 
      9 CAK        10.9510   25.4160    7.2320 C.ar      1 4AA203      0.0000 
     10 OAD        11.7040   24.5310    8.0150 O.3       1 4AA203      0.0000 
     11 CAI         9.6000   25.1710    7.0340 C.ar      1 4AA203      0.0000 
     12 NAA         8.9690   24.0190    7.6490 N.pl3     1 4AA203      0.0000 
@<TRIPOS>BOND
     1    1    2 ar   
     2    2    3 ar   
     3    2    4 1    
     4    4    5 ar   
     5    4   11 ar   
     6    5    6 ar   
     7    6    7 ar   
     8    7    8 1    
     9    7    9 ar   
    10    9   10 1    
    11    9   11 ar   
    12   11   12 1    
@<TRIPOS>SUBSTRUCTURE
     1 4AA203      1 GROUP   
@<TRIPOS>SET

