#    Name: 6bvq_1_4AA_CAVITY_N1_4
#    Modification time : Fri May 22 19:27:16 2020

@<TRIPOS>MOLECULE
6bvq_1_4AA_CAVITY_N1_4
   43     0     5     0     0
SMALL
NO_CHARGES


@<TRIPOS>ATOM
      1 OG         11.9500   28.1200    8.3100 O.3       1 SER1        0.0000 
      2 OG         13.1200   28.2900    7.3800 O.3       1 SER1        0.0000 
      3 OG         14.4400   28.2700    9.0400 O.3       1 SER1        0.0000 
      4 OD1        10.2400   24.9900    5.5600 O.co2     2 ASP3        0.0000 
      5 OD1         9.4900   26.0500    4.8200 O.co2     2 ASP3        0.0000 
      6 OD1         9.9100   27.2900    3.1400 O.co2     2 ASP3        0.0000 
      7 OD1        11.0800   27.4600    2.2200 O.co2     2 ASP3        0.0000 
      8 OD1         9.1600   28.3500    2.4000 O.co2     2 ASP3        0.0000 
      9 NZ         11.5600   24.9700    7.2200 N.4       3 LYS4        0.0000 
     10 NZ         13.3000   26.1900    7.2100 N.4       3 LYS4        0.0000 
     11 NZ         11.3800   27.0700    7.3900 N.4       3 LYS4        0.0000 
     12 NZ         15.7800   26.3400    7.9500 N.4       3 LYS4        0.0000 
     13 NZ         13.8700   27.2300    8.1300 N.4       3 LYS4        0.0000 
     14 CA          9.0700   24.8100    6.4900 C.3       4 GLY6        0.0000 
     15 CA          8.3200   25.8800    5.7400 C.3       4 GLY6        0.0000 
     16 CA          9.6400   25.8600    7.4000 C.3       4 GLY6        0.0000 
     17 CA         11.9800   26.2100    5.5500 C.3       4 GLY6        0.0000 
     18 CA          8.8900   26.9200    6.6600 C.3       4 GLY6        0.0000 
     19 CA         10.0600   27.0900    5.7300 C.3       4 GLY6        0.0000 
     20 CA         12.4000   27.4400    3.8800 C.3       4 GLY6        0.0000 
     21 CA          9.3100   28.1600    4.9800 C.3       4 GLY6        0.0000 
     22 CA         10.4800   28.3300    4.0600 C.3       4 GLY6        0.0000 
     23 CA         11.6500   28.5100    3.1300 C.3       4 GLY6        0.0000 
     24 CA          9.7300   29.4000    3.3100 C.3       4 GLY6        0.0000 
     25 CA         10.2100   26.9000    8.3200 C.3       4 GLY6        0.0000 
     26 CA         12.5500   27.2500    6.4700 C.3       4 GLY6        0.0000 
     27 CA         10.6300   28.1400    6.6500 C.3       4 GLY6        0.0000 
     28 CA         12.9700   28.4900    4.8000 C.3       4 GLY6        0.0000 
     29 CA         11.0500   29.3800    4.9700 C.3       4 GLY6        0.0000 
     30 CA         12.2200   29.5500    4.0500 C.3       4 GLY6        0.0000 
     31 CA         16.9500   26.5100    7.0200 C.3       4 GLY6        0.0000 
     32 CA         15.0300   27.4000    7.2000 C.3       4 GLY6        0.0000 
     33 CA         14.2900   28.4700    6.4600 C.3       4 GLY6        0.0000 
     34 CA         12.3700   29.3600    6.6400 C.3       4 GLY6        0.0000 
     35 CA         13.5400   29.5300    5.7100 C.3       4 GLY6        0.0000 
     36 CA         12.7900   30.5900    4.9600 C.3       4 GLY6        0.0000 
     37 CA         16.3500   27.3800    8.8600 C.3       4 GLY6        0.0000 
     38 CA         15.6000   28.4500    8.1200 C.3       4 GLY6        0.0000 
     39 CA         14.8500   29.5100    7.3700 C.3       4 GLY6        0.0000 
     40 CA         14.1000   30.5700    6.6300 C.3       4 GLY6        0.0000 
     41 DU         10.8100   26.0300    6.4800 H         5 CUB7        0.0000 
     42 DU         11.2300   27.2700    4.8100 H         5 CUB7        0.0000 
     43 DU         11.8000   28.3100    5.7200 H         5 CUB7        0.0000 
@<TRIPOS>BOND
@<TRIPOS>SUBSTRUCTURE
     1 SER1        1 GROUP   
     2 ASP3        4 GROUP   
     3 LYS4        9 GROUP   
     4 GLY6       14 GROUP   
     5 CUB7       41 GROUP   
@<TRIPOS>SET

