#    Name: 6isp_10_CPQ_CAVITY_N1_4
#    Modification time : Fri May 22 19:26:54 2020

@<TRIPOS>MOLECULE
6isp_10_CPQ_CAVITY_N1_4
   65     0     5     0     0
SMALL
NO_CHARGES


@<TRIPOS>ATOM
      1 OG         -8.2800   19.1900   -1.9900 O.3       1 SER1        0.0000 
      2 OG         -8.7800   17.9400   -1.3200 O.3       1 SER1        0.0000 
      3 N         -10.3600   14.2500   -2.6800 N.am      2 ALA2        0.0000 
      4 N          -3.9200   18.1100   -4.1300 N.am      2 ALA2        0.0000 
      5 N          -8.1900   15.5200   -2.0500 N.am      2 ALA2        0.0000 
      6 N          -9.5700   16.1000   -2.0000 N.am      2 ALA2        0.0000 
      7 N         -10.0700   14.8500   -1.3400 N.am      2 ALA2        0.0000 
      8 N          -3.6300   18.7100   -2.7800 N.am      2 ALA2        0.0000 
      9 N          -4.1300   17.4600   -2.1200 N.am      2 ALA2        0.0000 
     10 N          -5.5100   18.0400   -2.0800 N.am      2 ALA2        0.0000 
     11 N          -6.8900   18.6200   -2.0300 N.am      2 ALA2        0.0000 
     12 N          -6.6000   19.2100   -0.6900 N.am      2 ALA2        0.0000 
     13 N          -7.9900   19.7900   -0.6400 N.am      2 ALA2        0.0000 
     14 N          -4.3300   16.8100   -0.1100 N.am      2 ALA2        0.0000 
     15 N          -5.7200   17.3900   -0.0700 N.am      2 ALA2        0.0000 
     16 N          -7.1000   17.9700   -0.0200 N.am      2 ALA2        0.0000 
     17 N          -6.3100   19.8100    0.6600 N.am      2 ALA2        0.0000 
     18 N          -7.6900   20.3900    0.7000 N.am      2 ALA2        0.0000 
     19 N          -6.8100   18.5600    1.3200 N.am      2 ALA2        0.0000 
     20 O          -5.9200   16.7400    1.9400 O.2       2 ALA2        0.0000 
     21 CZ        -11.1600   16.0200    0.0500 C.ar      3 PHE5        0.0000 
     22 CZ         -8.4800   18.5400    0.0200 C.ar      3 PHE5        0.0000 
     23 CZ         -9.8700   19.1200    0.0700 C.ar      3 PHE5        0.0000 
     24 CZ         -8.1900   19.1400    1.3700 C.ar      3 PHE5        0.0000 
     25 CA         -5.2100   15.0200   -4.1400 C.3       4 GLY6        0.0000 
     26 CA         -8.4800   14.9200   -3.3900 C.3       4 GLY6        0.0000 
     27 CA         -8.9800   13.6700   -2.7200 C.3       4 GLY6        0.0000 
     28 CA         -5.3000   18.6900   -4.0800 C.3       4 GLY6        0.0000 
     29 CA         -5.8000   17.4400   -3.4200 C.3       4 GLY6        0.0000 
     30 CA         -7.1900   18.0200   -3.3700 C.3       4 GLY6        0.0000 
     31 CA         -6.3000   16.1900   -2.7500 C.3       4 GLY6        0.0000 
     32 CA         -7.6900   16.7700   -2.7100 C.3       4 GLY6        0.0000 
     33 CA         -9.0700   17.3500   -2.6700 C.3       4 GLY6        0.0000 
     34 CA         -6.8000   14.9400   -2.0900 C.3       4 GLY6        0.0000 
     35 CA        -10.9500   16.6700   -1.9600 C.3       4 GLY6        0.0000 
     36 CA        -11.4500   15.4300   -1.2900 C.3       4 GLY6        0.0000 
     37 CA         -7.8000   12.4500   -0.7600 C.3       4 GLY6        0.0000 
     38 CA         -9.1800   13.0200   -0.7200 C.3       4 GLY6        0.0000 
     39 CA         -9.2800   16.7000   -0.6600 C.3       4 GLY6        0.0000 
     40 CA        -10.6600   17.2700   -0.6100 C.3       4 GLY6        0.0000 
     41 CA         -7.0100   14.2900   -0.0800 C.3       4 GLY6        0.0000 
     42 CA         -9.7800   15.4500    0.0100 C.3       4 GLY6        0.0000 
     43 CA         -8.8900   13.6200    0.6300 C.3       4 GLY6        0.0000 
     44 CA        -10.2700   14.2000    0.6700 C.3       4 GLY6        0.0000 
     45 CA         -7.6000   16.7200    0.6400 C.3       4 GLY6        0.0000 
     46 CA         -8.9800   17.2900    0.6900 C.3       4 GLY6        0.0000 
     47 CA         -5.3300   14.3100    1.2200 C.3       4 GLY6        0.0000 
     48 CA         -8.1000   15.4700    1.3100 C.3       4 GLY6        0.0000 
     49 CA         -5.4200   17.9900    1.2800 C.3       4 GLY6        0.0000 
     50 CA         -4.5400   16.1600    1.9000 C.3       4 GLY6        0.0000 
     51 CA         -7.3100   17.3200    1.9900 C.3       4 GLY6        0.0000 
     52 CA         -5.0400   14.9100    2.5600 C.3       4 GLY6        0.0000 
     53 CA         -6.4200   15.4900    2.6100 C.3       4 GLY6        0.0000 
     54 DU         -9.4800   12.4300   -2.0600 H         5 CUB7        0.0000 
     55 DU        -10.8600   13.0000   -2.0200 H         5 CUB7        0.0000 
     56 DU         -4.4200   16.8600   -3.4600 H         5 CUB7        0.0000 
     57 DU         -8.6800   14.2700   -1.3800 H         5 CUB7        0.0000 
     58 DU        -10.5700   13.6000   -0.6700 H         5 CUB7        0.0000 
     59 DU         -4.6300   16.2100   -1.4600 H         5 CUB7        0.0000 
     60 DU         -6.0100   16.7900   -1.4100 H         5 CUB7        0.0000 
     61 DU         -7.3900   17.3700   -1.3700 H         5 CUB7        0.0000 
     62 DU         -7.8900   16.1200   -0.7000 H         5 CUB7        0.0000 
     63 DU         -8.3900   14.8700   -0.0400 H         5 CUB7        0.0000 
     64 DU         -4.8300   15.5600    0.5500 H         5 CUB7        0.0000 
     65 DU         -6.2200   16.1400    0.6000 H         5 CUB7        0.0000 
@<TRIPOS>BOND
@<TRIPOS>SUBSTRUCTURE
     1 SER1        1 GROUP   
     2 ALA2        3 GROUP   
     3 PHE5       21 GROUP   
     4 GLY6       25 GROUP   
     5 CUB7       54 GROUP   
@<TRIPOS>SET

