#    Name: 6isp_8_CPQ
#    Modification time : Fri May 22 19:26:43 2020

@<TRIPOS>MOLECULE
6isp_8_CPQ
   30    33     1     0     0
SMALL
NO_CHARGES


@<TRIPOS>ATOM
      1 C1         -9.2950  -14.9630   46.7540 C.3       1 CPQ402      0.0000 
      2 C2         -9.4540  -13.5140   46.2980 C.3       1 CPQ402      0.0000 
      3 C3        -11.8710  -14.0150   45.7900 C.3       1 CPQ402      0.0000 
      4 C4        -12.9990  -13.9720   44.7570 C.3       1 CPQ402      0.0000 
      5 C5        -13.1760  -12.5510   44.2450 C.3       1 CPQ402      0.0000 
      6 C6        -11.8530  -12.1450   43.6260 C.3       1 CPQ402      0.0000 
      7 C7        -12.1470  -10.8790   42.8320 C.3       1 CPQ402      0.0000 
      8 C8        -13.5860  -11.0680   42.3530 C.3       1 CPQ402      0.0000 
      9 C9        -14.1080  -12.3340   43.0400 C.3       1 CPQ402      0.0000 
     10 C10       -13.4540  -11.6140   45.4220 C.3       1 CPQ402      0.0000 
     11 C11        -9.8500  -12.6410   47.4810 C.3       1 CPQ402      0.0000 
     12 C12        -7.8670  -15.4970   46.6460 C.3       1 CPQ402      0.0000 
     13 C13        -7.2200  -15.2890   45.2760 C.3       1 CPQ402      0.0000 
     14 C14        -7.6940  -13.9940   44.6190 C.3       1 CPQ402      0.0000 
     15 C15        -8.1590  -13.0030   45.6770 C.3       1 CPQ402      0.0000 
     16 C16        -8.3220  -11.6070   45.0800 C.3       1 CPQ402      0.0000 
     17 C17        -9.4470  -11.5560   44.0550 C.3       1 CPQ402      0.0000 
     18 C18       -10.7420  -12.0740   44.6620 C.3       1 CPQ402      0.0000 
     19 C19       -10.5490  -13.4750   45.2370 C.3       1 CPQ402      0.0000 
     20 C20       -15.6590  -12.3380   43.1310 C.3       1 CPQ402      0.0000 
     21 C21       -16.3410  -11.1920   43.8830 C.3       1 CPQ402      0.0000 
     22 C22       -16.2380  -13.7010   43.5110 C.3       1 CPQ402      0.0000 
     23 C23       -16.5770  -14.5810   42.3020 C.3       1 CPQ402      0.0000 
     24 O2         -7.4970  -16.4080   44.4220 O.3       1 CPQ402      0.0000 
     25 O4        -12.6770  -14.8460   43.6700 O.3       1 CPQ402      0.0000 
     26 C57       -16.3560  -13.9600   40.9320 C.2       1 CPQ402      0.0000 
     27 N59       -17.4260  -13.8160   40.1620 N.am      1 CPQ402      0.0000 
     28 C74       -17.9930  -14.9700   39.4960 C.3       1 CPQ402      0.0000 
     29 C68       -18.0850  -12.5440   39.9000 C.3       1 CPQ402      0.0000 
     30 O58       -15.2460  -13.6770   40.5090 O.2       1 CPQ402      0.0000 
@<TRIPOS>BOND
     1    1    2 1    
     2    1   12 1    
     3    2   11 1    
     4    2   15 1    
     5    2   19 1    
     6    3    4 1    
     7    3   19 1    
     8    4    5 1    
     9    4   25 1    
    10    5    6 1    
    11    5    9 1    
    12    5   10 1    
    13    6    7 1    
    14    6   18 1    
    15    7    8 1    
    16    8    9 1    
    17    9   20 1    
    18   12   13 1    
    19   13   14 1    
    20   13   24 1    
    21   14   15 1    
    22   15   16 1    
    23   16   17 1    
    24   17   18 1    
    25   18   19 1    
    26   20   21 1    
    27   20   22 1    
    28   22   23 1    
    29   23   26 1    
    30   26   27 am   
    31   26   30 2    
    32   27   28 1    
    33   27   29 1    
@<TRIPOS>SUBSTRUCTURE
     1 CPQ402      1 GROUP   
@<TRIPOS>SET

