#    Name: 6isp_3_CPQ
#    Modification time : Fri May 22 19:26:19 2020

@<TRIPOS>MOLECULE
6isp_3_CPQ
   35    38     1     0     0
SMALL
NO_CHARGES


@<TRIPOS>ATOM
      1 C1        -25.8740   14.8810    1.6550 C.3       1 CPQ404      0.0000 
      2 C2        -27.0640   14.2700    0.9270 C.3       1 CPQ404      0.0000 
      3 C3        -26.9460   12.3540    2.5680 C.3       1 CPQ404      0.0000 
      4 C4        -27.1130   10.8520    2.7810 C.3       1 CPQ404      0.0000 
      5 C5        -28.4710   10.4340    2.2440 C.3       1 CPQ404      0.0000 
      6 C6        -28.4170   10.6780    0.7510 C.3       1 CPQ404      0.0000 
      7 C7        -29.6190    9.9270    0.2030 C.3       1 CPQ404      0.0000 
      8 C8        -29.7340    8.7120    1.1270 C.3       1 CPQ404      0.0000 
      9 C9        -28.8450    8.9600    2.3490 C.3       1 CPQ404      0.0000 
     10 C10       -29.5910   11.2670    2.8720 C.3       1 CPQ404      0.0000 
     11 C11       -28.3390   14.8290    1.5370 C.3       1 CPQ404      0.0000 
     12 C12       -24.5510   14.4590    1.0320 C.3       1 CPQ404      0.0000 
     13 C13       -24.5080   14.8200   -0.4460 C.3       1 CPQ404      0.0000 
     14 C14       -25.6790   14.1540   -1.1620 C.3       1 CPQ404      0.0000 
     15 C15       -27.0100   14.5920   -0.5620 C.3       1 CPQ404      0.0000 
     16 C16       -28.1650   13.9380   -1.3200 C.3       1 CPQ404      0.0000 
     17 C17       -28.2490   12.4350   -1.0660 C.3       1 CPQ404      0.0000 
     18 C18       -28.3060   12.1640    0.4320 C.3       1 CPQ404      0.0000 
     19 C19       -27.0620   12.7550    1.0960 C.3       1 CPQ404      0.0000 
     20 C20       -29.5660    8.5390    3.6370 C.3       1 CPQ404      0.0000 
     21 C21       -28.6700    8.5540    4.8810 C.3       1 CPQ404      0.0000 
     22 C22       -30.2580    7.1830    3.4220 C.3       1 CPQ404      0.0000 
     23 C23       -29.9780    6.0990    4.4710 C.3       1 CPQ404      0.0000 
     24 O2        -23.2760   14.3500   -1.0020 O.3       1 CPQ404      0.0000 
     25 O4        -26.0810   10.1560    2.0720 O.3       1 CPQ404      0.0000 
     26 C57       -28.7430    5.3160    4.0840 C.2       1 CPQ404      0.0000 
     27 N59       -28.8190    3.9810    3.9580 N.am      1 CPQ404      0.0000 
     28 C74       -30.0590    3.2860    3.6480 C.3       1 CPQ404      0.0000 
     29 C68       -27.6670    3.0920    4.0610 C.3       1 CPQ404      0.0000 
     30 C69       -26.9210    3.4860    5.3310 C.3       1 CPQ404      0.0000 
     31 C70       -25.5450    4.0640    5.0050 C.3       1 CPQ404      0.0000 
     32 N71       -24.4800    3.1220    5.2890 N.am      1 CPQ404      0.0000 
     33 C72       -24.1200    2.1840    4.4180 C.2       1 CPQ404      0.0000 
     34 O73       -23.1270    2.2890    3.7170 O.2       1 CPQ404      0.0000 
     35 O58       -27.7160    5.9360    3.8550 O.2       1 CPQ404      0.0000 
@<TRIPOS>BOND
     1    1    2 1    
     2    1   12 1    
     3    2   11 1    
     4    2   15 1    
     5    2   19 1    
     6    3    4 1    
     7    3   19 1    
     8    4    5 1    
     9    4   25 1    
    10    5    6 1    
    11    5    9 1    
    12    5   10 1    
    13    6    7 1    
    14    6   18 1    
    15    7    8 1    
    16    8    9 1    
    17    9   20 1    
    18   12   13 1    
    19   13   14 1    
    20   13   24 1    
    21   14   15 1    
    22   15   16 1    
    23   16   17 1    
    24   17   18 1    
    25   18   19 1    
    26   20   21 1    
    27   20   22 1    
    28   22   23 1    
    29   23   26 1    
    30   26   27 am   
    31   26   35 2    
    32   27   28 1    
    33   27   29 1    
    34   29   30 1    
    35   30   31 1    
    36   31   32 1    
    37   32   33 am   
    38   33   34 2    
@<TRIPOS>SUBSTRUCTURE
     1 CPQ404      1 GROUP   
@<TRIPOS>SET

