#    Name: 6isp_1_CPQ
#    Modification time : Fri May 22 19:25:59 2020

@<TRIPOS>MOLECULE
6isp_1_CPQ
   60    63     1     0     0
SMALL
NO_CHARGES


@<TRIPOS>ATOM
      1 C1        -32.7780   18.1130   -1.4050 C.3       1 CPQ402      0.0000 
      2 C2        -32.8970   16.7240   -0.7920 C.3       1 CPQ402      0.0000 
      3 C3        -35.3570   17.1640   -0.2810 C.3       1 CPQ402      0.0000 
      4 C4        -36.4490   17.1350    0.7920 C.3       1 CPQ402      0.0000 
      5 C5        -36.5530   15.7350    1.3820 C.3       1 CPQ402      0.0000 
      6 C6        -35.2030   15.3900    1.9730 C.3       1 CPQ402      0.0000 
      7 C7        -35.4420   14.1380    2.7950 C.3       1 CPQ402      0.0000 
      8 C8        -36.8500   14.3540    3.3410 C.3       1 CPQ402      0.0000 
      9 C9        -37.4820   15.5240    2.5750 C.3       1 CPQ402      0.0000 
     10 C10       -36.9240   14.7340    0.2890 C.3       1 CPQ402      0.0000 
     11 C11       -33.2190   15.7160   -1.8880 C.3       1 CPQ402      0.0000 
     12 C12       -32.3550   19.1600   -0.3800 C.3       1 CPQ402      0.0000 
     13 C13       -31.0620   18.7790    0.3290 C.3       1 CPQ402      0.0000 
     14 C14       -31.2030   17.3900    0.9430 C.3       1 CPQ402      0.0000 
     15 C15       -31.5840   16.3570   -0.1150 C.3       1 CPQ402      0.0000 
     16 C16       -31.6790   14.9690    0.5100 C.3       1 CPQ402      0.0000 
     17 C17       -32.7960   14.9030    1.5420 C.3       1 CPQ402      0.0000 
     18 C18       -34.1180   15.3220    0.9160 C.3       1 CPQ402      0.0000 
     19 C19       -34.0030   16.6990    0.2640 C.3       1 CPQ402      0.0000 
     20 C20       -38.9450   15.2450    2.2270 C.3       1 CPQ402      0.0000 
     21 C21       -39.7080   16.5090    1.8410 C.3       1 CPQ402      0.0000 
     22 C22       -39.6620   14.5700    3.3920 C.3       1 CPQ402      0.0000 
     23 C23       -39.7940   15.5310    4.5680 C.3       1 CPQ402      0.0000 
     24 O2        -30.8000   19.7350    1.3640 O.3       1 CPQ402      0.0000 
     25 O4        -36.1360   18.0780    1.8230 O.3       1 CPQ402      0.0000 
     26 C57       -40.2900   14.8000    5.7940 C.2       1 CPQ402      0.0000 
     27 N59       -39.7610   15.1450    6.9700 N.am      1 CPQ402      0.0000 
     28 C74       -39.7770   14.2340    8.1050 C.3       1 CPQ402      0.0000 
     29 C75       -41.1450   14.3450    8.7670 C.3       1 CPQ402      0.0000 
     30 C76       -41.0740   13.9380   10.2350 C.3       1 CPQ402      0.0000 
     31 N77       -40.1990   12.8050   10.4690 N.am      1 CPQ402      0.0000 
     32 C78       -40.5000   11.5740   10.0620 C.2       1 CPQ402      0.0000 
     33 C80       -39.5390   10.4960   10.4590 C.3       1 CPQ402      0.0000 
     34 O86       -39.8740    9.2940    9.7590 O.3       1 CPQ402      0.0000 
     35 C81       -39.6800   10.2560   11.9530 C.3       1 CPQ402      0.0000 
     36 O87       -40.1230   11.4710   12.5660 O.3       1 CPQ402      0.0000 
     37 C82       -40.6950    9.1490   12.2100 C.3       1 CPQ402      0.0000 
     38 O88       -42.0090    9.7130   12.2860 O.3       1 CPQ402      0.0000 
     39 C83       -40.3850    8.3590   13.4780 C.3       1 CPQ402      0.0000 
     40 O89       -41.4380    7.4130   13.6880 O.3       1 CPQ402      0.0000 
     41 C84       -40.2560    9.2550   14.7050 C.3       1 CPQ402      0.0000 
     42 O85       -39.7500    8.5220   15.8250 O.3       1 CPQ402      0.0000 
     43 O79       -41.4940   11.3030    9.4100 O.2       1 CPQ402      0.0000 
     44 C68       -39.0870   16.4180    7.2160 C.3       1 CPQ402      0.0000 
     45 C69       -40.1490   17.5120    7.3060 C.3       1 CPQ402      0.0000 
     46 C70       -40.5500   17.8400    8.7360 C.3       1 CPQ402      0.0000 
     47 N71       -41.6090   18.8290    8.7600 N.am      1 CPQ402      0.0000 
     48 C72       -42.5410   18.8100    9.7050 C.2       1 CPQ402      0.0000 
     49 C90       -42.3340   19.7370   10.8650 C.3       1 CPQ402      0.0000 
     50 O96       -42.6500   19.0300   12.0690 O.3       1 CPQ402      0.0000 
     51 C91       -43.2060   20.9850   10.7030 C.3       1 CPQ402      0.0000 
     52 O97       -43.2430   21.3550    9.3180 O.3       1 CPQ402      0.0000 
     53 C92       -44.6330   20.7980   11.2150 C.3       1 CPQ402      0.0000 
     54 O98       -45.5020   21.6780   10.4960 O.3       1 CPQ402      0.0000 
     55 C93       -44.7580   21.1270   12.6990 C.3       1 CPQ402      0.0000 
     56 O99       -45.8670   20.4060   13.2470 O.3       1 CPQ402      0.0000 
     57 C94       -44.9620   22.6210   12.9180 C.3       1 CPQ402      0.0000 
     58 O95       -43.8860   23.1350   13.7100 O.3       1 CPQ402      0.0000 
     59 O73       -43.5190   18.0820    9.6560 O.2       1 CPQ402      0.0000 
     60 O58       -41.1260   13.9200    5.6740 O.2       1 CPQ402      0.0000 
@<TRIPOS>BOND
     1    1    2 1    
     2    1   12 1    
     3    2   11 1    
     4    2   15 1    
     5    2   19 1    
     6    3    4 1    
     7    3   19 1    
     8    4    5 1    
     9    4   25 1    
    10    5    6 1    
    11    5    9 1    
    12    5   10 1    
    13    6    7 1    
    14    6   18 1    
    15    7    8 1    
    16    8    9 1    
    17    9   20 1    
    18   12   13 1    
    19   13   14 1    
    20   13   24 1    
    21   14   15 1    
    22   15   16 1    
    23   16   17 1    
    24   17   18 1    
    25   18   19 1    
    26   20   21 1    
    27   20   22 1    
    28   22   23 1    
    29   23   26 1    
    30   26   27 am   
    31   26   60 2    
    32   27   28 1    
    33   27   44 1    
    34   28   29 1    
    35   29   30 1    
    36   30   31 1    
    37   31   32 am   
    38   32   33 1    
    39   32   43 2    
    40   33   34 1    
    41   33   35 1    
    42   35   36 1    
    43   35   37 1    
    44   37   38 1    
    45   37   39 1    
    46   39   40 1    
    47   39   41 1    
    48   41   42 1    
    49   44   45 1    
    50   45   46 1    
    51   46   47 1    
    52   47   48 am   
    53   48   49 1    
    54   48   59 2    
    55   49   50 1    
    56   49   51 1    
    57   51   52 1    
    58   51   53 1    
    59   53   54 1    
    60   53   55 1    
    61   55   56 1    
    62   55   57 1    
    63   57   58 1    
@<TRIPOS>SUBSTRUCTURE
     1 CPQ402      1 GROUP   
@<TRIPOS>SET

