#    Name: 6isp_6_CPQ
#    Modification time : Fri May 22 19:26:31 2020

@<TRIPOS>MOLECULE
6isp_6_CPQ
   22    25     1     0     0
SMALL
NO_CHARGES


@<TRIPOS>ATOM
      1 C1          9.3090  -11.1820   47.3500 C.3       1 CPQ403      0.0000 
      2 C2         10.6750  -10.7140   46.8660 C.3       1 CPQ403      0.0000 
      3 C3         10.5990   -8.8540   48.5800 C.3       1 CPQ403      0.0000 
      4 C4         10.8350   -7.3730   48.8850 C.3       1 CPQ403      0.0000 
      5 C5         12.2110   -6.9710   48.3850 C.3       1 CPQ403      0.0000 
      6 C6         12.2350   -7.2080   46.8920 C.3       1 CPQ403      0.0000 
      7 C7         13.4480   -6.4330   46.3980 C.3       1 CPQ403      0.0000 
      8 C8         13.5070   -5.2170   47.3260 C.3       1 CPQ403      0.0000 
      9 C9         12.5740   -5.5000   48.5050 C.3       1 CPQ403      0.0000 
     10 C10        13.2910   -7.8020   49.0790 C.3       1 CPQ403      0.0000 
     11 C11        11.7600  -11.4340   47.6550 C.3       1 CPQ403      0.0000 
     12 C12         8.1790  -10.5780   46.5240 C.3       1 CPQ403      0.0000 
     13 C13         8.3370  -10.9320   45.0500 C.3       1 CPQ403      0.0000 
     14 C14         9.6860  -10.4220   44.5590 C.3       1 CPQ403      0.0000 
     15 C15        10.8320  -11.0110   45.3770 C.3       1 CPQ403      0.0000 
     16 C16        12.1580  -10.4780   44.8410 C.3       1 CPQ403      0.0000 
     17 C17        12.2950   -8.9810   45.0960 C.3       1 CPQ403      0.0000 
     18 C18        12.1500   -8.6940   46.5850 C.3       1 CPQ403      0.0000 
     19 C19        10.8080   -9.2110   47.1030 C.3       1 CPQ403      0.0000 
     20 C20        13.2130   -5.1470   49.8430 C.3       1 CPQ403      0.0000 
     21 O2          7.2890  -10.3110   44.2970 O.3       1 CPQ403      0.0000 
     22 O4          9.8360   -6.5850   48.2280 O.3       1 CPQ403      0.0000 
@<TRIPOS>BOND
     1    1    2 1    
     2    1   12 1    
     3    2   11 1    
     4    2   15 1    
     5    2   19 1    
     6    3    4 1    
     7    3   19 1    
     8    4    5 1    
     9    4   22 1    
    10    5    6 1    
    11    5    9 1    
    12    5   10 1    
    13    6    7 1    
    14    6   18 1    
    15    7    8 1    
    16    8    9 1    
    17    9   20 1    
    18   12   13 1    
    19   13   14 1    
    20   13   21 1    
    21   14   15 1    
    22   15   16 1    
    23   16   17 1    
    24   17   18 1    
    25   18   19 1    
@<TRIPOS>SUBSTRUCTURE
     1 CPQ403      1 GROUP   
@<TRIPOS>SET

