#    Name: 6isp_2_CPQ
#    Modification time : Fri May 22 19:26:09 2020

@<TRIPOS>MOLECULE
6isp_2_CPQ
   28    31     1     0     0
SMALL
NO_CHARGES


@<TRIPOS>ATOM
      1 C1        -13.7660   14.9220   -1.5660 C.3       1 CPQ403      0.0000 
      2 C2        -12.4860   14.3040   -1.0210 C.3       1 CPQ403      0.0000 
      3 C3        -12.5300   12.6630   -2.9300 C.3       1 CPQ403      0.0000 
      4 C4        -12.4190   11.1990   -3.3330 C.3       1 CPQ403      0.0000 
      5 C5        -11.0910   10.6430   -2.8540 C.3       1 CPQ403      0.0000 
      6 C6        -11.1490   10.7030   -1.3430 C.3       1 CPQ403      0.0000 
      7 C7        -10.0010    9.8180   -0.8890 C.3       1 CPQ403      0.0000 
      8 C8         -9.9330    8.7360   -1.9690 C.3       1 CPQ403      0.0000 
      9 C9        -10.8450    9.1590   -3.1310 C.3       1 CPQ403      0.0000 
     10 C10        -9.8940   11.4930   -3.3000 C.3       1 CPQ403      0.0000 
     11 C11       -11.2880   15.0320   -1.6160 C.3       1 CPQ403      0.0000 
     12 C12       -15.0000   14.2430   -0.9870 C.3       1 CPQ403      0.0000 
     13 C13       -14.9990   14.3280    0.5330 C.3       1 CPQ403      0.0000 
     14 C14       -13.7100   13.7400    1.0970 C.3       1 CPQ403      0.0000 
     15 C15       -12.4690   14.3960    0.4990 C.3       1 CPQ403      0.0000 
     16 C16       -11.2230   13.7300    1.0750 C.3       1 CPQ403      0.0000 
     17 C17       -11.1330   12.2640    0.6560 C.3       1 CPQ403      0.0000 
     18 C18       -11.1720   12.1500   -0.8630 C.3       1 CPQ403      0.0000 
     19 C19       -12.4260   12.8320   -1.4150 C.3       1 CPQ403      0.0000 
     20 C20       -10.3230    8.7020   -4.5170 C.3       1 CPQ403      0.0000 
     21 C21       -10.8160    9.4530   -5.7550 C.3       1 CPQ403      0.0000 
     22 C22       -10.7040    7.2490   -4.7840 C.3       1 CPQ403      0.0000 
     23 C23        -9.7430    6.2160   -4.2130 C.3       1 CPQ403      0.0000 
     24 O2        -16.1060   13.5770    1.0450 O.3       1 CPQ403      0.0000 
     25 O4        -13.4760   10.4520   -2.7190 O.3       1 CPQ403      0.0000 
     26 C57       -10.5840    5.2140   -3.4630 C.2       1 CPQ403      0.0000 
     27 N59       -10.8280    4.0630   -4.0800 N.am      1 CPQ403      0.0000 
     28 O58       -11.0110    5.4780   -2.3510 O.2       1 CPQ403      0.0000 
@<TRIPOS>BOND
     1    1    2 1    
     2    1   12 1    
     3    2   11 1    
     4    2   15 1    
     5    2   19 1    
     6    3    4 1    
     7    3   19 1    
     8    4    5 1    
     9    4   25 1    
    10    5    6 1    
    11    5    9 1    
    12    5   10 1    
    13    6    7 1    
    14    6   18 1    
    15    7    8 1    
    16    8    9 1    
    17    9   20 1    
    18   12   13 1    
    19   13   14 1    
    20   13   24 1    
    21   14   15 1    
    22   15   16 1    
    23   16   17 1    
    24   17   18 1    
    25   18   19 1    
    26   20   21 1    
    27   20   22 1    
    28   22   23 1    
    29   23   26 1    
    30   26   27 am   
    31   26   28 2    
@<TRIPOS>SUBSTRUCTURE
     1 CPQ403      1 GROUP   
@<TRIPOS>SET

