#    Name: 6isp_10_CPQ
#    Modification time : Fri May 22 19:26:52 2020

@<TRIPOS>MOLECULE
6isp_10_CPQ
   45    48     1     0     0
SMALL
NO_CHARGES


@<TRIPOS>ATOM
      1 C1         -6.6920   18.0300    0.9650 C.3       1 CPQ401      0.0000 
      2 C2         -6.5480   16.6520    0.3320 C.3       1 CPQ401      0.0000 
      3 C3         -4.1050   17.1710   -0.1390 C.3       1 CPQ401      0.0000 
      4 C4         -2.9760   17.1500   -1.1740 C.3       1 CPQ401      0.0000 
      5 C5         -2.8320   15.7490   -1.7610 C.3       1 CPQ401      0.0000 
      6 C6         -4.1630   15.3690   -2.3790 C.3       1 CPQ401      0.0000 
      7 C7         -3.8980   14.0900   -3.1500 C.3       1 CPQ401      0.0000 
      8 C8         -2.4540   14.2620   -3.6050 C.3       1 CPQ401      0.0000 
      9 C9         -1.8970   15.5350   -2.9480 C.3       1 CPQ401      0.0000 
     10 C10        -2.4540   14.7590   -0.6620 C.3       1 CPQ401      0.0000 
     11 C11        -6.1930   15.6370    1.4110 C.3       1 CPQ401      0.0000 
     12 C12        -7.1650   19.0730   -0.0420 C.3       1 CPQ401      0.0000 
     13 C13        -8.4770   18.6600   -0.6960 C.3       1 CPQ401      0.0000 
     14 C14        -8.2930   17.3040   -1.3650 C.3       1 CPQ401      0.0000 
     15 C15        -7.8530   16.2540   -0.3490 C.3       1 CPQ401      0.0000 
     16 C16        -7.7280   14.8950   -1.0310 C.3       1 CPQ401      0.0000 
     17 C17        -6.5820   14.8820   -2.0350 C.3       1 CPQ401      0.0000 
     18 C18        -5.2830   15.3030   -1.3620 C.3       1 CPQ401      0.0000 
     19 C19        -5.4350   16.6750   -0.7130 C.3       1 CPQ401      0.0000 
     20 C20        -0.4000   15.4090   -2.6410 C.3       1 CPQ401      0.0000 
     21 C21         0.2510   16.7150   -2.1950 C.3       1 CPQ401      0.0000 
     22 C22         0.3560   14.8870   -3.8610 C.3       1 CPQ401      0.0000 
     23 C23         0.0830   15.7580   -5.0850 C.3       1 CPQ401      0.0000 
     24 O2         -8.8440   19.6340   -1.6780 O.3       1 CPQ401      0.0000 
     25 O4         -3.2410   18.0990   -2.2140 O.3       1 CPQ401      0.0000 
     26 C57         1.0240   15.4230   -6.2090 C.2       1 CPQ401      0.0000 
     27 N59         1.7770   16.4370   -6.5980 N.am      1 CPQ401      0.0000 
     28 C74         3.2310   16.3990   -6.5690 C.3       1 CPQ401      0.0000 
     29 C68         1.1690   17.6730   -7.0560 C.3       1 CPQ401      0.0000 
     30 C69         2.0620   18.1160   -8.2020 C.3       1 CPQ401      0.0000 
     31 C70         1.2080   18.3400   -9.4380 C.3       1 CPQ401      0.0000 
     32 N71         1.6730   17.6270  -10.6220 N.am      1 CPQ401      0.0000 
     33 C72         2.8800   17.6700  -11.2140 C.2       1 CPQ401      0.0000 
     34 C90         3.6660   18.9590  -11.2720 C.3       1 CPQ401      0.0000 
     35 O96         4.2620   19.2620  -10.0040 O.3       1 CPQ401      0.0000 
     36 C91         2.7930   20.1230  -11.7390 C.3       1 CPQ401      0.0000 
     37 O97         3.3370   21.3690  -11.2750 O.3       1 CPQ401      0.0000 
     38 C92         2.6520   20.1090  -13.2570 C.3       1 CPQ401      0.0000 
     39 O98         3.5070   21.1100  -13.8160 O.3       1 CPQ401      0.0000 
     40 C93         1.2090   20.3910  -13.6620 C.3       1 CPQ401      0.0000 
     41 O99         1.0620   20.2790  -15.0820 O.3       1 CPQ401      0.0000 
     42 C94         0.7560   21.7750  -13.2010 C.3       1 CPQ401      0.0000 
     43 O95        -0.5700   22.0110  -13.6880 O.3       1 CPQ401      0.0000 
     44 O73         3.3640   16.6770  -11.7420 O.2       1 CPQ401      0.0000 
     45 O58         1.0620   14.3160   -6.7190 O.2       1 CPQ401      0.0000 
@<TRIPOS>BOND
     1    1    2 1    
     2    1   12 1    
     3    2   11 1    
     4    2   15 1    
     5    2   19 1    
     6    3    4 1    
     7    3   19 1    
     8    4    5 1    
     9    4   25 1    
    10    5    6 1    
    11    5    9 1    
    12    5   10 1    
    13    6    7 1    
    14    6   18 1    
    15    7    8 1    
    16    8    9 1    
    17    9   20 1    
    18   12   13 1    
    19   13   14 1    
    20   13   24 1    
    21   14   15 1    
    22   15   16 1    
    23   16   17 1    
    24   17   18 1    
    25   18   19 1    
    26   20   21 1    
    27   20   22 1    
    28   22   23 1    
    29   23   26 1    
    30   26   27 am   
    31   26   45 2    
    32   27   28 1    
    33   27   29 1    
    34   29   30 1    
    35   30   31 1    
    36   31   32 1    
    37   32   33 am   
    38   33   34 1    
    39   33   44 2    
    40   34   35 1    
    41   34   36 1    
    42   36   37 1    
    43   36   38 1    
    44   38   39 1    
    45   38   40 1    
    46   40   41 1    
    47   40   42 1    
    48   42   43 1    
@<TRIPOS>SUBSTRUCTURE
     1 CPQ401      1 GROUP   
@<TRIPOS>SET

