#    Name: 5n3f_1_463_CAVITY_N1_6
#    Modification time : Fri May 22 19:15:44 2020

@<TRIPOS>MOLECULE
5n3f_1_463_CAVITY_N1_6
   55     0     6     0     0
SMALL
NO_CHARGES


@<TRIPOS>ATOM
      1 OG        -13.1600   24.1700  -25.2400 O.3       1 SER1        0.0000 
      2 OG        -12.2300   23.0200  -25.5200 O.3       1 SER1        0.0000 
      3 OG        -12.1100   24.8200  -24.4000 O.3       1 SER1        0.0000 
      4 OG        -10.6500   24.3900  -25.8900 O.3       1 SER1        0.0000 
      5 O         -10.4000   22.2800  -32.6000 O.2       2 ALA2        0.0000 
      6 O         -10.7900   23.3700  -30.2700 O.2       2 ALA2        0.0000 
      7 N         -13.0500   26.7400  -27.3900 N.am      2 ALA2        0.0000 
      8 N          -9.2100   24.7400  -30.6400 N.am      2 ALA2        0.0000 
      9 N          -8.2800   23.5900  -30.9100 N.am      2 ALA2        0.0000 
     10 N          -9.7300   23.2500  -26.1600 N.am      2 ALA2        0.0000 
     11 N         -11.9900   27.4000  -26.5500 N.am      2 ALA2        0.0000 
     12 N          -9.2000   23.9600  -27.3800 N.am      2 ALA2        0.0000 
     13 N          -8.2700   22.8200  -27.6500 N.am      2 ALA2        0.0000 
     14 N          -7.7500   23.5300  -28.8600 N.am      2 ALA2        0.0000 
     15 N          -7.2300   24.2500  -30.0700 N.am      2 ALA2        0.0000 
     16 OD1       -10.5100   19.7100  -30.4500 O.co2     3 ASP3        0.0000 
     17 NZ        -10.3800   21.5100  -29.3300 N.4       4 LYS4        0.0000 
     18 NZ         -9.8600   22.2200  -30.5400 N.4       4 LYS4        0.0000 
     19 NZ         -8.9300   21.0800  -30.8200 N.4       4 LYS4        0.0000 
     20 NZ        -10.7800   22.5900  -27.0100 N.4       4 LYS4        0.0000 
     21 NZ        -10.2600   23.3100  -28.2200 N.4       4 LYS4        0.0000 
     22 NZ         -8.8100   22.8800  -29.7000 N.4       4 LYS4        0.0000 
     23 NZ         -7.8800   21.7300  -29.9800 N.4       4 LYS4        0.0000 
     24 NZ        -11.5800   25.5400  -25.6100 N.4       4 LYS4        0.0000 
     25 NZ        -11.0600   26.2500  -26.8200 N.4       4 LYS4        0.0000 
     26 NZ        -10.1300   25.1100  -27.1000 N.4       4 LYS4        0.0000 
     27 NZ         -6.8200   22.3900  -29.1400 N.4       4 LYS4        0.0000 
     28 CA        -12.3700   22.0000  -29.9000 C.3       5 GLY6        0.0000 
     29 CA        -11.4400   20.8500  -30.1700 C.3       5 GLY6        0.0000 
     30 CA        -11.8500   22.7100  -31.1100 C.3       5 GLY6        0.0000 
     31 CA        -11.3200   23.4300  -32.3200 C.3       5 GLY6        0.0000 
     32 CA        -15.6700   23.9400  -24.6000 C.3       5 GLY6        0.0000 
     33 CA        -14.7400   22.8000  -24.8700 C.3       5 GLY6        0.0000 
     34 CA        -16.0800   25.8000  -25.5400 C.3       5 GLY6        0.0000 
     35 CA        -15.1500   24.6600  -25.8100 C.3       5 GLY6        0.0000 
     36 CA        -14.2200   23.5100  -26.0900 C.3       5 GLY6        0.0000 
     37 CA        -11.8400   21.9400  -27.8500 C.3       5 GLY6        0.0000 
     38 CA        -11.3100   22.6500  -29.0600 C.3       5 GLY6        0.0000 
     39 CA        -11.7200   24.5100  -29.9900 C.3       5 GLY6        0.0000 
     40 CA        -10.2700   24.0800  -31.4800 C.3       5 GLY6        0.0000 
     41 CA         -9.3400   22.9400  -31.7500 C.3       5 GLY6        0.0000 
     42 CA        -14.6100   24.6000  -23.7600 C.3       5 GLY6        0.0000 
     43 CA        -13.6800   23.4500  -24.0300 C.3       5 GLY6        0.0000 
     44 CA        -14.0900   25.3100  -24.9700 C.3       5 GLY6        0.0000 
     45 CA        -13.5700   26.0300  -26.1800 C.3       5 GLY6        0.0000 
     46 CA        -12.6400   24.8800  -26.4600 C.3       5 GLY6        0.0000 
     47 CA        -11.7100   23.7400  -26.7300 C.3       5 GLY6        0.0000 
     48 CA        -12.1200   25.6000  -27.6700 C.3       5 GLY6        0.0000 
     49 CA        -11.1900   24.4500  -27.9400 C.3       5 GLY6        0.0000 
     50 CA        -10.6700   25.1700  -29.1500 C.3       5 GLY6        0.0000 
     51 CA         -7.3600   22.4500  -31.1900 C.3       5 GLY6        0.0000 
     52 CA        -12.5100   26.6800  -25.3400 C.3       5 GLY6        0.0000 
     53 DU        -10.9200   21.5700  -31.3900 H         6 CUB7        0.0000 
     54 DU         -9.7400   24.0200  -29.4300 H         6 CUB7        0.0000 
     55 DU         -6.3000   23.1000  -30.3500 H         6 CUB7        0.0000 
@<TRIPOS>BOND
@<TRIPOS>SUBSTRUCTURE
     1 SER1        1 GROUP   
     2 ALA2        5 GROUP   
     3 ASP3       16 GROUP   
     4 LYS4       17 GROUP   
     5 GLY6       28 GROUP   
     6 CUB7       53 GROUP   
@<TRIPOS>SET

