#    Name: 5n3f_1_463
#    Modification time : Fri May 22 19:15:43 2020

@<TRIPOS>MOLECULE
5n3f_1_463
   12    12     1     0     0
SMALL
NO_CHARGES


@<TRIPOS>ATOM
      1 C4        -12.7200   26.8070  -26.3740           1 463403      0.0000 
      2 C5        -11.4730   26.3850  -26.7990           1 463403      0.0000 
      3 C6        -11.1040   25.0490  -26.7100           1 463403      0.0000 
      4 N1         -8.8360   24.1160  -26.2490           1 463403      0.0000 
      5 C7         -9.7990   24.5700  -27.2830           1 463403      0.0000 
      6 C8        -12.0050   24.1460  -26.1600           1 463403      0.0000 
      7 O         -15.7570   24.9630  -24.4000           1 463403      0.0000 
      8 C1        -15.3240   23.8290  -24.5810           1 463403      0.0000 
      9 C         -16.0330   22.6070  -24.0660           1 463403      0.0000 
     10 N         -14.1730   23.5890  -25.2400           1 463403      0.0000 
     11 C2        -13.2650   24.5540  -25.7480           1 463403      0.0000 
     12 C3        -13.6240   25.8940  -25.8590           1 463403      0.0000 
@<TRIPOS>BOND
     1    1    2 du   
     2    1   12 du   
     3    2    3 du   
     4    3    5 du   
     5    3    6 du   
     6    4    5 du   
     7    6   11 du   
     8    7    8 du   
     9    8    9 du   
    10    8   10 du   
    11   10   11 du   
    12   11   12 du   
@<TRIPOS>SUBSTRUCTURE
     1 463403      1 GROUP   
@<TRIPOS>SET

