#    Name: 6dh1_1_K13
#    Modification time : Fri May 22 19:34:30 2020

@<TRIPOS>MOLECULE
6dh1_1_K13
   78    81     1     0     0
SMALL
NO_CHARGES


@<TRIPOS>ATOM
      1 N1        116.8820   51.7950   12.6360 N.pl3     1 K13102      0.0000 
      2 C2        117.8250   52.4350   13.5260 C.ar      1 K13102      0.0000 
      3 C3        117.6610   53.9100   13.8510 C.ar      1 K13102      0.0000 
      4 C4        118.6360   54.6010   14.7850 C.ar      1 K13102      0.0000 
      5 C5        119.7720   53.8020   15.4050 C.ar      1 K13102      0.0000 
      6 C6        119.9540   52.3260   15.0820 C.ar      1 K13102      0.0000 
      7 C7        118.9710   51.6430   14.1440 C.ar      1 K13102      0.0000 
      8 S8        120.9250   54.6620   16.4940 S.o2      1 K13102      0.0000 
      9 O9        120.2770   55.7510   17.2270 O.2       1 K13102      0.0000 
     10 O10       121.4520   53.8200   17.5670 O.2       1 K13102      0.0000 
     11 N11       122.1570   55.2310   15.4570 N.pl3     1 K13102      0.0000 
     12 C12       122.8140   54.1780   14.6960 C.3       1 K13102      0.0000 
     13 C13       124.2920   54.4710   14.4600 C.3       1 K13102      0.0000 
     14 C14       125.0280   54.5320   15.7980 C.3       1 K13102      0.0000 
     15 C15       124.8720   53.3700   13.5640 C.3       1 K13102      0.0000 
     16 C16       121.8420   56.4640   14.7560 C.3       1 K13102      0.0000 
     17 C17       122.7710   57.5870   15.2190 C.3       1 K13102      0.0000 
     18 C18       125.0830   52.0570   14.3250 C.3       1 K13102      0.0000 
     19 O18       122.5980   58.7090   14.3970 O.3       1 K13102      0.0000 
     20 C19       122.4570   57.9680   16.6630 C.3       1 K13102      0.0000 
     21 N20       123.4780   58.9010   17.0830 N.am      1 K13102      0.0000 
     22 C21       124.4430   58.5970   18.1140 C.2       1 K13102      0.0000 
     23 O22       124.4270   57.5640   18.6980 O.2       1 K13102      0.0000 
     24 O23       125.3870   59.5930   18.3680 O.3       1 K13102      0.0000 
     25 C24       126.2460   59.5050   19.5950 C.3       1 K13102      0.0000 
     26 C25       127.3990   59.9040   19.2520 C.3       1 K13102      0.0000 
     27 O26       127.2450   61.5390   19.1990 O.3       1 K13102      0.0000 
     28 C27       126.4420   61.8670   20.1560 C.3       1 K13102      0.0000 
     29 O28       125.2430   62.7590   19.6520 O.3       1 K13102      0.0000 
     30 C29       124.1770   61.9910   19.6460 C.3       1 K13102      0.0000 
     31 C30       124.4850   60.7610   20.6640 C.3       1 K13102      0.0000 
     32 C31       125.8130   60.5570   20.6520 C.3       1 K13102      0.0000 
     33 C32       121.1160   58.6970   16.7740 C.3       1 K13102      0.0000 
     34 C33       120.6390   58.0990   19.3060 C.ar      1 K13102      0.0000 
     35 C34       120.4220   58.5340   20.7550 C.ar      1 K13102      0.0000 
     36 C35       120.4630   60.0150   21.1200 C.ar      1 K13102      0.0000 
     37 C36       120.7190   61.0620   20.0390 C.ar      1 K13102      0.0000 
     38 C37       120.9370   60.6240   18.5900 C.ar      1 K13102      0.0000 
     39 C38       120.8980   59.1420   18.2210 C.ar      1 K13102      0.0000 
     40 HN1       117.1620   51.2470   12.0350 H         1 K13102      0.0000 
     41 HN1A      116.0410   51.9620   12.7080 H         1 K13102      0.0000 
     42 H3        116.9600   54.3920   13.4750 H         1 K13102      0.0000 
     43 H4        118.5370   55.5050   14.9820 H         1 K13102      0.0000 
     44 H6        120.6560   51.8460   15.4590 H         1 K13102      0.0000 
     45 H7        119.0700   50.7390   13.9470 H         1 K13102      0.0000 
     46 H12       122.7290   53.3450   15.1840 H         1 K13102      0.0000 
     47 H12A      122.3700   54.0850   13.8380 H         1 K13102      0.0000 
     48 H13       124.3790   55.3260   14.0100 H         1 K13102      0.0000 
     49 H14       125.9720   54.3600   15.6560 H         1 K13102      0.0000 
     50 H14A      124.9150   55.4130   16.1890 H         1 K13102      0.0000 
     51 H14B      124.6640   53.8630   16.3990 H         1 K13102      0.0000 
     52 H15       125.7240   53.6690   13.2110 H         1 K13102      0.0000 
     53 H15A      124.2630   53.2120   12.8260 H         1 K13102      0.0000 
     54 H16       121.9600   56.3280   13.8030 H         1 K13102      0.0000 
     55 H16A      120.9200   56.7060   14.9290 H         1 K13102      0.0000 
     56 H17       123.6910   57.2860   15.1600 H         1 K13102      0.0000 
     57 H18       125.8570   52.1370   14.9030 H         1 K13102      0.0000 
     58 H18A      124.3000   51.8570   14.8600 H         1 K13102      0.0000 
     59 H18B      125.2300   51.3380   13.6900 H         1 K13102      0.0000 
     60 HO18      123.2740   59.2190   14.4680 H         1 K13102      0.0000 
     61 H19       122.4630   57.1810   17.2300 H         1 K13102      0.0000 
     62 HN20      123.5120   59.6710   16.7020 H         1 K13102      0.0000 
     63 H24       126.2710   58.6100   19.9670 H         1 K13102      0.0000 
     64 H25       127.6180   59.5580   18.3730 H         1 K13102      0.0000 
     65 H25A      128.0630   59.6400   19.9070 H         1 K13102      0.0000 
     66 H27       126.9230   62.3090   20.8730 H         1 K13102      0.0000 
     67 H29       124.0200   61.6500   18.7520 H         1 K13102      0.0000 
     68 H29A      123.4070   62.4920   19.9570 H         1 K13102      0.0000 
     69 H30       124.0220   59.9620   20.3700 H         1 K13102      0.0000 
     70 H30A      124.2000   61.0000   21.5600 H         1 K13102      0.0000 
     71 H31       126.1410   60.3240   21.5350 H         1 K13102      0.0000 
     72 H32       120.3960   58.1040   16.5110 H         1 K13102      0.0000 
     73 H32A      121.1210   59.4750   16.1950 H         1 K13102      0.0000 
     74 H33       120.6150   57.1960   19.0850 H         1 K13102      0.0000 
     75 H34       120.2650   57.8970   21.4140 H         1 K13102      0.0000 
     76 H35       120.3290   60.2800   22.0010 H         1 K13102      0.0000 
     77 H36       120.7440   61.9650   20.2610 H         1 K13102      0.0000 
     78 H37       121.0940   61.2620   17.9320 H         1 K13102      0.0000 
@<TRIPOS>BOND
     1    1    2 1    
     2    2    3 ar   
     3    1   40 1    
     4    1   41 1    
     5    2    7 ar   
     6    3    4 ar   
     7    4    5 ar   
     8    3   42 1    
     9    5    6 ar   
    10    4   43 1    
    11    5    8 1    
    12    6    7 ar   
    13    8    9 2    
    14    6   44 1    
    15    7   45 1    
    16    8   10 2    
    17    8   11 1    
    18   11   12 1    
    19   11   16 1    
    20   12   13 1    
    21   12   46 1    
    22   12   47 1    
    23   13   14 1    
    24   13   15 1    
    25   13   48 1    
    26   14   49 1    
    27   14   50 1    
    28   14   51 1    
    29   15   18 1    
    30   15   52 1    
    31   15   53 1    
    32   16   17 1    
    33   16   54 1    
    34   16   55 1    
    35   17   19 1    
    36   17   20 1    
    37   17   56 1    
    38   19   60 1    
    39   18   57 1    
    40   18   58 1    
    41   18   59 1    
    42   20   21 1    
    43   20   33 1    
    44   20   61 1    
    45   21   22 am   
    46   22   23 2    
    47   21   62 1    
    48   22   24 1    
    49   24   25 1    
    50   25   26 1    
    51   25   32 1    
    52   25   63 1    
    53   26   64 1    
    54   26   65 1    
    55   26   27 1    
    56   27   28 1    
    57   28   29 1    
    58   28   32 1    
    59   28   66 1    
    60   29   30 1    
    61   30   31 1    
    62   30   67 1    
    63   30   68 1    
    64   31   32 1    
    65   31   69 1    
    66   31   70 1    
    67   32   71 1    
    68   33   39 1    
    69   33   72 1    
    70   33   73 1    
    71   34   35 ar   
    72   34   39 ar   
    73   35   36 ar   
    74   34   74 1    
    75   36   37 ar   
    76   35   75 1    
    77   37   38 ar   
    78   36   76 1    
    79   38   39 ar   
    80   37   77 1    
    81   38   78 1    
@<TRIPOS>SUBSTRUCTURE
     1 K13102      1 GROUP   
@<TRIPOS>SET

