#    Name: 6c5u_4_GNP
#    Modification time : Fri May 22 19:38:09 2020

@<TRIPOS>MOLECULE
6c5u_4_GNP
   32    34     1     0     1
SMALL
NO_CHARGES


@<TRIPOS>ATOM
      1 PG         70.6470   34.0720   39.5710 P.3       1 GNP500      0.0000 
      2 O1G        70.5410   35.1990   40.4960 O.co2     1 GNP500      0.0000 
      3 O2G        71.7600   34.5170   38.3660 O.co2     1 GNP500      0.0000 
      4 O3G        69.1050   33.7140   38.9790 O.co2     1 GNP500      0.0000 
      5 N3B        71.1820   32.7630   40.4080 N.3       1 GNP500      0.0000 
      6 PB         70.3780   31.5430   41.1440 P.3       1 GNP500      0.0000 
      7 O1B        70.5810   31.5930   42.5870 O.co2     1 GNP500      0.0000 
      8 O2B        68.7260   31.5570   40.7690 O.co2     1 GNP500      0.0000 
      9 O3A        71.0210   30.1080   40.8960 O.3       1 GNP500      0.0000 
     10 PA         72.2930   29.4220   40.2330 P.3       1 GNP500      0.0000 
     11 O1A        71.8680   28.2280   39.4210 O.co2     1 GNP500      0.0000 
     12 O2A        73.0250   30.5340   39.4290 O.co2     1 GNP500      0.0000 
     13 O5'        73.1470   28.9900   41.5720 O.3       1 GNP500      0.0000 
     14 C5'        73.7510   30.0230   42.4120 C.3       1 GNP500      0.0000 
     15 C4'        75.2410   29.8020   42.4270 C.3       1 GNP500      0.0000 
     16 O4'        75.5320   28.4400   42.8100 O.3       1 GNP500      0.0000 
     17 C3'        75.8800   29.9410   41.0620 C.3       1 GNP500      0.0000 
     18 O3'        76.1330   31.3120   40.8150 O.3       1 GNP500      0.0000 
     19 C2'        77.1330   29.0850   41.2080 C.3       1 GNP500      0.0000 
     20 O2'        78.1160   29.7760   41.9410 O.3       1 GNP500      0.0000 
     21 C1'        76.6380   27.9490   42.0810 C.3       1 GNP500      0.0000 
     22 N9         76.2290   26.7560   41.3190 N.pl3     1 GNP500      0.0000 
     23 C8         74.9870   26.2730   41.0000 C.2       1 GNP500      0.0000 
     24 N7         75.0120   25.1030   40.3970 N.2       1 GNP500      0.0000 
     25 C5         76.3560   24.8150   40.2890 C.2       1 GNP500      0.0000 
     26 C6         77.0680   23.6940   39.6680 C.2       1 GNP500      0.0000 
     27 O6         76.5990   22.7080   39.1000 O.2       1 GNP500      0.0000 
     28 N1         78.4380   23.8240   39.7840 N.am      1 GNP500      0.0000 
     29 C2         79.0840   24.8630   40.3970 C.2       1 GNP500      0.0000 
     30 N2         80.4000   24.8430   40.3470 N.pl3     1 GNP500      0.0000 
     31 N3         78.4610   25.8940   40.9730 N.2       1 GNP500      0.0000 
     32 C4         77.1150   25.8200   40.8670 C.2       1 GNP500      0.0000 
@<TRIPOS>BOND
     1    1    2 ar   
     2    1    3 ar   
     3    1    4 ar   
     4    1    5 1    
     5    5    6 1    
     6    6    7 ar   
     7    6    8 ar   
     8    6    9 1    
     9    9   10 1    
    10   10   11 ar   
    11   10   12 ar   
    12   10   13 1    
    13   13   14 1    
    14   14   15 1    
    15   15   16 1    
    16   15   17 1    
    17   16   21 1    
    18   17   18 1    
    19   17   19 1    
    20   19   20 1    
    21   19   21 1    
    22   21   22 1    
    23   22   23 1    
    24   22   32 1    
    25   23   24 2    
    26   24   25 1    
    27   25   26 1    
    28   25   32 2    
    29   26   27 2    
    30   26   28 am   
    31   28   29 1    
    32   29   30 1    
    33   29   31 2    
    34   31   32 1    
@<TRIPOS>SUBSTRUCTURE
     1 GNP500      1 GROUP   
@<TRIPOS>SET
ATOM$ORANGE STATIC     ATOMS   COLORGROUP SYSTEM 
20 14 14 15 15 17 17 19 19 21 21 23 23 25 25 26 26 29 \
29 32 32 

