#    Name: 6c5u_2_GNP
#    Modification time : Fri May 22 19:38:05 2020

@<TRIPOS>MOLECULE
6c5u_2_GNP
   32    34     1     0     1
SMALL
NO_CHARGES


@<TRIPOS>ATOM
      1 PG         43.3100    1.5110   20.9400 P.3       1 GNP500      0.0000 
      2 O1G        44.3880    2.1720   21.6940 O.co2     1 GNP500      0.0000 
      3 O2G        43.5720   -0.2150   20.6650 O.co2     1 GNP500      0.0000 
      4 O3G        42.6720    2.2230   19.5130 O.co2     1 GNP500      0.0000 
      5 N3B        42.0000    1.7690   21.8740 N.3       1 GNP500      0.0000 
      6 PB         40.4360    1.7090   21.4500 P.3       1 GNP500      0.0000 
      7 O1B        39.5900    1.2330   22.5350 O.co2     1 GNP500      0.0000 
      8 O2B        40.1790    0.5910   20.3310 O.co2     1 GNP500      0.0000 
      9 O3A        39.9970    3.2280   21.2060 O.3       1 GNP500      0.0000 
     10 PA         38.7710    3.9090   20.4380 P.3       1 GNP500      0.0000 
     11 O1A        39.3810    5.0770   19.7890 O.co2     1 GNP500      0.0000 
     12 O2A        37.9970    2.9170   19.5190 O.co2     1 GNP500      0.0000 
     13 O5'        37.8460    4.3800   21.6600 O.3       1 GNP500      0.0000 
     14 C5'        37.2430    3.4080   22.4990 C.3       1 GNP500      0.0000 
     15 C4'        35.7630    3.6910   22.5410 C.3       1 GNP500      0.0000 
     16 O4'        35.5100    5.0160   23.0380 O.3       1 GNP500      0.0000 
     17 C3'        35.0480    3.6420   21.2210 C.3       1 GNP500      0.0000 
     18 O3'        34.5650    2.3470   20.8760 O.3       1 GNP500      0.0000 
     19 C2'        33.8140    4.4720   21.5270 C.3       1 GNP500      0.0000 
     20 O2'        32.9330    3.6320   22.2430 O.3       1 GNP500      0.0000 
     21 C1'        34.3810    5.5770   22.4020 C.3       1 GNP500      0.0000 
     22 N9         34.7970    6.7880   21.6060 N.pl3     1 GNP500      0.0000 
     23 C8         36.0500    7.2460   21.2870 C.2       1 GNP500      0.0000 
     24 N7         36.0550    8.3620   20.6090 N.2       1 GNP500      0.0000 
     25 C5         34.7220    8.6800   20.4850 C.2       1 GNP500      0.0000 
     26 C6         34.0410    9.8540   19.9200 C.2       1 GNP500      0.0000 
     27 O6         34.5500   10.8730   19.4540 O.2       1 GNP500      0.0000 
     28 N1         32.6660    9.7680   20.0340 N.am      1 GNP500      0.0000 
     29 C2         31.9980    8.7250   20.6040 C.2       1 GNP500      0.0000 
     30 N2         30.6940    8.8000   20.6320 N.pl3     1 GNP500      0.0000 
     31 N3         32.5930    7.6580   21.1290 N.2       1 GNP500      0.0000 
     32 C4         33.9400    7.7070   21.0620 C.2       1 GNP500      0.0000 
@<TRIPOS>BOND
     1    1    2 ar   
     2    1    3 ar   
     3    1    4 ar   
     4    1    5 1    
     5    5    6 1    
     6    6    7 ar   
     7    6    8 ar   
     8    6    9 1    
     9    9   10 1    
    10   10   11 ar   
    11   10   12 ar   
    12   10   13 1    
    13   13   14 1    
    14   14   15 1    
    15   15   16 1    
    16   15   17 1    
    17   16   21 1    
    18   17   18 1    
    19   17   19 1    
    20   19   20 1    
    21   19   21 1    
    22   21   22 1    
    23   22   23 1    
    24   22   32 1    
    25   23   24 2    
    26   24   25 1    
    27   25   26 1    
    28   25   32 2    
    29   26   27 2    
    30   26   28 am   
    31   28   29 1    
    32   29   30 1    
    33   29   31 2    
    34   31   32 1    
@<TRIPOS>SUBSTRUCTURE
     1 GNP500      1 GROUP   
@<TRIPOS>SET
ATOM$ORANGE STATIC     ATOMS   COLORGROUP SYSTEM 
20 14 14 15 15 17 17 19 19 21 21 23 23 25 25 26 26 29 \
29 32 32 

