#    Name: 5zlp_11_ADP
#    Modification time : Fri May 22 19:30:56 2020

@<TRIPOS>MOLECULE
5zlp_11_ADP
   27    29     1     0     1
SMALL
NO_CHARGES


@<TRIPOS>ATOM
      1 PB        -10.6310  -50.4360   22.9310 P.3       1 ADP501      0.0000 
      2 O1B       -11.7530  -51.4120   22.4940 O.co2     1 ADP501      0.0000 
      3 O2B       -11.1160  -49.3200   23.8720 O.co2     1 ADP501      0.0000 
      4 O3B        -9.4500  -51.2220   23.5420 O.co2     1 ADP501      0.0000 
      5 PA        -10.9800  -48.8030   20.3930 P.3       1 ADP501      0.0000 
      6 O1A       -11.3670  -49.7630   19.2640 O.co2     1 ADP501      0.0000 
      7 O2A       -12.0310  -47.9230   21.0650 O.co2     1 ADP501      0.0000 
      8 O3A       -10.1170  -49.5460   21.6040 O.3       1 ADP501      0.0000 
      9 O5'        -9.9930  -47.7510   19.6860 O.3       1 ADP501      0.0000 
     10 C5'        -9.3540  -46.8220   20.5660 C.3       1 ADP501      0.0000 
     11 C4'        -8.8130  -45.4900   20.0040 C.3       1 ADP501      0.0000 
     12 O4'        -7.4900  -45.7590   19.5160 O.3       1 ADP501      0.0000 
     13 C3'        -9.5150  -44.7940   18.8100 C.3       1 ADP501      0.0000 
     14 O3'        -9.3700  -43.3390   18.8230 O.3       1 ADP501      0.0000 
     15 C2'        -8.7940  -45.4360   17.6280 C.3       1 ADP501      0.0000 
     16 O2'        -8.9170  -44.8140   16.3380 O.3       1 ADP501      0.0000 
     17 C1'        -7.4150  -45.1970   18.1950 C.3       1 ADP501      0.0000 
     18 N9         -6.3040  -45.6850   17.3800 N.pl3     1 ADP501      0.0000 
     19 C8         -6.3340  -46.6780   16.5140 C.2       1 ADP501      0.0000 
     20 N7         -5.0910  -46.8190   15.9930 N.2       1 ADP501      0.0000 
     21 C5         -4.2520  -45.9320   16.5280 C.ar      1 ADP501      0.0000 
     22 C6         -2.8150  -45.5670   16.4080 C.ar      1 ADP501      0.0000 
     23 N6         -1.9630  -46.2110   15.5380 N.pl3     1 ADP501      0.0000 
     24 N1         -2.4000  -44.5220   17.2210 N.ar      1 ADP501      0.0000 
     25 C2         -3.1880  -43.8260   18.0930 C.ar      1 ADP501      0.0000 
     26 N3         -4.4990  -44.1630   18.1860 N.ar      1 ADP501      0.0000 
     27 C4         -5.0760  -45.1690   17.4540 C.ar      1 ADP501      0.0000 
@<TRIPOS>BOND
     1    1    2 ar   
     2    1    3 ar   
     3    1    4 ar   
     4    1    8 1    
     5    5    6 ar   
     6    5    7 ar   
     7    5    8 1    
     8    5    9 1    
     9    9   10 1    
    10   10   11 1    
    11   11   12 1    
    12   11   13 1    
    13   12   17 1    
    14   13   14 1    
    15   13   15 1    
    16   15   16 1    
    17   15   17 1    
    18   17   18 1    
    19   18   19 1    
    20   18   27 1    
    21   19   20 2    
    22   20   21 1    
    23   21   22 ar   
    24   21   27 ar   
    25   22   23 1    
    26   22   24 ar   
    27   24   25 ar   
    28   25   26 ar   
    29   26   27 ar   
@<TRIPOS>SUBSTRUCTURE
     1 ADP501      1 GROUP   
@<TRIPOS>SET
ATOM$ORANGE STATIC     ATOMS   COLORGROUP SYSTEM 
20 10 10 11 11 13 13 15 15 17 17 19 19 21 21 22 22 25 \
25 27 27 

