#    Name: 5zlp_12_ATP_CAVITY_N1_4
#    Modification time : Fri May 22 19:31:13 2020

@<TRIPOS>MOLECULE
5zlp_12_ATP_CAVITY_N1_4
  111     0     7     0     0
SMALL
NO_CHARGES


@<TRIPOS>ATOM
      1 OG        -11.1000   -5.3300   17.3800 O.3       1 SER1        0.0000 
      2 OG        -12.1900    1.0600   20.1100 O.3       1 SER1        0.0000 
      3 OG         -9.9800    1.7600   15.2200 O.3       1 SER1        0.0000 
      4 OG         -9.5300    0.7200   16.1900 O.3       1 SER1        0.0000 
      5 OG         -9.4000    2.3500   13.2600 O.3       1 SER1        0.0000 
      6 OG         -8.9400    1.3000   14.2400 O.3       1 SER1        0.0000 
      7 OG         -8.4900    0.2600   15.2200 O.3       1 SER1        0.0000 
      8 OG        -10.0400    3.2000   16.7800 O.3       1 SER1        0.0000 
      9 OG         -9.4600    3.7800   14.8200 O.3       1 SER1        0.0000 
     10 OG        -11.0200    6.7200   16.3900 O.3       1 SER1        0.0000 
     11 N         -15.6500    0.6100   18.9400 N.am      2 ALA2        0.0000 
     12 O         -15.7000    2.0500   20.5000 O.2       2 ALA2        0.0000 
     13 N         -14.6700    1.5900   19.5300 N.am      2 ALA2        0.0000 
     14 N         -12.0500    7.1800   17.3700 N.am      2 ALA2        0.0000 
     15 N         -11.6000    6.1400   18.3400 N.am      2 ALA2        0.0000 
     16 N          -9.9800    6.2600   15.4100 N.am      2 ALA2        0.0000 
     17 OD1       -10.8900   -5.1300   24.4100 O.co2     3 ASP3        0.0000 
     18 OD1       -10.6300   -1.8800   18.5400 O.co2     3 ASP3        0.0000 
     19 OD1        -9.5900   -2.3400   17.5600 O.co2     3 ASP3        0.0000 
     20 OD1       -10.9400   -3.7000   25.9700 O.co2     3 ASP3        0.0000 
     21 OD1       -10.8200   -2.0700   23.0400 O.co2     3 ASP3        0.0000 
     22 OD1       -10.3600   -3.1100   24.0100 O.co2     3 ASP3        0.0000 
     23 OD1        -9.9100   -4.1600   24.9900 O.co2     3 ASP3        0.0000 
     24 OD1       -11.6100    1.6400   18.1500 O.co2     3 ASP3        0.0000 
     25 OD1       -11.1500    0.6000   19.1300 O.co2     3 ASP3        0.0000 
     26 OD1       -10.6900   -0.4500   20.1000 O.co2     3 ASP3        0.0000 
     27 OD1       -10.2400   -1.4900   21.0800 O.co2     3 ASP3        0.0000 
     28 OD1        -9.7800   -2.5300   22.0600 O.co2     3 ASP3        0.0000 
     29 OD1        -9.3200   -3.5800   23.0300 O.co2     3 ASP3        0.0000 
     30 OD1       -10.5700    1.1800   17.1700 O.co2     3 ASP3        0.0000 
     31 OD1       -10.1100    0.1400   18.1500 O.co2     3 ASP3        0.0000 
     32 OD1        -9.2000   -1.9500   20.1000 O.co2     3 ASP3        0.0000 
     33 OD1        -8.7400   -2.9900   21.0800 O.co2     3 ASP3        0.0000 
     34 OD1        -9.0700   -0.3200   17.1700 O.co2     3 ASP3        0.0000 
     35 OD1        -8.6100   -1.3700   18.1500 O.co2     3 ASP3        0.0000 
     36 OD1        -8.1600   -2.4100   19.1200 O.co2     3 ASP3        0.0000 
     37 OD1        -7.5700   -1.8300   17.1700 O.co2     3 ASP3        0.0000 
     38 OD1        -7.1200   -2.8700   18.1400 O.co2     3 ASP3        0.0000 
     39 OD1        -9.5900    2.1500   17.7600 O.co2     3 ASP3        0.0000 
     40 OD1        -7.7600   -2.0200   21.6600 O.co2     3 ASP3        0.0000 
     41 OD1        -7.3000   -3.0600   22.6400 O.co2     3 ASP3        0.0000 
     42 OD1        -6.7200   -2.4800   20.6800 O.co2     3 ASP3        0.0000 
     43 NZ        -13.7500   -0.5000   21.4800 N.4       4 LYS4        0.0000 
     44 NZ        -12.3800   -3.6300   24.4100 N.4       4 LYS4        0.0000 
     45 NZ        -11.9200   -4.6700   25.3800 N.4       4 LYS4        0.0000 
     46 NZ        -12.2600   -2.0000   21.4800 N.4       4 LYS4        0.0000 
     47 NZ        -11.8000   -3.0500   22.4500 N.4       4 LYS4        0.0000 
     48 NZ        -11.8600   -1.6100   24.0100 N.4       4 LYS4        0.0000 
     49 NZ        -11.4000   -2.6500   24.9900 N.4       4 LYS4        0.0000 
     50 CZ        -13.5100   -1.7400   15.4300 C.ar      5 PHE5        0.0000 
     51 CZ        -11.5600   -4.2900   16.4000 C.ar      5 PHE5        0.0000 
     52 CZ        -15.1900   -0.4300   19.9200 C.ar      5 PHE5        0.0000 
     53 CZ        -12.2000   -3.4400   19.9200 C.ar      5 PHE5        0.0000 
     54 CZ        -12.5300   -0.7700   16.0100 C.ar      5 PHE5        0.0000 
     55 CZ        -12.0700   -1.8100   16.9800 C.ar      5 PHE5        0.0000 
     56 CZ        -11.6100   -2.8600   17.9600 C.ar      5 PHE5        0.0000 
     57 CZ        -11.1600   -3.9000   18.9400 C.ar      5 PHE5        0.0000 
     58 CZ        -11.0300   -2.2700   16.0100 C.ar      5 PHE5        0.0000 
     59 CZ        -10.5700   -3.3200   16.9800 C.ar      5 PHE5        0.0000 
     60 CZ        -14.2100    0.5400   20.5000 C.ar      5 PHE5        0.0000 
     61 CZ        -14.0800    2.1700   17.5700 C.ar      5 PHE5        0.0000 
     62 CZ        -13.6300    1.1300   18.5500 C.ar      5 PHE5        0.0000 
     63 CZ        -13.1700    0.0800   19.5200 C.ar      5 PHE5        0.0000 
     64 CZ        -12.7100   -0.9600   20.5000 C.ar      5 PHE5        0.0000 
     65 CZ        -13.0400    1.7100   16.5900 C.ar      5 PHE5        0.0000 
     66 CZ        -12.5900    0.6700   17.5700 C.ar      5 PHE5        0.0000 
     67 CZ        -12.1300   -0.3800   18.5500 C.ar      5 PHE5        0.0000 
     68 CZ        -11.6700   -1.4200   19.5200 C.ar      5 PHE5        0.0000 
     69 CZ        -12.0000    1.2500   15.6100 C.ar      5 PHE5        0.0000 
     70 CZ        -11.0900   -0.8400   17.5700 C.ar      5 PHE5        0.0000 
     71 CZ        -11.4200    1.8300   13.6600 C.ar      5 PHE5        0.0000 
     72 CZ        -13.2300    1.5200   21.0900 C.ar      5 PHE5        0.0000 
     73 CZ        -13.1000    3.1400   18.1500 C.ar      5 PHE5        0.0000 
     74 CZ        -12.6500    2.1000   19.1300 C.ar      5 PHE5        0.0000 
     75 CZ        -11.7300    0.0100   21.0800 C.ar      5 PHE5        0.0000 
     76 CZ        -11.2800   -1.0300   22.0600 C.ar      5 PHE5        0.0000 
     77 CZ        -12.0600    2.6800   17.1800 C.ar      5 PHE5        0.0000 
     78 CZ        -11.0200    2.2200   16.2000 C.ar      5 PHE5        0.0000 
     79 CZ        -10.4400    2.8100   14.2400 C.ar      5 PHE5        0.0000 
     80 CZ        -12.5800    5.1600   17.7600 C.ar      5 PHE5        0.0000 
     81 CZ        -11.5400    4.7000   16.7800 C.ar      5 PHE5        0.0000 
     82 CZ        -10.5000    4.2400   15.8000 C.ar      5 PHE5        0.0000 
     83 CZ         -9.9200    4.8200   13.8500 C.ar      5 PHE5        0.0000 
     84 CA        -12.9800    0.2700   15.0300 C.3       6 GLY6        0.0000 
     85 CA        -11.9400   -0.1900   14.0500 C.3       6 GLY6        0.0000 
     86 CA        -10.1200   -4.3600   17.9600 C.3       6 GLY6        0.0000 
     87 CA        -15.2500    1.0100   21.4800 C.3       6 GLY6        0.0000 
     88 CA        -15.1200    2.6300   18.5500 C.3       6 GLY6        0.0000 
     89 CA         -9.1400   -3.3800   18.5400 C.3       6 GLY6        0.0000 
     90 CA         -8.1000   -3.8500   17.5600 C.3       6 GLY6        0.0000 
     91 CA        -14.1400    3.6100   19.1300 C.3       6 GLY6        0.0000 
     92 CA        -13.6800    2.5600   20.1100 C.3       6 GLY6        0.0000 
     93 CA         -8.2800   -4.0400   22.0500 C.3       6 GLY6        0.0000 
     94 CA         -7.7000   -3.4500   20.1000 C.3       6 GLY6        0.0000 
     95 CA        -12.1200    4.1200   18.7400 C.3       6 GLY6        0.0000 
     96 CA        -11.6600    3.0800   19.7100 C.3       6 GLY6        0.0000 
     97 CA        -11.0800    3.6600   17.7600 C.3       6 GLY6        0.0000 
     98 CA         -6.2600   -3.5200   21.6600 C.3       6 GLY6        0.0000 
     99 CA        -11.1400    5.0900   19.3200 C.3       6 GLY6        0.0000 
    100 CA        -10.5600    5.6800   17.3600 C.3       6 GLY6        0.0000 
    101 CA         -9.5200    5.2200   16.3900 C.3       6 GLY6        0.0000 
    102 CA         -9.5800    6.6500   17.9500 C.3       6 GLY6        0.0000 
    103 DU        -11.3400   -4.0900   23.4300 H         7 CUB7        0.0000 
    104 DU        -11.2200   -2.4600   20.5000 H         7 CUB7        0.0000 
    105 DU        -10.7600   -3.5100   21.4700 H         7 CUB7        0.0000 
    106 DU        -11.5500    0.2100   16.5900 H         7 CUB7        0.0000 
    107 DU        -10.1800   -2.9200   19.5200 H         7 CUB7        0.0000 
    108 DU        -10.9600    0.7900   14.6400 H         7 CUB7        0.0000 
    109 DU        -10.5100   -0.2500   15.6100 H         7 CUB7        0.0000 
    110 DU        -10.0500   -1.3000   16.5900 H         7 CUB7        0.0000 
    111 DU         -8.5500   -2.8000   16.5900 H         7 CUB7        0.0000 
@<TRIPOS>BOND
@<TRIPOS>SUBSTRUCTURE
     1 SER1        1 GROUP   
     2 ALA2       11 GROUP   
     3 ASP3       17 GROUP   
     4 LYS4       43 GROUP   
     5 PHE5       50 GROUP   
     6 GLY6       84 GROUP   
     7 CUB7      103 GROUP   
@<TRIPOS>SET

