#    Name: 5zlp_10_ADP
#    Modification time : Fri May 22 19:30:41 2020

@<TRIPOS>MOLECULE
5zlp_10_ADP
   27    29     1     0     1
SMALL
NO_CHARGES


@<TRIPOS>ATOM
      1 PB        -53.0840  -72.5180   22.6340 P.3       1 ADP501      0.0000 
      2 O1B       -53.6870  -71.3900   21.7630 O.co2     1 ADP501      0.0000 
      3 O2B       -52.3260  -71.9810   23.8640 O.co2     1 ADP501      0.0000 
      4 O3B       -54.1910  -73.5380   23.0340 O.co2     1 ADP501      0.0000 
      5 PA        -50.9630  -72.6530   20.4510 P.3       1 ADP501      0.0000 
      6 O1A       -51.5610  -73.0130   19.0910 O.co2     1 ADP501      0.0000 
      7 O2A       -50.6130  -71.2080   20.7770 O.co2     1 ADP501      0.0000 
      8 O3A       -51.8240  -73.2270   21.7620 O.3       1 ADP501      0.0000 
      9 O5'       -49.5310  -73.3620   20.3540 O.3       1 ADP501      0.0000 
     10 C5'       -48.4980  -72.5100   20.8230 C.3       1 ADP501      0.0000 
     11 C4'       -47.1080  -72.6450   20.1970 C.3       1 ADP501      0.0000 
     12 O4'       -46.9830  -73.9270   19.5830 O.3       1 ADP501      0.0000 
     13 C3'       -46.7510  -71.6230   19.0920 C.3       1 ADP501      0.0000 
     14 O3'       -45.4140  -71.0550   19.2220 O.3       1 ADP501      0.0000 
     15 C2'       -46.9160  -72.4460   17.8130 C.3       1 ADP501      0.0000 
     16 O2'       -46.1940  -72.0210   16.6460 O.3       1 ADP501      0.0000 
     17 C1'       -46.2710  -73.7080   18.3500 C.3       1 ADP501      0.0000 
     18 N9        -46.2370  -74.8610   17.4350 N.pl3     1 ADP501      0.0000 
     19 C8        -47.1680  -75.1930   16.5500 C.2       1 ADP501      0.0000 
     20 N7        -46.7840  -76.3200   15.9270 N.2       1 ADP501      0.0000 
     21 C5        -45.6100  -76.7430   16.4210 C.ar      1 ADP501      0.0000 
     22 C6        -44.6490  -77.8790   16.1980 C.ar      1 ADP501      0.0000 
     23 N6        -44.8650  -78.8890   15.2640 N.pl3     1 ADP501      0.0000 
     24 N1        -43.5120  -77.8600   16.9890 N.ar      1 ADP501      0.0000 
     25 C2        -43.2230  -76.9120   17.9160 C.ar      1 ADP501      0.0000 
     26 N3        -44.0930  -75.8860   18.1110 N.ar      1 ADP501      0.0000 
     27 C4        -45.2590  -75.7500   17.4270 C.ar      1 ADP501      0.0000 
@<TRIPOS>BOND
     1    1    2 ar   
     2    1    3 ar   
     3    1    4 ar   
     4    1    8 1    
     5    5    6 ar   
     6    5    7 ar   
     7    5    8 1    
     8    5    9 1    
     9    9   10 1    
    10   10   11 1    
    11   11   12 1    
    12   11   13 1    
    13   12   17 1    
    14   13   14 1    
    15   13   15 1    
    16   15   16 1    
    17   15   17 1    
    18   17   18 1    
    19   18   19 1    
    20   18   27 1    
    21   19   20 2    
    22   20   21 1    
    23   21   22 ar   
    24   21   27 ar   
    25   22   23 1    
    26   22   24 ar   
    27   24   25 ar   
    28   25   26 ar   
    29   26   27 ar   
@<TRIPOS>SUBSTRUCTURE
     1 ADP501      1 GROUP   
@<TRIPOS>SET
ATOM$ORANGE STATIC     ATOMS   COLORGROUP SYSTEM 
20 10 10 11 11 13 13 15 15 17 17 19 19 21 21 22 22 25 \
25 27 27 

