#    Name: 5zlp_8_ATP_CAVITY_N1_4
#    Modification time : Fri May 22 19:30:15 2020

@<TRIPOS>MOLECULE
5zlp_8_ATP_CAVITY_N1_4
   76     0     7     0     0
SMALL
NO_CHARGES


@<TRIPOS>ATOM
      1 OG        -89.7300   -1.2700   19.3200 O.3       1 SER1        0.0000 
      2 OG        -88.7500   -0.3000   19.9000 O.3       1 SER1        0.0000 
      3 OG        -88.2900   -1.3400   20.8800 O.3       1 SER1        0.0000 
      4 OG        -88.4800   -1.5300   25.3700 O.3       1 SER1        0.0000 
      5 OG        -87.9000   -0.9500   23.4200 O.3       1 SER1        0.0000 
      6 OG        -87.9500    0.4900   24.9800 O.3       1 SER1        0.0000 
      7 N         -95.1400    0.8300   17.1800 N.am      2 ALA2        0.0000 
      8 O         -94.8000    2.6600   21.2800 O.2       2 ALA2        0.0000 
      9 O         -89.8500    1.6000   22.4400 O.2       2 ALA2        0.0000 
     10 N         -88.3500    0.0900   22.4400 N.am      2 ALA2        0.0000 
     11 N         -87.3100   -0.3700   21.4600 N.am      2 ALA2        0.0000 
     12 OD1       -94.6800   -0.2100   18.1600 O.co2     3 ASP3        0.0000 
     13 OD1       -93.6400   -0.6700   17.1800 O.co2     3 ASP3        0.0000 
     14 OD1       -93.1900   -1.7200   18.1600 O.co2     3 ASP3        0.0000 
     15 OD1       -92.7300   -2.7600   19.1300 O.co2     3 ASP3        0.0000 
     16 OD1       -94.7400    1.2200   19.7200 O.co2     3 ASP3        0.0000 
     17 OD1       -94.2900    0.1800   20.7000 O.co2     3 ASP3        0.0000 
     18 OD1       -93.8300   -0.8600   21.6700 O.co2     3 ASP3        0.0000 
     19 OD1       -93.3700   -1.9100   22.6500 O.co2     3 ASP3        0.0000 
     20 OD1       -93.2500   -0.2800   19.7200 O.co2     3 ASP3        0.0000 
     21 OD1       -92.7900   -1.3300   20.7000 O.co2     3 ASP3        0.0000 
     22 OD1       -94.3400    1.6100   22.2600 O.co2     3 ASP3        0.0000 
     23 OD1       -92.8500    0.1100   22.2600 O.co2     3 ASP3        0.0000 
     24 OD1       -92.3900   -0.9300   23.2300 O.co2     3 ASP3        0.0000 
     25 OD1       -91.9300   -1.9800   24.2100 O.co2     3 ASP3        0.0000 
     26 OD1       -91.8700    1.0800   22.8400 O.co2     3 ASP3        0.0000 
     27 OD1       -91.4100    0.0400   23.8200 O.co2     3 ASP3        0.0000 
     28 OD1       -90.9500   -1.0000   24.7900 O.co2     3 ASP3        0.0000 
     29 OD1       -90.5000   -2.0500   25.7700 O.co2     3 ASP3        0.0000 
     30 OD1       -90.4300    1.0200   24.4000 O.co2     3 ASP3        0.0000 
     31 OD1       -89.5200   -1.0700   26.3500 O.co2     3 ASP3        0.0000 
     32 OD1       -88.9300   -0.4900   24.4000 O.co2     3 ASP3        0.0000 
     33 NZ        -92.8600   -4.3900   22.0700 N.4       4 LYS4        0.0000 
     34 NZ        -92.9200   -2.9500   23.6300 N.4       4 LYS4        0.0000 
     35 NZ        -91.8800   -3.4100   22.6500 N.4       4 LYS4        0.0000 
     36 NZ        -91.2900   -2.8300   20.6900 N.4       4 LYS4        0.0000 
     37 NZ        -91.4800   -3.0200   25.1900 N.4       4 LYS4        0.0000 
     38 NZ        -90.9000   -2.4400   23.2300 N.4       4 LYS4        0.0000 
     39 NZ        -90.4400   -3.4800   24.2100 N.4       4 LYS4        0.0000 
     40 NZ        -89.8600   -2.9000   22.2500 N.4       4 LYS4        0.0000 
     41 NZ        -90.0400   -3.0900   26.7400 N.4       4 LYS4        0.0000 
     42 NZ        -89.4600   -2.5100   24.7900 N.4       4 LYS4        0.0000 
     43 NZ        -89.0000   -3.5500   25.7700 N.4       4 LYS4        0.0000 
     44 NZ        -88.0200   -2.5800   26.3500 N.4       4 LYS4        0.0000 
     45 CZ        -93.3100   -3.3400   21.0900 C.ar      5 PHE5        0.0000 
     46 CZ        -92.2700   -3.8000   20.1100 C.ar      5 PHE5        0.0000 
     47 CZ        -91.6900   -3.2200   18.1600 C.ar      5 PHE5        0.0000 
     48 CZ        -90.2500   -3.2900   19.7200 C.ar      5 PHE5        0.0000 
     49 CZ        -89.2700   -2.3200   20.3000 C.ar      5 PHE5        0.0000 
     50 CZ        -88.4200   -2.9700   23.8100 C.ar      5 PHE5        0.0000 
     51 CZ        -87.4400   -1.9900   24.3900 C.ar      5 PHE5        0.0000 
     52 CA        -93.7000    0.7600   18.7400 C.3       6 GLY6        0.0000 
     53 CA        -93.1200    1.3400   16.7900 C.3       6 GLY6        0.0000 
     54 CA        -92.6600    0.3000   17.7600 C.3       6 GLY6        0.0000 
     55 CA        -92.2100   -0.7400   18.7400 C.3       6 GLY6        0.0000 
     56 CA        -93.7600    2.2000   20.3000 C.3       6 GLY6        0.0000 
     57 CA        -93.3100    1.1500   21.2800 C.3       6 GLY6        0.0000 
     58 CA        -92.2700    0.6900   20.3000 C.3       6 GLY6        0.0000 
     59 CA        -91.8100   -0.3500   21.2800 C.3       6 GLY6        0.0000 
     60 CA        -90.7700   -0.8100   20.3000 C.3       6 GLY6        0.0000 
     61 CA        -88.8200   -3.3600   21.2700 C.3       6 GLY6        0.0000 
     62 CA        -88.2300   -2.7800   19.3200 C.3       6 GLY6        0.0000 
     63 CA        -93.8200    3.6300   21.8700 C.3       6 GLY6        0.0000 
     64 CA        -90.8300    0.6200   21.8600 C.3       6 GLY6        0.0000 
     65 CA        -89.7900    0.1600   20.8800 C.3       6 GLY6        0.0000 
     66 CA        -87.8400   -2.3800   21.8600 C.3       6 GLY6        0.0000 
     67 CA        -89.3900    0.5500   23.4200 C.3       6 GLY6        0.0000 
     68 DU        -94.1000    0.3700   16.2100 H         7 CUB7        0.0000 
     69 DU        -92.3300   -2.3700   21.6700 H         7 CUB7        0.0000 
     70 DU        -91.7500   -1.7900   19.7200 H         7 CUB7        0.0000 
     71 DU        -91.3500   -1.3900   22.2500 H         7 CUB7        0.0000 
     72 DU        -90.3100   -1.8600   21.2800 H         7 CUB7        0.0000 
     73 DU        -90.3700   -0.4200   22.8400 H         7 CUB7        0.0000 
     74 DU        -89.9200   -1.4600   23.8100 H         7 CUB7        0.0000 
     75 DU        -89.3300   -0.8800   21.8600 H         7 CUB7        0.0000 
     76 DU        -88.8800   -1.9200   22.8400 H         7 CUB7        0.0000 
@<TRIPOS>BOND
@<TRIPOS>SUBSTRUCTURE
     1 SER1        1 GROUP   
     2 ALA2        7 GROUP   
     3 ASP3       12 GROUP   
     4 LYS4       33 GROUP   
     5 PHE5       45 GROUP   
     6 GLY6       52 GROUP   
     7 CUB7       68 GROUP   
@<TRIPOS>SET

