#    Name: 5zlp_3_ATP
#    Modification time : Fri May 22 19:29:13 2020

@<TRIPOS>MOLECULE
5zlp_3_ATP
   31    33     1     0     1
SMALL
NO_CHARGES


@<TRIPOS>ATOM
      1 PG        -81.1910   10.2510   76.5670 P.3       1 ATP501      0.0000 
      2 O1G       -82.4630   10.9800   76.1020 O.co2     1 ATP501      0.0000 
      3 O2G       -79.9420   11.0220   76.1520 O.co2     1 ATP501      0.0000 
      4 O3G       -81.0960    8.7460   76.2330 O.co2     1 ATP501      0.0000 
      5 PB        -82.0600   11.4110   79.2300 P.3       1 ATP501      0.0000 
      6 O1B       -83.5720   11.3900   79.0040 O.co2     1 ATP501      0.0000 
      7 O2B       -81.3310   12.7350   79.0130 O.co2     1 ATP501      0.0000 
      8 O3B       -81.2810   10.3490   78.2190 O.3       1 ATP501      0.0000 
      9 PA        -80.6650   11.0350   82.0250 P.3       1 ATP501      0.0000 
     10 O1A       -80.1720    9.6660   82.4980 O.co2     1 ATP501      0.0000 
     11 O2A       -81.0770   12.0870   83.0750 O.co2     1 ATP501      0.0000 
     12 O3A       -81.7950   10.8780   80.7980 O.3       1 ATP501      0.0000 
     13 O5'       -79.4210   11.6450   81.2270 O.3       1 ATP501      0.0000 
     14 C5'       -78.1230   11.3970   81.7160 C.3       1 ATP501      0.0000 
     15 C4'       -77.2480   12.5900   81.3630 C.3       1 ATP501      0.0000 
     16 O4'       -78.0100   13.7850   81.6230 O.3       1 ATP501      0.0000 
     17 C3'       -76.0290   12.6050   82.2960 C.3       1 ATP501      0.0000 
     18 O3'       -74.9020   13.3570   81.8030 O.3       1 ATP501      0.0000 
     19 C2'       -76.6720   13.2750   83.4890 C.3       1 ATP501      0.0000 
     20 O2'       -75.7860   13.5610   84.5980 O.3       1 ATP501      0.0000 
     21 C1'       -77.3290   14.4410   82.7220 C.3       1 ATP501      0.0000 
     22 N9        -78.0870   15.3790   83.6150 N.pl3     1 ATP501      0.0000 
     23 C8        -79.1760   15.1710   84.4190 C.2       1 ATP501      0.0000 
     24 N7        -79.5390   16.3140   85.0720 N.2       1 ATP501      0.0000 
     25 C5        -78.6850   17.2700   84.6870 C.ar      1 ATP501      0.0000 
     26 C6        -78.5130   18.6990   84.9930 C.ar      1 ATP501      0.0000 
     27 N6        -79.3240   19.3720   85.8540 N.pl3     1 ATP501      0.0000 
     28 N1        -77.4870   19.3170   84.3630 N.ar      1 ATP501      0.0000 
     29 C2        -76.6620   18.6690   83.4990 C.ar      1 ATP501      0.0000 
     30 N3        -76.7460   17.3640   83.1600 N.ar      1 ATP501      0.0000 
     31 C4        -77.7360   16.6480   83.7270 C.ar      1 ATP501      0.0000 
@<TRIPOS>BOND
     1    1    2 ar   
     2    1    3 ar   
     3    1    4 ar   
     4    1    8 1    
     5    5    6 ar   
     6    5    7 ar   
     7    5    8 1    
     8    5   12 1    
     9    9   10 ar   
    10    9   11 ar   
    11    9   12 1    
    12    9   13 1    
    13   13   14 1    
    14   14   15 1    
    15   15   16 1    
    16   15   17 1    
    17   16   21 1    
    18   17   18 1    
    19   17   19 1    
    20   19   20 1    
    21   19   21 1    
    22   21   22 1    
    23   22   23 1    
    24   22   31 1    
    25   23   24 2    
    26   24   25 1    
    27   25   26 ar   
    28   25   31 ar   
    29   26   27 1    
    30   26   28 ar   
    31   28   29 ar   
    32   29   30 ar   
    33   30   31 ar   
@<TRIPOS>SUBSTRUCTURE
     1 ATP501      1 GROUP   
@<TRIPOS>SET
ATOM$ORANGE STATIC     ATOMS   COLORGROUP SYSTEM 
20 14 14 15 15 17 17 19 19 21 21 23 23 25 25 26 26 29 \
29 31 31 

