#    Name: 5zlp_9_ADP
#    Modification time : Fri May 22 19:30:27 2020

@<TRIPOS>MOLECULE
5zlp_9_ADP
   27    29     1     0     1
SMALL
NO_CHARGES


@<TRIPOS>ATOM
      1 PB        -92.2600  -48.6800   23.4680 P.3       1 ADP501      0.0000 
      2 O1B       -93.0850  -47.4260   23.1050 O.co2     1 ADP501      0.0000 
      3 O2B       -90.8020  -48.3250   23.7670 O.co2     1 ADP501      0.0000 
      4 O3B       -92.8790  -49.4600   24.6520 O.co2     1 ADP501      0.0000 
      5 PA        -91.6900  -49.5490   20.5530 P.3       1 ADP501      0.0000 
      6 O1A       -92.8070  -49.8280   19.5480 O.co2     1 ADP501      0.0000 
      7 O2A       -90.8600  -48.2680   20.4700 O.co2     1 ADP501      0.0000 
      8 O3A       -92.1160  -49.7310   22.1560 O.3       1 ADP501      0.0000 
      9 O5'       -90.6580  -50.7250   20.1970 O.3       1 ADP501      0.0000 
     10 C5'       -91.0760  -52.0750   20.0360 C.3       1 ADP501      0.0000 
     11 C4'       -89.8970  -53.0660   19.9550 C.3       1 ADP501      0.0000 
     12 O4'       -90.5950  -54.2420   19.5440 O.3       1 ADP501      0.0000 
     13 C3'       -88.8150  -52.8460   18.8460 C.3       1 ADP501      0.0000 
     14 O3'       -87.5020  -53.4880   18.9410 O.3       1 ADP501      0.0000 
     15 C2'       -89.5470  -53.3290   17.5990 C.3       1 ADP501      0.0000 
     16 O2'       -88.6770  -53.6840   16.5170 O.3       1 ADP501      0.0000 
     17 C1'       -90.2280  -54.5660   18.1900 C.3       1 ADP501      0.0000 
     18 N9        -91.2960  -55.1830   17.3670 N.pl3     1 ADP501      0.0000 
     19 C8        -92.1610  -54.5790   16.5540 C.2       1 ADP501      0.0000 
     20 N7        -92.9570  -55.5280   15.9910 N.2       1 ADP501      0.0000 
     21 C5        -92.6240  -56.7460   16.4350 C.ar      1 ADP501      0.0000 
     22 C6        -93.0680  -58.1700   16.2350 C.ar      1 ADP501      0.0000 
     23 N6        -94.1080  -58.5460   15.3880 N.pl3     1 ADP501      0.0000 
     24 N1        -92.3530  -59.1190   16.9620 N.ar      1 ADP501      0.0000 
     25 C2        -91.3150  -58.8420   17.8040 C.ar      1 ADP501      0.0000 
     26 N3        -90.9060  -57.5530   17.9760 N.ar      1 ADP501      0.0000 
     27 C4        -91.5000  -56.5010   17.3450 C.ar      1 ADP501      0.0000 
@<TRIPOS>BOND
     1    1    2 ar   
     2    1    3 ar   
     3    1    4 ar   
     4    1    8 1    
     5    5    6 ar   
     6    5    7 ar   
     7    5    8 1    
     8    5    9 1    
     9    9   10 1    
    10   10   11 1    
    11   11   12 1    
    12   11   13 1    
    13   12   17 1    
    14   13   14 1    
    15   13   15 1    
    16   15   16 1    
    17   15   17 1    
    18   17   18 1    
    19   18   19 1    
    20   18   27 1    
    21   19   20 2    
    22   20   21 1    
    23   21   22 ar   
    24   21   27 ar   
    25   22   23 1    
    26   22   24 ar   
    27   24   25 ar   
    28   25   26 ar   
    29   26   27 ar   
@<TRIPOS>SUBSTRUCTURE
     1 ADP501      1 GROUP   
@<TRIPOS>SET
ATOM$ORANGE STATIC     ATOMS   COLORGROUP SYSTEM 
20 10 10 11 11 13 13 15 15 17 17 19 19 21 21 22 22 25 \
25 27 27 

