#    Name: 5zlp_11_ADP_CAVITY_N1_6
#    Modification time : Fri May 22 19:30:58 2020

@<TRIPOS>MOLECULE
5zlp_11_ADP_CAVITY_N1_6
  121     0     7     0     0
SMALL
NO_CHARGES


@<TRIPOS>ATOM
      1 OG        -13.8400  -49.9500   19.3700 O.3       1 SER1        0.0000 
      2 OG         -9.9200  -46.0600   21.7000 O.3       1 SER1        0.0000 
      3 OG         -3.2200  -45.3700   17.0000 O.3       1 SER1        0.0000 
      4 OG         -2.1800  -45.8300   16.0200 O.3       1 SER1        0.0000 
      5 N         -15.9900  -52.0900   22.7000 N.am      2 ALA2        0.0000 
      6 N         -15.4000  -51.5100   20.7500 N.am      2 ALA2        0.0000 
      7 N         -15.0100  -51.1200   23.2800 N.am      2 ALA2        0.0000 
      8 N         -14.4200  -50.5400   21.3300 N.am      2 ALA2        0.0000 
      9 N         -13.9700  -51.5800   22.3100 N.am      2 ALA2        0.0000 
     10 N          -4.5400  -48.1700   12.3200 N.am      2 ALA2        0.0000 
     11 N         -10.8300  -43.9700   19.7500 N.am      2 ALA2        0.0000 
     12 N          -9.7900  -44.4300   18.7700 N.am      2 ALA2        0.0000 
     13 O          -9.2100  -43.8500   16.8200 O.2       2 ALA2        0.0000 
     14 N          -3.1600  -46.8000   15.4400 N.am      2 ALA2        0.0000 
     15 N          -2.5800  -46.2200   13.4800 N.am      2 ALA2        0.0000 
     16 N          -3.2800  -43.9300   18.5600 N.am      2 ALA2        0.0000 
     17 OD1       -13.5700  -51.1900   24.8400 O.co2     3 ASP3        0.0000 
     18 OD1       -12.5300  -51.6500   23.8600 O.co2     3 ASP3        0.0000 
     19 OD1       -11.4900  -52.1100   22.8900 O.co2     3 ASP3        0.0000 
     20 OD1       -10.4500  -52.5700   21.9100 O.co2     3 ASP3        0.0000 
     21 OD1       -10.3200  -50.9400   18.9800 O.co2     3 ASP3        0.0000 
     22 OD1        -9.8700  -51.9900   19.9500 O.co2     3 ASP3        0.0000 
     23 OD1       -11.5500  -50.6700   24.4500 O.co2     3 ASP3        0.0000 
     24 OD1       -10.5100  -51.1300   23.4700 O.co2     3 ASP3        0.0000 
     25 OD1       -10.3800  -49.5100   20.5400 O.co2     3 ASP3        0.0000 
     26 OD1        -9.9300  -50.5500   21.5100 O.co2     3 ASP3        0.0000 
     27 OD1        -9.4700  -51.6000   22.4900 O.co2     3 ASP3        0.0000 
     28 OD1        -9.8000  -48.9300   18.5800 O.co2     3 ASP3        0.0000 
     29 OD1        -8.7600  -49.3900   17.6000 O.co2     3 ASP3        0.0000 
     30 OD1        -9.0900  -46.7200   13.7000 O.co2     3 ASP3        0.0000 
     31 OD1        -7.7200  -49.8500   16.6300 O.co2     3 ASP3        0.0000 
     32 OD1        -9.8600  -47.4900   20.1400 O.co2     3 ASP3        0.0000 
     33 OD1        -9.4000  -48.5300   21.1200 O.co2     3 ASP3        0.0000 
     34 OD1        -8.9500  -49.5800   22.1000 O.co2     3 ASP3        0.0000 
     35 OD1        -8.8200  -47.9500   19.1600 O.co2     3 ASP3        0.0000 
     36 OD1        -8.2400  -47.3700   17.2100 O.co2     3 ASP3        0.0000 
     37 OD1        -7.7800  -48.4100   18.1900 O.co2     3 ASP3        0.0000 
     38 OD1        -8.1100  -45.7400   14.2800 O.co2     3 ASP3        0.0000 
     39 OD1        -6.7400  -48.8700   17.2100 O.co2     3 ASP3        0.0000 
     40 OD1        -7.8400  -46.9800   19.7500 O.co2     3 ASP3        0.0000 
     41 OD1        -7.2600  -46.4000   17.7900 O.co2     3 ASP3        0.0000 
     42 OD1        -6.2200  -46.8600   16.8100 O.co2     3 ASP3        0.0000 
     43 OD1        -6.2800  -45.4200   18.3800 O.co2     3 ASP3        0.0000 
     44 NZ        -12.0000  -49.6300   23.4700 N.4       4 LYS4        0.0000 
     45 NZ        -11.4200  -49.0500   21.5200 N.4       4 LYS4        0.0000 
     46 NZ        -10.9000  -47.0300   21.1200 N.4       4 LYS4        0.0000 
     47 NZ        -10.4400  -48.0700   22.1000 N.4       4 LYS4        0.0000 
     48 CZ        -12.8600  -48.9800   19.9600 C.ar      5 PHE5        0.0000 
     49 CZ        -11.8200  -49.4400   18.9800 C.ar      5 PHE5        0.0000 
     50 CZ        -11.6900  -47.8100   16.0500 C.ar      5 PHE5        0.0000 
     51 CZ        -11.2400  -48.8600   17.0200 C.ar      5 PHE5        0.0000 
     52 CZ        -11.1100  -47.2300   14.0900 C.ar      5 PHE5        0.0000 
     53 CZ        -11.8800  -48.0100   20.5400 C.ar      5 PHE5        0.0000 
     54 CZ        -10.8400  -48.4700   19.5600 C.ar      5 PHE5        0.0000 
     55 CZ        -10.7100  -46.8400   16.6300 C.ar      5 PHE5        0.0000 
     56 CZ        -10.2600  -47.8800   17.6100 C.ar      5 PHE5        0.0000 
     57 CZ        -10.1300  -46.2600   14.6800 C.ar      5 PHE5        0.0000 
     58 CZ         -9.6700  -47.3000   15.6500 C.ar      5 PHE5        0.0000 
     59 CZ        -11.3600  -45.9900   20.1500 C.ar      5 PHE5        0.0000 
     60 CZ         -9.9900  -49.1200   23.0700 C.ar      5 PHE5        0.0000 
     61 CZ        -10.3200  -46.4500   19.1700 C.ar      5 PHE5        0.0000 
     62 CZ        -10.1900  -44.8200   16.2400 C.ar      5 PHE5        0.0000 
     63 CZ         -9.7300  -45.8700   17.2100 C.ar      5 PHE5        0.0000 
     64 CZ         -9.2800  -46.9100   18.1900 C.ar      5 PHE5        0.0000 
     65 CZ         -9.1500  -45.2800   15.2600 C.ar      5 PHE5        0.0000 
     66 CZ         -7.6500  -46.7900   15.2600 C.ar      5 PHE5        0.0000 
     67 CZ         -6.6200  -47.2500   14.2800 C.ar      5 PHE5        0.0000 
     68 CZ         -5.5800  -47.7100   13.3000 C.ar      5 PHE5        0.0000 
     69 CZ         -9.3400  -45.4700   19.7500 C.ar      5 PHE5        0.0000 
     70 CZ         -8.8800  -46.5200   20.7300 C.ar      5 PHE5        0.0000 
     71 CZ         -7.7100  -45.3500   16.8200 C.ar      5 PHE5        0.0000 
     72 CZ         -6.6700  -45.8100   15.8400 C.ar      5 PHE5        0.0000 
     73 CZ         -5.6300  -46.2700   14.8600 C.ar      5 PHE5        0.0000 
     74 CZ         -4.6000  -46.7300   13.8800 C.ar      5 PHE5        0.0000 
     75 CZ         -4.0100  -46.1500   11.9300 C.ar      5 PHE5        0.0000 
     76 CZ         -8.3600  -44.5000   20.3300 C.ar      5 PHE5        0.0000 
     77 CZ         -6.7300  -44.3800   17.4000 C.ar      5 PHE5        0.0000 
     78 CZ         -3.6200  -45.7600   14.4600 C.ar      5 PHE5        0.0000 
     79 CZ         -4.7100  -43.8600   17.0000 C.ar      5 PHE5        0.0000 
     80 CZ         -3.6700  -44.3200   16.0200 C.ar      5 PHE5        0.0000 
     81 CZ         -2.6300  -44.7900   15.0500 C.ar      5 PHE5        0.0000 
     82 CA        -16.4400  -51.0500   21.7200 C.3       6 GLY6        0.0000 
     83 CA        -14.5500  -52.1600   24.2600 C.3       6 GLY6        0.0000 
     84 CA        -13.5100  -52.6200   23.2800 C.3       6 GLY6        0.0000 
     85 CA        -13.3800  -51.0000   20.3500 C.3       6 GLY6        0.0000 
     86 CA        -12.9300  -52.0400   21.3300 C.3       6 GLY6        0.0000 
     87 CA        -12.4700  -53.0800   22.3000 C.3       6 GLY6        0.0000 
     88 CA        -12.8000  -50.4100   18.4000 C.3       6 GLY6        0.0000 
     89 CA        -11.3000  -51.9200   18.3900 C.3       6 GLY6        0.0000 
     90 CA        -11.3600  -50.4800   19.9500 C.3       6 GLY6        0.0000 
     91 CA        -10.9100  -51.5300   20.9300 C.3       6 GLY6        0.0000 
     92 CA         -9.4100  -53.0300   20.9300 C.3       6 GLY6        0.0000 
     93 CA         -8.4300  -52.0600   21.5100 C.3       6 GLY6        0.0000 
     94 CA         -6.1000  -49.7300   13.6900 C.3       6 GLY6        0.0000 
     95 CA         -6.1600  -48.2900   15.2500 C.3       6 GLY6        0.0000 
     96 CA         -5.1200  -48.7500   14.2700 C.3       6 GLY6        0.0000 
     97 CA        -10.3700  -45.0100   20.7300 C.3       6 GLY6        0.0000 
     98 CA         -5.1800  -47.3200   15.8400 C.3       6 GLY6        0.0000 
     99 CA         -4.7200  -48.3600   16.8100 C.3       6 GLY6        0.0000 
    100 CA         -4.1400  -47.7800   14.8600 C.3       6 GLY6        0.0000 
    101 CA         -8.8100  -43.4600   19.3600 C.3       6 GLY6        0.0000 
    102 CA         -7.7700  -43.9200   18.3800 C.3       6 GLY6        0.0000 
    103 CA         -7.3200  -44.9600   19.3500 C.3       6 GLY6        0.0000 
    104 CA         -5.2400  -45.8800   17.4000 C.3       6 GLY6        0.0000 
    105 CA         -4.2000  -46.3400   16.4200 C.3       6 GLY6        0.0000 
    106 CA         -5.3000  -44.4500   18.9600 C.3       6 GLY6        0.0000 
    107 CA         -4.2600  -44.9100   17.9800 C.3       6 GLY6        0.0000 
    108 DU        -12.9900  -50.6100   22.8900 H         7 CUB7        0.0000 
    109 DU        -12.4000  -50.0200   20.9300 H         7 CUB7        0.0000 
    110 DU        -11.9500  -51.0700   21.9100 H         7 CUB7        0.0000 
    111 DU        -10.7800  -49.9000   18.0000 H         7 CUB7        0.0000 
    112 DU        -10.6500  -48.2700   15.0700 H         7 CUB7        0.0000 
    113 DU        -10.2000  -49.3200   16.0400 H         7 CUB7        0.0000 
    114 DU        -10.9700  -50.0900   22.4900 H         7 CUB7        0.0000 
    115 DU         -9.2200  -48.3400   16.6300 H         7 CUB7        0.0000 
    116 DU         -8.6400  -47.7600   14.6700 H         7 CUB7        0.0000 
    117 DU         -8.1800  -48.8000   15.6500 H         7 CUB7        0.0000 
    118 DU         -8.6900  -46.3300   16.2300 H         7 CUB7        0.0000 
    119 DU         -7.2000  -47.8300   16.2300 H         7 CUB7        0.0000 
    120 DU         -8.7500  -44.8900   17.8000 H         7 CUB7        0.0000 
    121 DU         -8.3000  -45.9300   18.7700 H         7 CUB7        0.0000 
@<TRIPOS>BOND
@<TRIPOS>SUBSTRUCTURE
     1 SER1        1 GROUP   
     2 ALA2        5 GROUP   
     3 ASP3       17 GROUP   
     4 LYS4       44 GROUP   
     5 PHE5       48 GROUP   
     6 GLY6       82 GROUP   
     7 CUB7      108 GROUP   
@<TRIPOS>SET

