#    Name: 5zlp_7_ATP
#    Modification time : Fri May 22 19:29:59 2020

@<TRIPOS>MOLECULE
5zlp_7_ATP
   31    33     1     0     1
SMALL
NO_CHARGES


@<TRIPOS>ATOM
      1 PG        -65.6190  -69.4610   77.0790 P.3       1 ATP501      0.0000 
      2 O1G       -65.3970  -68.4390   75.9340 O.co2     1 ATP501      0.0000 
      3 O2G       -65.2340  -68.8860   78.4440 O.co2     1 ATP501      0.0000 
      4 O3G       -65.0750  -70.8940   76.9040 O.co2     1 ATP501      0.0000 
      5 PB        -68.3030  -70.4600   78.1300 P.3       1 ATP501      0.0000 
      6 O1B       -69.4970  -70.8820   77.2700 O.co2     1 ATP501      0.0000 
      7 O2B       -67.5980  -71.5650   78.9150 O.co2     1 ATP501      0.0000 
      8 O3B       -67.2630  -69.7000   77.0710 O.3       1 ATP501      0.0000 
      9 PA        -68.7830  -69.0480   80.9050 P.3       1 ATP501      0.0000 
     10 O1A       -67.6020  -68.1780   81.3760 O.co2     1 ATP501      0.0000 
     11 O2A       -69.0510  -70.3890   81.6100 O.co2     1 ATP501      0.0000 
     12 O3A       -68.7640  -69.2980   79.2470 O.3       1 ATP501      0.0000 
     13 O5'       -70.1060  -68.1740   81.1390 O.3       1 ATP501      0.0000 
     14 C5'       -71.3250  -68.8870   81.1140 C.3       1 ATP501      0.0000 
     15 C4'       -72.4670  -67.8910   81.2000 C.3       1 ATP501      0.0000 
     16 O4'       -73.6170  -68.6580   81.6050 O.3       1 ATP501      0.0000 
     17 C3'       -72.2190  -66.8120   82.2670 C.3       1 ATP501      0.0000 
     18 O3'       -72.9420  -65.5820   82.0080 O.3       1 ATP501      0.0000 
     19 C2'       -72.6830  -67.5980   83.4860 C.3       1 ATP501      0.0000 
     20 O2'       -72.8740  -66.8910   84.7250 O.3       1 ATP501      0.0000 
     21 C1'       -73.9480  -68.2760   82.9560 C.3       1 ATP501      0.0000 
     22 N9        -74.3260  -69.4220   83.8130 N.pl3     1 ATP501      0.0000 
     23 C8        -73.5460  -70.2070   84.6060 C.2       1 ATP501      0.0000 
     24 N7        -74.2970  -71.1710   85.2180 N.2       1 ATP501      0.0000 
     25 C5        -75.5600  -71.0210   84.8190 C.ar      1 ATP501      0.0000 
     26 C6        -76.8350  -71.7050   85.0820 C.ar      1 ATP501      0.0000 
     27 N6        -76.9630  -72.7690   85.9070 N.pl3     1 ATP501      0.0000 
     28 N1        -77.9150  -71.2100   84.4460 N.ar      1 ATP501      0.0000 
     29 C2        -77.8410  -70.1430   83.6130 C.ar      1 ATP501      0.0000 
     30 N3        -76.7040  -69.4650   83.3230 N.ar      1 ATP501      0.0000 
     31 C4        -75.5600  -69.8690   83.8930 C.ar      1 ATP501      0.0000 
@<TRIPOS>BOND
     1    1    2 ar   
     2    1    3 ar   
     3    1    4 ar   
     4    1    8 1    
     5    5    6 ar   
     6    5    7 ar   
     7    5    8 1    
     8    5   12 1    
     9    9   10 ar   
    10    9   11 ar   
    11    9   12 1    
    12    9   13 1    
    13   13   14 1    
    14   14   15 1    
    15   15   16 1    
    16   15   17 1    
    17   16   21 1    
    18   17   18 1    
    19   17   19 1    
    20   19   20 1    
    21   19   21 1    
    22   21   22 1    
    23   22   23 1    
    24   22   31 1    
    25   23   24 2    
    26   24   25 1    
    27   25   26 ar   
    28   25   31 ar   
    29   26   27 1    
    30   26   28 ar   
    31   28   29 ar   
    32   29   30 ar   
    33   30   31 ar   
@<TRIPOS>SUBSTRUCTURE
     1 ATP501      1 GROUP   
@<TRIPOS>SET
ATOM$ORANGE STATIC     ATOMS   COLORGROUP SYSTEM 
20 14 14 15 15 17 17 19 19 21 21 23 23 25 25 26 26 29 \
29 31 31 

