#    Name: 5zlp_4_ATP_CAVITY_N1_4
#    Modification time : Fri May 22 19:29:30 2020

@<TRIPOS>MOLECULE
5zlp_4_ATP_CAVITY_N1_4
  155     0     7     0     0
SMALL
NO_CHARGES


@<TRIPOS>ATOM
      1 OG        -39.4600   15.7300   76.2100 O.3       1 SER1        0.0000 
      2 OG        -38.4800   16.7100   76.7900 O.3       1 SER1        0.0000 
      3 OG        -38.0200   15.6700   77.7700 O.3       1 SER1        0.0000 
      4 OG        -37.5600   14.6200   78.7400 O.3       1 SER1        0.0000 
      5 OG        -36.9800   15.2100   76.7900 O.3       1 SER1        0.0000 
      6 OG        -38.6600   16.5200   81.2800 O.3       1 SER1        0.0000 
      7 OG        -37.2300   16.4500   82.8400 O.3       1 SER1        0.0000 
      8 OG        -37.2800   17.8800   84.4000 O.3       1 SER1        0.0000 
      9 OG        -36.8300   16.8400   85.3800 O.3       1 SER1        0.0000 
     10 OG        -36.2400   17.4200   83.4200 O.3       1 SER1        0.0000 
     11 OG        -31.1100   16.5600   80.0900 O.3       1 SER1        0.0000 
     12 OG        -25.2900   19.3400   84.9600 O.3       1 SER1        0.0000 
     13 OG        -25.3500   20.7800   86.5200 O.3       1 SER1        0.0000 
     14 N         -39.0600   16.1300   78.7400 N.am      2 ALA2        0.0000 
     15 O         -38.9300   17.7500   75.8100 O.2       2 ALA2        0.0000 
     16 N         -38.5400   18.1400   78.3500 N.am      2 ALA2        0.0000 
     17 N         -38.0800   17.1000   79.3300 N.am      2 ALA2        0.0000 
     18 N         -30.1900   14.4700   82.0400 N.am      2 ALA2        0.0000 
     19 N         -29.6100   15.0500   80.0900 N.am      2 ALA2        0.0000 
     20 O         -35.6500   22.5000   81.6600 O.2       2 ALA2        0.0000 
     21 O         -29.8000   14.8600   84.5800 O.2       2 ALA2        0.0000 
     22 O         -28.7600   14.4000   83.6000 O.2       2 ALA2        0.0000 
     23 N         -34.8000   21.8500   85.1700 N.am      2 ALA2        0.0000 
     24 N         -34.2200   22.4300   83.2200 N.am      2 ALA2        0.0000 
     25 N         -28.8100   20.3300   85.3600 N.am      2 ALA2        0.0000 
     26 N         -25.2300   17.9100   83.4000 N.am      2 ALA2        0.0000 
     27 N         -28.4100   20.7200   87.8900 N.am      2 ALA2        0.0000 
     28 N         -27.3700   20.2600   86.9100 N.am      2 ALA2        0.0000 
     29 N         -26.3300   19.8000   85.9400 N.am      2 ALA2        0.0000 
     30 N         -25.9300   20.1900   88.4700 N.am      2 ALA2        0.0000 
     31 OD1       -37.4400   16.2500   75.8100 O.co2     3 ASP3        0.0000 
     32 OD1       -36.4000   15.7900   74.8300 O.co2     3 ASP3        0.0000 
     33 OD1       -37.9500   18.7300   76.4000 O.co2     3 ASP3        0.0000 
     34 OD1       -36.4600   17.2200   76.3900 O.co2     3 ASP3        0.0000 
     35 OD1       -35.4200   16.7600   75.4100 O.co2     3 ASP3        0.0000 
     36 OD1       -36.9700   19.7000   76.9800 O.co2     3 ASP3        0.0000 
     37 OD1       -36.5200   18.6600   77.9500 O.co2     3 ASP3        0.0000 
     38 OD1       -35.4800   18.2000   76.9800 O.co2     3 ASP3        0.0000 
     39 OD1       -37.0300   21.1400   78.5400 O.co2     3 ASP3        0.0000 
     40 OD1       -35.5400   19.6300   78.5400 O.co2     3 ASP3        0.0000 
     41 OD1       -34.5000   19.1700   77.5600 O.co2     3 ASP3        0.0000 
     42 OD1       -35.6000   21.0700   80.1000 O.co2     3 ASP3        0.0000 
     43 OD1       -35.1400   20.0200   81.0700 O.co2     3 ASP3        0.0000 
     44 OD1       -34.6800   18.9800   82.0500 O.co2     3 ASP3        0.0000 
     45 OD1       -34.2300   17.9400   83.0300 O.co2     3 ASP3        0.0000 
     46 OD1       -34.5600   20.6100   79.1200 O.co2     3 ASP3        0.0000 
     47 OD1       -34.1000   19.5600   80.1000 O.co2     3 ASP3        0.0000 
     48 OD1       -33.6400   18.5200   81.0700 O.co2     3 ASP3        0.0000 
     49 OD1       -33.1900   17.4800   82.0500 O.co2     3 ASP3        0.0000 
     50 OD1       -32.6000   18.0600   80.0900 O.co2     3 ASP3        0.0000 
     51 OD1       -32.1500   17.0200   81.0700 O.co2     3 ASP3        0.0000 
     52 OD1       -35.2000   21.4600   82.6400 O.co2     3 ASP3        0.0000 
     53 OD1       -34.7400   20.4200   83.6100 O.co2     3 ASP3        0.0000 
     54 OD1       -33.2400   18.9100   83.6100 O.co2     3 ASP3        0.0000 
     55 OD1       -31.7500   17.4100   83.6100 O.co2     3 ASP3        0.0000 
     56 OD1       -31.1700   17.9900   81.6500 O.co2     3 ASP3        0.0000 
     57 OD1       -30.7100   16.9500   82.6300 O.co2     3 ASP3        0.0000 
     58 OD1       -33.7600   21.3900   84.1900 O.co2     3 ASP3        0.0000 
     59 OD1       -33.3000   20.3500   85.1700 O.co2     3 ASP3        0.0000 
     60 OD1       -32.2600   19.8900   84.1900 O.co2     3 ASP3        0.0000 
     61 OD1       -30.7700   18.3800   84.1900 O.co2     3 ASP3        0.0000 
     62 OD1       -29.7300   17.9200   83.2100 O.co2     3 ASP3        0.0000 
     63 OD1       -31.2800   20.8600   84.7700 O.co2     3 ASP3        0.0000 
     64 OD1       -29.7900   19.3600   84.7700 O.co2     3 ASP3        0.0000 
     65 OD1       -28.7500   18.9000   83.7900 O.co2     3 ASP3        0.0000 
     66 NZ        -36.5200   14.1600   77.7600 N.4       4 LYS4        0.0000 
     67 NZ        -35.9400   14.7400   75.8100 N.4       4 LYS4        0.0000 
     68 NZ        -36.5800   15.6000   79.3200 N.4       4 LYS4        0.0000 
     69 NZ        -36.1300   14.5500   80.3000 N.4       4 LYS4        0.0000 
     70 NZ        -36.0000   16.1800   77.3700 N.4       4 LYS4        0.0000 
     71 NZ        -34.9600   15.7200   76.3900 N.4       4 LYS4        0.0000 
     72 NZ        -36.0600   17.6100   78.9300 N.4       4 LYS4        0.0000 
     73 NZ        -35.6000   16.5700   79.9100 N.4       4 LYS4        0.0000 
     74 NZ        -35.1500   15.5300   80.8800 N.4       4 LYS4        0.0000 
     75 NZ        -35.0200   17.1500   77.9500 N.4       4 LYS4        0.0000 
     76 NZ        -33.6500   14.0200   80.8800 N.4       4 LYS4        0.0000 
     77 NZ        -34.4400   17.7400   76.0000 N.4       4 LYS4        0.0000 
     78 NZ        -34.6200   17.5500   80.4900 N.4       4 LYS4        0.0000 
     79 NZ        -34.1700   16.5000   81.4700 N.4       4 LYS4        0.0000 
     80 NZ        -34.0400   18.1300   78.5300 N.4       4 LYS4        0.0000 
     81 NZ        -33.1300   16.0400   80.4900 N.4       4 LYS4        0.0000 
     82 NZ        -31.6300   14.5400   80.4900 N.4       4 LYS4        0.0000 
     83 NZ        -30.6500   15.5100   81.0700 N.4       4 LYS4        0.0000 
     84 CZ        -38.4200   15.2700   75.2300 C.ar      5 PHE5        0.0000 
     85 CZ        -36.7700   15.4100   83.8200 C.ar      5 PHE5        0.0000 
     86 CZ        -36.1900   15.9900   81.8600 C.ar      5 PHE5        0.0000 
     87 CZ        -36.3700   15.8000   86.3500 C.ar      5 PHE5        0.0000 
     88 CZ        -35.7900   16.3800   84.4000 C.ar      5 PHE5        0.0000 
     89 CZ        -35.2100   16.9600   82.4400 C.ar      5 PHE5        0.0000 
     90 CZ        -33.7100   15.4600   82.4400 C.ar      5 PHE5        0.0000 
     91 CZ        -32.6700   15.0000   81.4600 C.ar      5 PHE5        0.0000 
     92 CZ        -34.8100   17.3500   84.9800 C.ar      5 PHE5        0.0000 
     93 CZ        -34.3500   16.3100   85.9600 C.ar      5 PHE5        0.0000 
     94 CZ        -33.7700   16.8900   84.0000 C.ar      5 PHE5        0.0000 
     95 CZ        -32.7300   16.4300   83.0200 C.ar      5 PHE5        0.0000 
     96 CZ        -33.0600   19.1000   79.1200 C.ar      5 PHE5        0.0000 
     97 CZ        -31.6900   15.9700   82.0500 C.ar      5 PHE5        0.0000 
     98 CZ        -31.2300   14.9300   83.0200 C.ar      5 PHE5        0.0000 
     99 CZ        -32.3300   16.8300   85.5600 C.ar      5 PHE5        0.0000 
    100 CZ        -31.8700   15.7800   86.5400 C.ar      5 PHE5        0.0000 
    101 CZ        -31.2900   16.3600   84.5800 C.ar      5 PHE5        0.0000 
    102 CZ        -30.8400   15.3200   85.5600 C.ar      5 PHE5        0.0000 
    103 CZ        -30.2500   15.9000   83.6100 C.ar      5 PHE5        0.0000 
    104 CZ        -29.6700   16.4900   81.6500 C.ar      5 PHE5        0.0000 
    105 CZ        -28.6300   16.0300   80.6700 C.ar      5 PHE5        0.0000 
    106 CZ        -30.3100   17.3400   85.1700 C.ar      5 PHE5        0.0000 
    107 CZ        -29.2700   16.8800   84.1900 C.ar      5 PHE5        0.0000 
    108 CZ        -29.3300   18.3100   85.7500 C.ar      5 PHE5        0.0000 
    109 CZ        -28.2900   17.8500   84.7700 C.ar      5 PHE5        0.0000 
    110 CZ        -28.3500   19.2900   86.3300 C.ar      5 PHE5        0.0000 
    111 CZ        -27.3100   18.8300   85.3500 C.ar      5 PHE5        0.0000 
    112 CZ        -26.2700   18.3700   84.3700 C.ar      5 PHE5        0.0000 
    113 CZ        -25.8700   18.7600   86.9100 C.ar      5 PHE5        0.0000 
    114 CZ        -24.8300   18.3000   85.9300 C.ar      5 PHE5        0.0000 
    115 CA        -39.5200   17.1700   77.7700 C.3       6 GLY6        0.0000 
    116 CA        -38.9900   19.1900   77.3700 C.3       6 GLY6        0.0000 
    117 CA        -37.1700   15.0100   81.2800 C.3       6 GLY6        0.0000 
    118 CA        -37.6800   17.4900   81.8600 C.3       6 GLY6        0.0000 
    119 CA        -38.0100   20.1600   77.9600 C.3       6 GLY6        0.0000 
    120 CA        -37.5600   19.1200   78.9300 C.3       6 GLY6        0.0000 
    121 CA        -37.1000   18.0800   79.9100 C.3       6 GLY6        0.0000 
    122 CA        -36.6400   17.0300   80.8900 C.3       6 GLY6        0.0000 
    123 CA        -36.7000   18.4700   82.4500 C.3       6 GLY6        0.0000 
    124 CA        -36.5800   20.0900   79.5200 C.3       6 GLY6        0.0000 
    125 CA        -36.1200   19.0500   80.4900 C.3       6 GLY6        0.0000 
    126 CA        -35.6600   18.0100   81.4700 C.3       6 GLY6        0.0000 
    127 CA        -31.1700   13.4900   81.4600 C.3       6 GLY6        0.0000 
    128 CA        -36.7600   19.9000   84.0100 C.3       6 GLY6        0.0000 
    129 CA        -35.8500   17.8200   85.9600 C.3       6 GLY6        0.0000 
    130 CA        -37.0900   22.5700   80.1000 C.3       6 GLY6        0.0000 
    131 CA        -36.6300   21.5300   81.0800 C.3       6 GLY6        0.0000 
    132 CA        -29.1500   14.0100   81.0700 C.3       6 GLY6        0.0000 
    133 CA        -36.2400   21.9200   83.6100 C.3       6 GLY6        0.0000 
    134 CA        -29.2100   15.4400   82.6300 C.3       6 GLY6        0.0000 
    135 CA        -28.6900   17.4600   82.2300 C.3       6 GLY6        0.0000 
    136 CA        -28.2300   16.4200   83.2100 C.3       6 GLY6        0.0000 
    137 CA        -30.8300   19.8200   85.7500 C.3       6 GLY6        0.0000 
    138 CA        -27.7100   18.4400   82.8200 C.3       6 GLY6        0.0000 
    139 CA        -27.2500   17.3900   83.7900 C.3       6 GLY6        0.0000 
    140 DU        -37.6200   16.0600   80.3000 H         7 CUB7        0.0000 
    141 DU        -37.5000   17.6800   77.3700 H         7 CUB7        0.0000 
    142 DU        -37.0400   16.6400   78.3500 H         7 CUB7        0.0000 
    143 DU        -35.0800   18.5900   79.5100 H         7 CUB7        0.0000 
    144 DU        -36.3000   18.8600   84.9800 H         7 CUB7        0.0000 
    145 DU        -35.2600   18.4000   84.0100 H         7 CUB7        0.0000 
    146 DU        -35.7800   20.8800   84.5900 H         7 CUB7        0.0000 
    147 DU        -35.3200   19.8300   85.5700 H         7 CUB7        0.0000 
    148 DU        -34.2800   19.3700   84.5900 H         7 CUB7        0.0000 
    149 DU        -33.8300   18.3300   85.5600 H         7 CUB7        0.0000 
    150 DU        -33.3700   17.2900   86.5400 H         7 CUB7        0.0000 
    151 DU        -32.7900   17.8700   84.5900 H         7 CUB7        0.0000 
    152 DU        -34.3400   20.8100   86.1500 H         7 CUB7        0.0000 
    153 DU        -32.8500   19.3000   86.1500 H         7 CUB7        0.0000 
    154 DU        -31.8100   18.8400   85.1700 H         7 CUB7        0.0000 
    155 DU        -31.3500   17.8000   86.1400 H         7 CUB7        0.0000 
@<TRIPOS>BOND
@<TRIPOS>SUBSTRUCTURE
     1 SER1        1 GROUP   
     2 ALA2       14 GROUP   
     3 ASP3       31 GROUP   
     4 LYS4       66 GROUP   
     5 PHE5       84 GROUP   
     6 GLY6      115 GROUP   
     7 CUB7      140 GROUP   
@<TRIPOS>SET

