#    Name: 5zlp_2_ATP
#    Modification time : Fri May 22 19:28:59 2020

@<TRIPOS>MOLECULE
5zlp_2_ATP
   31    33     1     0     1
SMALL
NO_CHARGES


@<TRIPOS>ATOM
      1 PG        -95.0300  -34.4550   77.2380 P.3       1 ATP501      0.0000 
      2 O1G       -96.3470  -34.2040   76.4610 O.co2     1 ATP501      0.0000 
      3 O2G       -94.1620  -35.6700   76.8330 O.co2     1 ATP501      0.0000 
      4 O3G       -94.2080  -33.1730   77.3860 O.co2     1 ATP501      0.0000 
      5 PB        -95.7180  -34.0250   80.1610 P.3       1 ATP501      0.0000 
      6 O1B       -94.9150  -32.7300   80.1110 O.co2     1 ATP501      0.0000 
      7 O2B       -95.3650  -35.0340   81.2540 O.co2     1 ATP501      0.0000 
      8 O3B       -95.4810  -34.8940   78.7700 O.3       1 ATP501      0.0000 
      9 PA        -98.5830  -32.9000   81.1000 P.3       1 ATP501      0.0000 
     10 O1A       -99.9420  -33.1970   80.4580 O.co2     1 ATP501      0.0000 
     11 O2A       -98.4570  -33.0640   82.6270 O.co2     1 ATP501      0.0000 
     12 O3A       -97.3520  -33.6130   80.1810 O.3       1 ATP501      0.0000 
     13 O5'       -98.3990  -31.3270   80.8830 O.3       1 ATP501      0.0000 
     14 C5'       -97.9350  -30.6090   81.9990 C.3       1 ATP501      0.0000 
     15 C4'       -97.7420  -29.1880   81.5310 C.3       1 ATP501      0.0000 
     16 O4'       -99.0470  -28.5860   81.6240 O.3       1 ATP501      0.0000 
     17 C3'       -96.8020  -28.4950   82.5240 C.3       1 ATP501      0.0000 
     18 O3'       -96.2300  -27.2590   82.0280 O.3       1 ATP501      0.0000 
     19 C2'       -97.8220  -28.3230   83.6390 C.3       1 ATP501      0.0000 
     20 O2'       -97.4490  -27.5310   84.7930 O.3       1 ATP501      0.0000 
     21 C1'       -99.0700  -27.8530   82.8690 C.3       1 ATP501      0.0000 
     22 N9       -100.2470  -28.0200   83.7640 N.pl3     1 ATP501      0.0000 
     23 C8       -100.4680  -28.9660   84.7320 C.2       1 ATP501      0.0000 
     24 N7       -101.6740  -28.7730   85.3480 N.2       1 ATP501      0.0000 
     25 C5       -102.2340  -27.6950   84.7910 C.ar      1 ATP501      0.0000 
     26 C6       -103.4910  -26.9700   84.9900 C.ar      1 ATP501      0.0000 
     27 N6       -104.4300  -27.3220   85.9090 N.pl3     1 ATP501      0.0000 
     28 N1       -103.6710  -25.9080   84.1900 N.ar      1 ATP501      0.0000 
     29 C2       -102.7510  -25.5350   83.2620 C.ar      1 ATP501      0.0000 
     30 N3       -101.5700  -26.1400   83.0120 N.ar      1 ATP501      0.0000 
     31 C4       -101.2880  -27.2130   83.7510 C.ar      1 ATP501      0.0000 
@<TRIPOS>BOND
     1    1    2 ar   
     2    1    3 ar   
     3    1    4 ar   
     4    1    8 1    
     5    5    6 ar   
     6    5    7 ar   
     7    5    8 1    
     8    5   12 1    
     9    9   10 ar   
    10    9   11 ar   
    11    9   12 1    
    12    9   13 1    
    13   13   14 1    
    14   14   15 1    
    15   15   16 1    
    16   15   17 1    
    17   16   21 1    
    18   17   18 1    
    19   17   19 1    
    20   19   20 1    
    21   19   21 1    
    22   21   22 1    
    23   22   23 1    
    24   22   31 1    
    25   23   24 2    
    26   24   25 1    
    27   25   26 ar   
    28   25   31 ar   
    29   26   27 1    
    30   26   28 ar   
    31   28   29 ar   
    32   29   30 ar   
    33   30   31 ar   
@<TRIPOS>SUBSTRUCTURE
     1 ATP501      1 GROUP   
@<TRIPOS>SET
ATOM$ORANGE STATIC     ATOMS   COLORGROUP SYSTEM 
20 14 14 15 15 17 17 19 19 21 21 23 23 25 25 26 26 29 \
29 31 31 

