#    Name: 5zlp_4_ATP
#    Modification time : Fri May 22 19:29:29 2020

@<TRIPOS>MOLECULE
5zlp_4_ATP
   31    33     1     0     1
SMALL
NO_CHARGES


@<TRIPOS>ATOM
      1 PG        -35.3990   17.2010   76.0980 P.3       1 ATP501      0.0000 
      2 O1G       -34.5980   18.4130   75.5890 O.co2     1 ATP501      0.0000 
      3 O2G       -34.7660   15.8990   75.6090 O.co2     1 ATP501      0.0000 
      4 O3G       -36.9070   17.2030   75.7720 O.co2     1 ATP501      0.0000 
      5 PB        -34.5660   18.3760   78.8900 P.3       1 ATP501      0.0000 
      6 O1B       -35.0510   19.7980   78.5940 O.co2     1 ATP501      0.0000 
      7 O2B       -33.0610   18.1720   78.9250 O.co2     1 ATP501      0.0000 
      8 O3B       -35.2770   17.3310   77.7720 O.3       1 ATP501      0.0000 
      9 PA        -34.3890   17.9690   81.9880 P.3       1 ATP501      0.0000 
     10 O1A       -34.2440   19.4090   82.4910 O.co2     1 ATP501      0.0000 
     11 O2A       -35.0380   16.9490   82.9450 O.co2     1 ATP501      0.0000 
     12 O3A       -35.0490   17.9650   80.4420 O.3       1 ATP501      0.0000 
     13 O5'       -32.8690   17.4910   81.7100 O.3       1 ATP501      0.0000 
     14 C5'       -32.5270   16.1140   81.6690 C.3       1 ATP501      0.0000 
     15 C4'       -31.0120   15.9230   81.5450 C.3       1 ATP501      0.0000 
     16 O4'       -30.2950   17.1160   81.9530 O.3       1 ATP501      0.0000 
     17 C3'       -30.5540   14.7730   82.4620 C.3       1 ATP501      0.0000 
     18 O3'       -29.4230   14.0180   81.9500 O.3       1 ATP501      0.0000 
     19 C2'       -30.2100   15.5830   83.6980 C.3       1 ATP501      0.0000 
     20 O2'       -29.5530   14.8750   84.7670 O.3       1 ATP501      0.0000 
     21 C1'       -29.4110   16.7130   83.0320 C.3       1 ATP501      0.0000 
     22 N9        -28.9150   17.7510   83.9970 N.pl3     1 ATP501      0.0000 
     23 C8        -29.5840   18.5030   84.9240 C.2       1 ATP501      0.0000 
     24 N7        -28.7310   19.3430   85.5920 N.2       1 ATP501      0.0000 
     25 C5        -27.4960   19.1490   85.1040 C.ar      1 ATP501      0.0000 
     26 C6        -26.1470   19.7130   85.3520 C.ar      1 ATP501      0.0000 
     27 N6        -25.8400   20.6730   86.2690 N.pl3     1 ATP501      0.0000 
     28 N1        -25.1640   19.2100   84.5930 N.ar      1 ATP501      0.0000 
     29 C2        -25.3830   18.2540   83.6620 C.ar      1 ATP501      0.0000 
     30 N3        -26.5750   17.6920   83.3760 N.ar      1 ATP501      0.0000 
     31 C4        -27.6430   18.1050   84.0620 C.ar      1 ATP501      0.0000 
@<TRIPOS>BOND
     1    1    2 ar   
     2    1    3 ar   
     3    1    4 ar   
     4    1    8 1    
     5    5    6 ar   
     6    5    7 ar   
     7    5    8 1    
     8    5   12 1    
     9    9   10 ar   
    10    9   11 ar   
    11    9   12 1    
    12    9   13 1    
    13   13   14 1    
    14   14   15 1    
    15   15   16 1    
    16   15   17 1    
    17   16   21 1    
    18   17   18 1    
    19   17   19 1    
    20   19   20 1    
    21   19   21 1    
    22   21   22 1    
    23   22   23 1    
    24   22   31 1    
    25   23   24 2    
    26   24   25 1    
    27   25   26 ar   
    28   25   31 ar   
    29   26   27 1    
    30   26   28 ar   
    31   28   29 ar   
    32   29   30 ar   
    33   30   31 ar   
@<TRIPOS>SUBSTRUCTURE
     1 ATP501      1 GROUP   
@<TRIPOS>SET
ATOM$ORANGE STATIC     ATOMS   COLORGROUP SYSTEM 
20 14 14 15 15 17 17 19 19 21 21 23 23 25 25 26 26 29 \
29 31 31 

