#    Name: 5zlp_5_ADP
#    Modification time : Fri May 22 19:29:43 2020

@<TRIPOS>MOLECULE
5zlp_5_ADP
   27    29     1     0     1
SMALL
NO_CHARGES


@<TRIPOS>ATOM
      1 PB         -5.5980  -18.4760   78.0680 P.3       1 ADP501      0.0000 
      2 O1B        -6.2510  -18.9890   76.7560 O.co2     1 ADP501      0.0000 
      3 O2B        -4.0920  -18.7680   78.1120 O.co2     1 ADP501      0.0000 
      4 O3B        -5.9220  -16.9870   78.3130 O.co2     1 ADP501      0.0000 
      5 PA         -5.8270  -19.1760   81.0270 P.3       1 ADP501      0.0000 
      6 O1A        -4.4570  -18.5920   81.3780 O.co2     1 ADP501      0.0000 
      7 O2A        -7.1080  -18.7370   81.7270 O.co2     1 ADP501      0.0000 
      8 O3A        -6.1240  -19.3390   79.4020 O.3       1 ADP501      0.0000 
      9 O5'        -5.5540  -20.6440   81.5460 O.3       1 ADP501      0.0000 
     10 C5'        -4.3560  -21.2410   81.0880 C.3       1 ADP501      0.0000 
     11 C4'        -4.5740  -22.7470   81.0190 C.3       1 ADP501      0.0000 
     12 O4'        -3.3780  -23.2220   81.6330 O.3       1 ADP501      0.0000 
     13 C3'        -5.7800  -23.2730   81.8510 C.3       1 ADP501      0.0000 
     14 O3'        -6.7570  -24.1470   81.1680 O.3       1 ADP501      0.0000 
     15 C2'        -5.1400  -23.8170   83.1550 C.3       1 ADP501      0.0000 
     16 O2'        -5.6900  -25.0590   83.6460 O.3       1 ADP501      0.0000 
     17 C1'        -3.6620  -24.0170   82.7970 C.3       1 ADP501      0.0000 
     18 N9         -2.6810  -23.9210   83.9190 N.pl3     1 ADP501      0.0000 
     19 C8         -2.7610  -23.1220   84.9740 C.2       1 ADP501      0.0000 
     20 N7         -1.6820  -23.3420   85.7720 N.2       1 ADP501      0.0000 
     21 C5         -0.8740  -24.2810   85.2620 C.ar      1 ADP501      0.0000 
     22 C6          0.4330  -24.9710   85.6120 C.ar      1 ADP501      0.0000 
     23 N6          1.1860  -24.7060   86.7580 N.pl3     1 ADP501      0.0000 
     24 N1          0.8650  -25.9320   84.6990 N.ar      1 ADP501      0.0000 
     25 C2          0.2120  -26.2790   83.5500 C.ar      1 ADP501      0.0000 
     26 N3         -0.9630  -25.6460   83.2480 N.ar      1 ADP501      0.0000 
     27 C4         -1.5560  -24.6700   84.0220 C.ar      1 ADP501      0.0000 
@<TRIPOS>BOND
     1    1    2 ar   
     2    1    3 ar   
     3    1    4 ar   
     4    1    8 1    
     5    5    6 ar   
     6    5    7 ar   
     7    5    8 1    
     8    5    9 1    
     9    9   10 1    
    10   10   11 1    
    11   11   12 1    
    12   11   13 1    
    13   12   17 1    
    14   13   14 1    
    15   13   15 1    
    16   15   16 1    
    17   15   17 1    
    18   17   18 1    
    19   18   19 1    
    20   18   27 1    
    21   19   20 2    
    22   20   21 1    
    23   21   22 ar   
    24   21   27 ar   
    25   22   23 1    
    26   22   24 ar   
    27   24   25 ar   
    28   25   26 ar   
    29   26   27 ar   
@<TRIPOS>SUBSTRUCTURE
     1 ADP501      1 GROUP   
@<TRIPOS>SET
ATOM$ORANGE STATIC     ATOMS   COLORGROUP SYSTEM 
20 10 10 11 11 13 13 15 15 17 17 19 19 21 21 22 22 25 \
25 27 27 

