#    Name: 5zlp_12_ATP
#    Modification time : Fri May 22 19:31:11 2020

@<TRIPOS>MOLECULE
5zlp_12_ATP
   31    33     1     0     1
SMALL
NO_CHARGES


@<TRIPOS>ATOM
      1 PG        -11.9470   -4.1860   25.0150 P.3       1 ATP501      0.0000 
      2 O1G       -13.0730   -4.1900   23.9570 O.co2     1 ATP501      0.0000 
      3 O2G       -11.2400   -5.5510   25.2050 O.co2     1 ATP501      0.0000 
      4 O3G       -12.4070   -3.5410   26.3230 O.co2     1 ATP501      0.0000 
      5 PB        -10.1540   -2.9230   22.9370 P.3       1 ATP501      0.0000 
      6 O1B        -9.7960   -4.2640   22.2960 O.co2     1 ATP501      0.0000 
      7 O2B        -9.0700   -1.8400   22.9970 O.co2     1 ATP501      0.0000 
      8 O3B       -10.7690   -3.1510   24.4610 O.3       1 ATP501      0.0000 
      9 PA        -11.8290   -2.3320   20.4180 P.3       1 ATP501      0.0000 
     10 O1A       -10.6210   -1.9290   19.5510 O.co2     1 ATP501      0.0000 
     11 O2A       -12.6160   -3.6060   20.0680 O.co2     1 ATP501      0.0000 
     12 O3A       -11.4270   -2.3550   22.0360 O.3       1 ATP501      0.0000 
     13 O5'       -12.8210   -1.0820   20.3050 O.3       1 ATP501      0.0000 
     14 C5'       -12.1420    0.1380   20.1730 C.3       1 ATP501      0.0000 
     15 C4'       -13.1650    1.2440   20.1450 C.3       1 ATP501      0.0000 
     16 O4'       -12.3970    2.3650   19.6800 O.3       1 ATP501      0.0000 
     17 C3'       -14.2620    0.9820   19.1070 C.3       1 ATP501      0.0000 
     18 O3'       -15.4530    1.7620   19.3300 O.3       1 ATP501      0.0000 
     19 C2'       -13.5220    1.4210   17.8600 C.3       1 ATP501      0.0000 
     20 O2'       -14.2950    1.4350   16.6360 O.3       1 ATP501      0.0000 
     21 C1'       -12.9270    2.7410   18.3950 C.3       1 ATP501      0.0000 
     22 N9        -11.8990    3.3680   17.5190 N.pl3     1 ATP501      0.0000 
     23 C8        -11.0430    2.7810   16.6210 C.2       1 ATP501      0.0000 
     24 N7        -10.2460    3.7190   16.0340 N.2       1 ATP501      0.0000 
     25 C5        -10.5740    4.9050   16.5660 C.ar      1 ATP501      0.0000 
     26 C6        -10.1200    6.2830   16.3860 C.ar      1 ATP501      0.0000 
     27 N6         -9.1410    6.5930   15.5120 N.pl3     1 ATP501      0.0000 
     28 N1        -10.7270    7.2300   17.1330 N.ar      1 ATP501      0.0000 
     29 C2        -11.7090    6.9340   18.0210 C.ar      1 ATP501      0.0000 
     30 N3        -12.1800    5.6900   18.2400 N.ar      1 ATP501      0.0000 
     31 C4        -11.6510    4.6670   17.5450 C.ar      1 ATP501      0.0000 
@<TRIPOS>BOND
     1    1    2 ar   
     2    1    3 ar   
     3    1    4 ar   
     4    1    8 1    
     5    5    6 ar   
     6    5    7 ar   
     7    5    8 1    
     8    5   12 1    
     9    9   10 ar   
    10    9   11 ar   
    11    9   12 1    
    12    9   13 1    
    13   13   14 1    
    14   14   15 1    
    15   15   16 1    
    16   15   17 1    
    17   16   21 1    
    18   17   18 1    
    19   17   19 1    
    20   19   20 1    
    21   19   21 1    
    22   21   22 1    
    23   22   23 1    
    24   22   31 1    
    25   23   24 2    
    26   24   25 1    
    27   25   26 ar   
    28   25   31 ar   
    29   26   27 1    
    30   26   28 ar   
    31   28   29 ar   
    32   29   30 ar   
    33   30   31 ar   
@<TRIPOS>SUBSTRUCTURE
     1 ATP501      1 GROUP   
@<TRIPOS>SET
ATOM$ORANGE STATIC     ATOMS   COLORGROUP SYSTEM 
20 14 14 15 15 17 17 19 19 21 21 23 23 25 25 26 26 29 \
29 31 31 

