#    Name: 5zlp_10_ADP_CAVITY_N1_12
#    Modification time : Fri May 22 19:30:43 2020

@<TRIPOS>MOLECULE
5zlp_10_ADP_CAVITY_N1_12
   77     0     7     0     0
SMALL
NO_CHARGES


@<TRIPOS>ATOM
      1 OG        -53.3700  -71.3200   17.3400 O.3       1 SER1        0.0000 
      2 OG        -56.6700  -70.1300   24.7700 O.3       1 SER1        0.0000 
      3 OG        -55.6900  -69.1500   25.3500 O.3       1 SER1        0.0000 
      4 OG        -55.2300  -70.1900   26.3300 O.3       1 SER1        0.0000 
      5 OG        -55.1100  -68.5700   23.4000 O.3       1 SER1        0.0000 
      6 OG        -54.6500  -69.6100   24.3700 O.3       1 SER1        0.0000 
      7 OG        -47.9600  -73.4200   19.4800 O.3       1 SER1        0.0000 
      8 N         -55.5700  -72.0200   22.2300 N.am      2 ALA2        0.0000 
      9 N         -56.0900  -69.5400   22.8100 N.am      2 ALA2        0.0000 
     10 N         -55.0500  -70.0000   21.8400 N.am      2 ALA2        0.0000 
     11 OD1       -55.1100  -73.0600   23.2100 O.co2     3 ASP3        0.0000 
     12 OD1       -54.0700  -73.5200   22.2300 O.co2     3 ASP3        0.0000 
     13 OD1       -52.5800  -75.0300   22.2200 O.co2     3 ASP3        0.0000 
     14 OD1       -52.4500  -73.4000   19.2900 O.co2     3 ASP3        0.0000 
     15 OD1       -52.0000  -74.4500   20.2700 O.co2     3 ASP3        0.0000 
     16 OD1       -51.4100  -73.8600   18.3200 O.co2     3 ASP3        0.0000 
     17 OD1       -55.1700  -71.6300   24.7700 O.co2     3 ASP3        0.0000 
     18 OD1       -54.1300  -72.0900   23.7900 O.co2     3 ASP3        0.0000 
     19 OD1       -53.6800  -73.1300   24.7600 O.co2     3 ASP3        0.0000 
     20 OD1       -52.6400  -73.5900   23.7900 O.co2     3 ASP3        0.0000 
     21 OD1       -51.6000  -74.0500   22.8100 O.co2     3 ASP3        0.0000 
     22 OD1       -51.0100  -73.4700   20.8500 O.co2     3 ASP3        0.0000 
     23 OD1       -50.4300  -72.8900   18.9000 O.co2     3 ASP3        0.0000 
     24 OD1       -49.9800  -73.9300   19.8700 O.co2     3 ASP3        0.0000 
     25 OD1       -48.9400  -74.3900   18.9000 O.co2     3 ASP3        0.0000 
     26 OD1       -54.1900  -70.6500   25.3500 O.co2     3 ASP3        0.0000 
     27 OD1       -52.7000  -72.1600   25.3500 O.co2     3 ASP3        0.0000 
     28 OD1       -53.2100  -69.6800   25.9300 O.co2     3 ASP3        0.0000 
     29 NZ        -53.0900  -72.5500   22.8100 N.4       4 LYS4        0.0000 
     30 NZ        -52.0500  -73.0100   21.8300 N.4       4 LYS4        0.0000 
     31 NZ        -53.1500  -71.1200   24.3700 N.4       4 LYS4        0.0000 
     32 NZ        -52.5700  -70.5300   22.4200 N.4       4 LYS4        0.0000 
     33 NZ        -52.1100  -71.5800   23.3900 N.4       4 LYS4        0.0000 
     34 NZ        -51.6600  -72.6200   24.3700 N.4       4 LYS4        0.0000 
     35 NZ        -51.5300  -70.9900   21.4400 N.4       4 LYS4        0.0000 
     36 NZ        -50.4900  -71.4500   20.4600 N.4       4 LYS4        0.0000 
     37 NZ        -50.0300  -72.5000   21.4400 N.4       4 LYS4        0.0000 
     38 NZ        -53.6700  -68.6400   24.9600 N.4       4 LYS4        0.0000 
     39 NZ        -53.0900  -68.0500   23.0000 N.4       4 LYS4        0.0000 
     40 NZ        -52.6300  -69.1000   23.9800 N.4       4 LYS4        0.0000 
     41 NZ        -52.1700  -70.1400   24.9500 N.4       4 LYS4        0.0000 
     42 NZ        -51.7200  -71.1800   25.9300 N.4       4 LYS4        0.0000 
     43 NZ        -51.5900  -69.5600   23.0000 N.4       4 LYS4        0.0000 
     44 NZ        -49.5100  -70.4800   21.0400 N.4       4 LYS4        0.0000 
     45 NZ        -48.0100  -71.9800   21.0400 N.4       4 LYS4        0.0000 
     46 CZ        -52.3800  -70.3400   17.9200 C.ar      5 PHE5        0.0000 
     47 CZ        -51.9300  -71.3900   18.9000 C.ar      5 PHE5        0.0000 
     48 CZ        -50.5600  -74.5200   21.8300 C.ar      5 PHE5        0.0000 
     49 CZ        -49.4500  -71.9100   19.4800 C.ar      5 PHE5        0.0000 
     50 CZ        -48.9900  -72.9600   20.4600 C.ar      5 PHE5        0.0000 
     51 CZ        -48.4100  -72.3800   18.5000 C.ar      5 PHE5        0.0000 
     52 CZ        -48.4700  -70.9400   20.0600 C.ar      5 PHE5        0.0000 
     53 CZ        -47.4300  -71.4000   19.0800 C.ar      5 PHE5        0.0000 
     54 CZ        -46.9800  -72.4400   20.0600 C.ar      5 PHE5        0.0000 
     55 CA        -55.0500  -74.5000   21.6400 C.3       6 GLY6        0.0000 
     56 CA        -54.0100  -74.9600   20.6700 C.3       6 GLY6        0.0000 
     57 CA        -56.1500  -72.6000   24.1800 C.3       6 GLY6        0.0000 
     58 CA        -54.9900  -71.4400   20.2700 C.3       6 GLY6        0.0000 
     59 CA        -54.5300  -72.4800   21.2500 C.3       6 GLY6        0.0000 
     60 CA        -53.9500  -71.9000   19.3000 C.3       6 GLY6        0.0000 
     61 CA        -53.4900  -72.9400   20.2700 C.3       6 GLY6        0.0000 
     62 CA        -55.6300  -70.5900   23.7900 C.3       6 GLY6        0.0000 
     63 CA        -54.0100  -70.4600   20.8600 C.3       6 GLY6        0.0000 
     64 CA        -53.4200  -69.8800   18.9000 C.3       6 GLY6        0.0000 
     65 CA        -54.0700  -69.0300   22.4200 C.3       6 GLY6        0.0000 
     66 CA        -53.0300  -69.4900   21.4400 C.3       6 GLY6        0.0000 
     67 CA        -51.9900  -69.9500   20.4600 C.3       6 GLY6        0.0000 
     68 CA        -52.0500  -68.5200   22.0200 C.3       6 GLY6        0.0000 
     69 CA        -51.0100  -68.9800   21.0400 C.3       6 GLY6        0.0000 
     70 DU        -53.0300  -73.9900   21.2500 H         7 CUB7        0.0000 
     71 DU        -52.9100  -72.3600   18.3200 H         7 CUB7        0.0000 
     72 DU        -54.5900  -71.0500   22.8100 H         7 CUB7        0.0000 
     73 DU        -53.5500  -71.5100   21.8300 H         7 CUB7        0.0000 
     74 DU        -52.9700  -70.9200   19.8800 H         7 CUB7        0.0000 
     75 DU        -52.5100  -71.9700   20.8500 H         7 CUB7        0.0000 
     76 DU        -51.4700  -72.4300   19.8800 H         7 CUB7        0.0000 
     77 DU        -53.6100  -70.0700   23.3900 H         7 CUB7        0.0000 
@<TRIPOS>BOND
@<TRIPOS>SUBSTRUCTURE
     1 SER1        1 GROUP   
     2 ALA2        8 GROUP   
     3 ASP3       11 GROUP   
     4 LYS4       29 GROUP   
     5 PHE5       46 GROUP   
     6 GLY6       55 GROUP   
     7 CUB7       70 GROUP   
@<TRIPOS>SET

