#    Name: 5zlp_3_ATP_CAVITY_N1_4
#    Modification time : Fri May 22 19:29:15 2020

@<TRIPOS>MOLECULE
5zlp_3_ATP_CAVITY_N1_4
   77     0     7     0     0
SMALL
NO_CHARGES


@<TRIPOS>ATOM
      1 OG        -80.1800   12.6300   80.4100 O.3       1 SER1        0.0000 
      2 OG        -77.8100   19.4600   84.3000 O.3       1 SER1        0.0000 
      3 N         -75.2200   11.5700   81.5700 N.am      2 ALA2        0.0000 
      4 N         -80.3500   16.9300   85.0900 N.am      2 ALA2        0.0000 
      5 N         -76.3200   13.4600   84.1100 N.am      2 ALA2        0.0000 
      6 N         -76.1900   15.0900   81.1800 N.am      2 ALA2        0.0000 
      7 N         -80.4100   18.3700   86.6500 N.am      2 ALA2        0.0000 
      8 N         -79.9500   17.3200   87.6300 N.am      2 ALA2        0.0000 
      9 N         -79.3700   17.9100   85.6800 N.am      2 ALA2        0.0000 
     10 N         -76.7700   19.0000   83.3300 N.am      2 ALA2        0.0000 
     11 OD1       -81.8000   12.5000   83.3400 O.co2     3 ASP3        0.0000 
     12 OD1       -80.7600   12.0400   82.3600 O.co2     3 ASP3        0.0000 
     13 OD1       -81.8600   13.9400   84.9000 O.co2     3 ASP3        0.0000 
     14 OD1       -80.8200   13.4800   83.9300 O.co2     3 ASP3        0.0000 
     15 OD1       -79.7800   13.0200   82.9500 O.co2     3 ASP3        0.0000 
     16 OD1       -81.3300   15.9600   84.5100 O.co2     3 ASP3        0.0000 
     17 OD1       -79.8400   14.4500   84.5100 O.co2     3 ASP3        0.0000 
     18 OD1       -78.8000   13.9900   83.5300 O.co2     3 ASP3        0.0000 
     19 NZ        -79.7200   11.5800   81.3900 N.4       4 LYS4        0.0000 
     20 NZ        -77.7000   12.1000   80.9900 N.4       4 LYS4        0.0000 
     21 CZ        -80.3000   11.0000   83.3400 C.ar      5 PHE5        0.0000 
     22 CZ        -79.8400    9.9600   84.3200 C.ar      5 PHE5        0.0000 
     23 CZ        -79.2600   10.5400   82.3600 C.ar      5 PHE5        0.0000 
     24 CZ        -78.2200   10.0800   81.3800 C.ar      5 PHE5        0.0000 
     25 CZ        -79.9000   11.3900   85.8800 C.ar      5 PHE5        0.0000 
     26 CZ        -79.3200   11.9700   83.9200 C.ar      5 PHE5        0.0000 
     27 CZ        -79.2000   13.6000   80.9900 C.ar      5 PHE5        0.0000 
     28 CZ        -78.2800   11.5100   82.9400 C.ar      5 PHE5        0.0000 
     29 CZ        -77.2400   11.0500   81.9700 C.ar      5 PHE5        0.0000 
     30 CZ        -78.9200   12.3700   86.4600 C.ar      5 PHE5        0.0000 
     31 CZ        -78.3400   12.9500   84.5100 C.ar      5 PHE5        0.0000 
     32 CZ        -77.8800   11.9100   85.4800 C.ar      5 PHE5        0.0000 
     33 CZ        -78.2100   14.5700   81.5800 C.ar      5 PHE5        0.0000 
     34 CZ        -77.3000   12.4900   83.5300 C.ar      5 PHE5        0.0000 
     35 CZ        -77.1800   14.1100   80.6000 C.ar      5 PHE5        0.0000 
     36 CZ        -76.2600   12.0300   82.5500 C.ar      5 PHE5        0.0000 
     37 CZ        -79.9000   15.8900   86.0700 C.ar      5 PHE5        0.0000 
     38 CZ        -79.4400   14.8400   87.0500 C.ar      5 PHE5        0.0000 
     39 CZ        -78.9800   13.8000   88.0200 C.ar      5 PHE5        0.0000 
     40 CZ        -78.8600   15.4300   85.0900 C.ar      5 PHE5        0.0000 
     41 CZ        -78.4000   14.3800   86.0700 C.ar      5 PHE5        0.0000 
     42 CZ        -77.9400   13.3400   87.0400 C.ar      5 PHE5        0.0000 
     43 CZ        -77.8200   14.9700   84.1100 C.ar      5 PHE5        0.0000 
     44 CZ        -77.3600   13.9200   85.0900 C.ar      5 PHE5        0.0000 
     45 CZ        -76.9000   12.8800   86.0600 C.ar      5 PHE5        0.0000 
     46 CZ        -76.7800   14.5100   83.1300 C.ar      5 PHE5        0.0000 
     47 CZ        -79.5000   16.2800   88.6100 C.ar      5 PHE5        0.0000 
     48 CZ        -78.3300   17.4400   84.7000 C.ar      5 PHE5        0.0000 
     49 CZ        -77.2900   16.9800   83.7200 C.ar      5 PHE5        0.0000 
     50 CZ        -75.8000   15.4800   83.7200 C.ar      5 PHE5        0.0000 
     51 CZ        -78.9700   18.3000   88.2100 C.ar      5 PHE5        0.0000 
     52 CZ        -78.3900   18.8800   86.2600 C.ar      5 PHE5        0.0000 
     53 CZ        -77.3500   18.4200   85.2800 C.ar      5 PHE5        0.0000 
     54 CZ        -76.3100   17.9600   84.3000 C.ar      5 PHE5        0.0000 
     55 CA        -76.2000   10.5900   80.9900 C.3       6 GLY6        0.0000 
     56 CA        -81.9200   15.3700   86.4700 C.3       6 GLY6        0.0000 
     57 CA        -80.8800   14.9100   85.4900 C.3       6 GLY6        0.0000 
     58 CA        -75.6800   12.6100   80.5900 C.3       6 GLY6        0.0000 
     59 CA        -80.9300   16.3500   87.0500 C.3       6 GLY6        0.0000 
     60 CA        -79.3100   16.4700   84.1100 C.3       6 GLY6        0.0000 
     61 CA        -78.2700   16.0100   83.1400 C.3       6 GLY6        0.0000 
     62 CA        -77.2300   15.5500   82.1600 C.3       6 GLY6        0.0000 
     63 CA        -75.7400   14.0400   82.1600 C.3       6 GLY6        0.0000 
     64 CA        -78.7900   18.4900   83.7200 C.3       6 GLY6        0.0000 
     65 CA        -77.7500   18.0300   82.7400 C.3       6 GLY6        0.0000 
     66 CA        -76.2500   16.5200   82.7400 C.3       6 GLY6        0.0000 
     67 DU        -81.3400   11.4600   84.3200 H         7 CUB7        0.0000 
     68 DU        -80.8800   10.4200   85.3000 H         7 CUB7        0.0000 
     69 DU        -81.4000   12.9000   85.8800 H         7 CUB7        0.0000 
     70 DU        -80.3600   12.4300   84.9000 H         7 CUB7        0.0000 
     71 DU        -78.7400   12.5600   81.9700 H         7 CUB7        0.0000 
     72 DU        -80.4200   13.8700   86.4600 H         7 CUB7        0.0000 
     73 DU        -79.9600   12.8300   87.4400 H         7 CUB7        0.0000 
     74 DU        -79.3800   13.4100   85.4800 H         7 CUB7        0.0000 
     75 DU        -77.7600   13.5300   82.5500 H         7 CUB7        0.0000 
     76 DU        -76.7200   13.0700   81.5700 H         7 CUB7        0.0000 
     77 DU        -80.4800   15.3100   88.0200 H         7 CUB7        0.0000 
@<TRIPOS>BOND
@<TRIPOS>SUBSTRUCTURE
     1 SER1        1 GROUP   
     2 ALA2        3 GROUP   
     3 ASP3       11 GROUP   
     4 LYS4       19 GROUP   
     5 PHE5       21 GROUP   
     6 GLY6       55 GROUP   
     7 CUB7       67 GROUP   
@<TRIPOS>SET

