#    Name: 6qk8_2_ARG_SER_PHE_LEU_HIS_ARG_MET_SEP_CAVITY_N1_6
#    Modification time : Fri May 22 19:26:15 2020

@<TRIPOS>MOLECULE
6qk8_2_ARG_SER_PHE_LEU_HIS_ARG_MET_SEP_CAVITY_N1_6
   41     0     5     0     0
SMALL
NO_CHARGES


@<TRIPOS>ATOM
      1 N          22.4800   20.6400   -5.2900 N.am      1 ALA2        0.0000 
      2 N          21.2900   20.9800   -4.4400 N.am      1 ALA2        0.0000 
      3 N          17.5100   23.2400   -2.6800 N.am      1 ALA2        0.0000 
      4 N          25.2600   17.3800   -2.7800 N.am      1 ALA2        0.0000 
      5 N          24.0800   17.7200   -1.9200 N.am      1 ALA2        0.0000 
      6 N          23.8400   18.9500   -2.7400 N.am      1 ALA2        0.0000 
      7 N          26.1500   18.1600   -1.8600 N.am      1 ALA2        0.0000 
      8 N          24.9700   18.5000   -1.0000 N.am      1 ALA2        0.0000 
      9 N          22.3700   20.4200   -0.1000 N.am      1 ALA2        0.0000 
     10 OD1        26.2100   18.2700   -4.4500 O.co2     2 ASP3        0.0000 
     11 OD1        25.0300   18.6100   -3.6000 O.co2     2 ASP3        0.0000 
     12 OD1        24.7900   19.8500   -4.4100 O.co2     2 ASP3        0.0000 
     13 OD1        23.3700   21.4200   -4.3800 O.co2     2 ASP3        0.0000 
     14 OD1        28.5200   17.4800   -3.5700 O.co2     2 ASP3        0.0000 
     15 OD1        27.1000   19.0500   -3.5300 O.co2     2 ASP3        0.0000 
     16 OD1        25.9200   19.3900   -2.6800 O.co2     2 ASP3        0.0000 
     17 OD1        25.6800   20.6300   -3.4900 O.co2     2 ASP3        0.0000 
     18 OD1        24.5000   20.9700   -2.6400 O.co2     2 ASP3        0.0000 
     19 OD1        24.2600   22.2000   -3.4600 O.co2     2 ASP3        0.0000 
     20 OD1        23.0800   22.5500   -2.6000 O.co2     2 ASP3        0.0000 
     21 OD1        27.9900   19.8300   -2.6100 O.co2     2 ASP3        0.0000 
     22 NZ         18.6400   22.7900   -0.9500 N.4       3 LYS4        0.0000 
     23 NZ         29.7000   17.1300   -4.4300 N.4       3 LYS4        0.0000 
     24 NZ         30.5900   17.9200   -3.5100 N.4       3 LYS4        0.0000 
     25 CA         21.5300   19.7500   -3.6200 C.3       4 GLY6        0.0000 
     26 CA         27.6300   16.7000   -4.4900 C.3       4 GLY6        0.0000 
     27 CA         26.4400   17.0400   -3.6400 C.3       4 GLY6        0.0000 
     28 CA         23.6100   20.1900   -3.5600 C.3       4 GLY6        0.0000 
     29 CA         20.7700   23.3400   -3.4800 C.3       4 GLY6        0.0000 
     30 CA         20.0600   21.2100   -0.9900 C.3       4 GLY6        0.0000 
     31 CA         20.9500   21.9900   -0.0700 C.3       4 GLY6        0.0000 
     32 DU         22.6600   19.3000   -1.8800 H         5 CUB7        0.0000 
     33 DU         22.4200   20.5300   -2.7000 H         5 CUB7        0.0000 
     34 DU         21.2400   20.8700   -1.8400 H         5 CUB7        0.0000 
     35 DU         21.0000   22.1100   -2.6600 H         5 CUB7        0.0000 
     36 DU         19.8200   22.4500   -1.8000 H         5 CUB7        0.0000 
     37 DU         27.3400   17.8200   -2.7200 H         5 CUB7        0.0000 
     38 DU         24.7300   19.7300   -1.8200 H         5 CUB7        0.0000 
     39 DU         23.5500   20.0800   -0.9600 H         5 CUB7        0.0000 
     40 DU         23.3200   21.3100   -1.7800 H         5 CUB7        0.0000 
     41 DU         22.1300   21.6500   -0.9200 H         5 CUB7        0.0000 
@<TRIPOS>BOND
@<TRIPOS>SUBSTRUCTURE
     1 ALA2        1 GROUP   
     2 ASP3       10 GROUP   
     3 LYS4       22 GROUP   
     4 GLY6       25 GROUP   
     5 CUB7       32 GROUP   
@<TRIPOS>SET

