#    Name: 6qk8_3_ARG_SER_PHE_LEU_HIS_SEP
#    Modification time : Fri May 22 19:26:22 2020

@<TRIPOS>MOLECULE
6qk8_3_ARG_SER_PHE_LEU_HIS_SEP
   50    51     6     0     0
SMALL
NO_CHARGES


@<TRIPOS>ATOM
      1 N          -5.4730  -19.4080   22.2380 N.4       1 ARG478      0.0000 
      2 CA         -5.7650  -18.1040   21.6570 C.3       1 ARG478      0.0000 
      3 C          -7.2680  -17.9030   21.5080 C.2       1 ARG478      0.0000 
      4 O          -7.7160  -17.1700   20.6280 O.2       1 ARG478      0.0000 
      5 CB         -5.0760  -17.9590   20.2980 C.3       1 ARG478      0.0000 
      6 N          -8.0400  -18.5490   22.3800 N.am      2 SER479      0.0000 
      7 CA         -9.4900  -18.5800   22.2430 C.3       2 SER479      0.0000 
      8 C         -10.0910  -17.1760   22.3440 C.2       2 SER479      0.0000 
      9 O          -9.5130  -16.2610   22.9350 O.2       2 SER479      0.0000 
     10 CB        -10.0980  -19.4990   23.3030 C.3       2 SER479      0.0000 
     11 OG         -9.3900  -20.7260   23.3720 O.3       2 SER479      0.0000 
     12 N         -11.2780  -17.0210   21.7530 N.am      3 PHE480      0.0000 
     13 CA        -11.9750  -15.7310   21.6650 C.3       3 PHE480      0.0000 
     14 C         -13.1630  -15.6380   22.6230 C.2       3 PHE480      0.0000 
     15 O         -14.1470  -16.3590   22.4770 O.2       3 PHE480      0.0000 
     16 CB        -12.4680  -15.4760   20.2300 C.3       3 PHE480      0.0000 
     17 CG        -11.4700  -15.8480   19.1670 C.ar      3 PHE480      0.0000 
     18 CD1       -11.3400  -17.1630   18.7490 C.ar      3 PHE480      0.0000 
     19 CD2       -10.6540  -14.8830   18.5920 C.ar      3 PHE480      0.0000 
     20 CE1       -10.4130  -17.5100   17.7840 C.ar      3 PHE480      0.0000 
     21 CE2        -9.7280  -15.2270   17.6240 C.ar      3 PHE480      0.0000 
     22 CZ         -9.6070  -16.5420   17.2220 C.ar      3 PHE480      0.0000 
     23 N         -16.0740  -13.0640   24.8600 N.am      4 LEU482      0.0000 
     24 CA        -17.0200  -12.0110   24.5110 C.3       4 LEU482      0.0000 
     25 C         -16.3700  -10.6330   24.4210 C.2       4 LEU482      0.0000 
     26 O         -15.4620  -10.3140   25.1910 O.2       4 LEU482      0.0000 
     27 CB        -18.1610  -11.9710   25.5210 C.3       4 LEU482      0.0000 
     28 CG        -19.4230  -11.2730   25.0250 C.3       4 LEU482      0.0000 
     29 CD1       -19.9930  -12.0350   23.8480 C.3       4 LEU482      0.0000 
     30 CD2       -20.4360  -11.1480   26.1500 C.3       4 LEU482      0.0000 
     31 N         -16.8580   -9.8380   23.4670 N.am      5 HIS483      0.0000 
     32 CA        -16.3460   -8.4990   23.1540 C.3       5 HIS483      0.0000 
     33 C         -14.9050   -8.5430   22.6500 C.2       5 HIS483      0.0000 
     34 O         -14.6260   -8.1580   21.5110 O.2       5 HIS483      0.0000 
     35 CB        -16.4510   -7.5700   24.3680 C.3       5 HIS483      0.0000 
     36 CG        -17.8430   -7.4190   24.8960 C.2       5 HIS483      0.0000 
     37 ND1       -18.2320   -7.9160   26.1230 N.pl3     5 HIS483      0.0000 
     38 CD2       -18.9370   -6.8190   24.3690 C.2       5 HIS483      0.0000 
     39 CE1       -19.5060   -7.6310   26.3260 C.2       5 HIS483      0.0000 
     40 NE2       -19.9570   -6.9670   25.2770 N.2       5 HIS483      0.0000 
     41 N         -13.0740  -14.7400   23.5970 N.am      6 SEP481      0.0000 
     42 CA        -14.1740  -14.5320   24.5350 C.3       6 SEP481      0.0000 
     43 CB        -13.6540  -14.3820   25.9630 C.3       6 SEP481      0.0000 
     44 OG        -12.9230  -13.1850   26.1010 O.3       6 SEP481      0.0000 
     45 C         -14.9840  -13.3060   24.1370 C.2       6 SEP481      0.0000 
     46 O         -14.6240  -12.5970   23.1970 O.2       6 SEP481      0.0000 
     47 P         -12.2720  -13.1120   27.5670 P.3       6 SEP481      0.0000 
     48 O1P       -11.4050  -11.7600   27.6560 O.co2     6 SEP481      0.0000 
     49 O2P       -13.4440  -13.0960   28.6730 O.co2     6 SEP481      0.0000 
     50 O3P       -11.3140  -14.3890   27.7820 O.co2     6 SEP481      0.0000 
@<TRIPOS>BOND
     1    1    2 1    
     2    2    3 1    
     3    2    5 1    
     4    3    4 2    
     5    3    6 am   
     6    6    7 1    
     7    7    8 1    
     8    7   10 1    
     9    8    9 2    
    10    8   12 am   
    11   10   11 1    
    12   12   13 1    
    13   13   14 1    
    14   13   16 1    
    15   14   15 2    
    16   14   41 du   
    17   16   17 1    
    18   17   18 ar   
    19   17   19 ar   
    20   18   20 ar   
    21   19   21 ar   
    22   20   22 ar   
    23   21   22 ar   
    24   23   24 1    
    25   23   45 am   
    26   24   25 1    
    27   24   27 1    
    28   25   26 2    
    29   25   31 am   
    30   27   28 1    
    31   28   29 1    
    32   28   30 1    
    33   31   32 1    
    34   32   33 1    
    35   32   35 1    
    36   33   34 2    
    37   35   36 1    
    38   36   37 1    
    39   36   38 2    
    40   37   39 1    
    41   38   40 1    
    42   39   40 2    
    43   41   42 1    
    44   42   43 1    
    45   42   45 1    
    46   43   44 1    
    47   44   47 1    
    48   45   46 2    
    49   47   48 ar   
    50   47   49 ar   
    51   47   50 ar   
@<TRIPOS>SUBSTRUCTURE
     1 ARG478      1 RESIDUE 
     2 SER479      6 RESIDUE 
     3 PHE480     12 RESIDUE 
     4 LEU482     23 RESIDUE 
     5 HIS483     31 RESIDUE 
     6 SEP481     41 RESIDUE 
@<TRIPOS>SET

