#    Name: 6qk8_2_ARG_SER_PHE_LEU_HIS_ARG_MET_SEP_CAVITY_N1_ALL
#    Modification time : Fri May 22 19:26:15 2020

@<TRIPOS>MOLECULE
6qk8_2_ARG_SER_PHE_LEU_HIS_ARG_MET_SEP_CAVITY_N1_ALL
   88     0     6     0     0
SMALL
NO_CHARGES


@<TRIPOS>ATOM
      1 N          20.8800   17.7400   -3.7200 N.am      1 ALA2        0.0000 
      2 N          20.4000   20.2000   -5.3600 N.am      1 ALA2        0.0000 
      3 N          19.4600   19.3100   -3.6800 N.am      1 ALA2        0.0000 
      4 N          19.2200   20.5500   -4.5000 N.am      1 ALA2        0.0000 
      5 N          18.2700   19.6500   -2.8200 N.am      1 ALA2        0.0000 
      6 N          23.1900   16.9400   -2.8400 N.am      1 ALA2        0.0000 
      7 N          22.4800   20.6400   -5.2900 N.am      1 ALA2        0.0000 
      8 N          21.7700   18.5200   -2.8000 N.am      1 ALA2        0.0000 
      9 N          21.2900   20.9800   -4.4400 N.am      1 ALA2        0.0000 
     10 N          20.1100   21.3300   -3.5800 N.am      1 ALA2        0.0000 
     11 O          19.8800   22.5600   -4.4000 O.2       1 ALA2        0.0000 
     12 N          18.9300   21.6700   -2.7200 N.am      1 ALA2        0.0000 
     13 O          18.6900   22.9000   -3.5400 O.2       1 ALA2        0.0000 
     14 N          17.5100   23.2400   -2.6800 N.am      1 ALA2        0.0000 
     15 N          29.0500   15.1200   -4.5300 N.am      1 ALA2        0.0000 
     16 N          27.8600   15.4600   -3.6700 N.am      1 ALA2        0.0000 
     17 N          26.6800   15.8000   -2.8200 N.am      1 ALA2        0.0000 
     18 N          25.7400   14.9100   -1.1400 N.am      1 ALA2        0.0000 
     19 N          25.5000   16.1400   -1.9600 N.am      1 ALA2        0.0000 
     20 N          25.2600   17.3800   -2.7800 N.am      1 ALA2        0.0000 
     21 N          24.0800   17.7200   -1.9200 N.am      1 ALA2        0.0000 
     22 N          23.8400   18.9500   -2.7400 N.am      1 ALA2        0.0000 
     23 N          21.4800   19.6400   -1.0200 N.am      1 ALA2        0.0000 
     24 N          26.6300   15.6900   -0.2200 N.am      1 ALA2        0.0000 
     25 N          26.3900   16.9200   -1.0400 N.am      1 ALA2        0.0000 
     26 N          26.1500   18.1600   -1.8600 N.am      1 ALA2        0.0000 
     27 N          24.9700   18.5000   -1.0000 N.am      1 ALA2        0.0000 
     28 N          22.3700   20.4200   -0.1000 N.am      1 ALA2        0.0000 
     29 OD1        26.2100   18.2700   -4.4500 O.co2     2 ASP3        0.0000 
     30 OD1        25.0300   18.6100   -3.6000 O.co2     2 ASP3        0.0000 
     31 OD1        24.7900   19.8500   -4.4100 O.co2     2 ASP3        0.0000 
     32 OD1        23.3700   21.4200   -4.3800 O.co2     2 ASP3        0.0000 
     33 OD1        28.5200   17.4800   -3.5700 O.co2     2 ASP3        0.0000 
     34 OD1        27.1000   19.0500   -3.5300 O.co2     2 ASP3        0.0000 
     35 OD1        25.9200   19.3900   -2.6800 O.co2     2 ASP3        0.0000 
     36 OD1        25.6800   20.6300   -3.4900 O.co2     2 ASP3        0.0000 
     37 OD1        24.5000   20.9700   -2.6400 O.co2     2 ASP3        0.0000 
     38 OD1        24.2600   22.2000   -3.4600 O.co2     2 ASP3        0.0000 
     39 OD1        23.0800   22.5500   -2.6000 O.co2     2 ASP3        0.0000 
     40 OD1        27.9900   19.8300   -2.6100 O.co2     2 ASP3        0.0000 
     41 NZ         18.5100   18.4200   -2.0100 N.4       3 LYS4        0.0000 
     42 NZ         19.4000   19.2000   -1.0900 N.4       3 LYS4        0.0000 
     43 NZ         19.1700   20.4300   -1.9000 N.4       3 LYS4        0.0000 
     44 NZ         17.7500   22.0100   -1.8700 N.4       3 LYS4        0.0000 
     45 NZ         30.2300   14.7800   -5.3900 N.4       3 LYS4        0.0000 
     46 NZ         18.6400   22.7900   -0.9500 N.4       3 LYS4        0.0000 
     47 NZ         31.1200   15.5600   -4.4700 N.4       3 LYS4        0.0000 
     48 NZ         29.7000   17.1300   -4.4300 N.4       3 LYS4        0.0000 
     49 NZ         30.5900   17.9200   -3.5100 N.4       3 LYS4        0.0000 
     50 CZ         32.7800   12.7500   -3.6900 C.ar      4 PHE5        0.0000 
     51 CZ         32.5400   13.9800   -4.5100 C.ar      4 PHE5        0.0000 
     52 CA         20.6400   18.9700   -4.5400 C.3       5 GLY6        0.0000 
     53 CA         19.9300   16.8400   -2.0400 C.3       5 GLY6        0.0000 
     54 CA         21.5300   19.7500   -3.6200 C.3       5 GLY6        0.0000 
     55 CA         20.8200   17.6200   -1.1300 C.3       5 GLY6        0.0000 
     56 CA         30.4700   13.5400   -4.5700 C.3       5 GLY6        0.0000 
     57 CA         28.8100   16.3500   -5.3500 C.3       5 GLY6        0.0000 
     58 CA         27.6300   16.7000   -4.4900 C.3       5 GLY6        0.0000 
     59 CA         27.1500   13.3300   -1.1800 C.3       5 GLY6        0.0000 
     60 CA         26.9200   14.5700   -2.0000 C.3       5 GLY6        0.0000 
     61 CA         26.4400   17.0400   -3.6400 C.3       5 GLY6        0.0000 
     62 CA         23.6100   20.1900   -3.5600 C.3       5 GLY6        0.0000 
     63 CA         22.9000   18.0600   -1.0600 C.3       5 GLY6        0.0000 
     64 CA         20.7700   23.3400   -3.4800 C.3       5 GLY6        0.0000 
     65 CA         20.0600   21.2100   -0.9900 C.3       5 GLY6        0.0000 
     66 CA         31.5900   13.0900   -2.8300 C.3       5 GLY6        0.0000 
     67 CA         31.3600   14.3200   -3.6500 C.3       5 GLY6        0.0000 
     68 CA         30.1800   14.6700   -2.7900 C.3       5 GLY6        0.0000 
     69 CA         29.9400   15.9000   -3.6100 C.3       5 GLY6        0.0000 
     70 CA         28.9900   15.0100   -1.9400 C.3       5 GLY6        0.0000 
     71 CA         28.7600   16.2400   -2.7500 C.3       5 GLY6        0.0000 
     72 CA         28.0500   14.1100   -0.2600 C.3       5 GLY6        0.0000 
     73 CA         27.8100   15.3500   -1.0800 C.3       5 GLY6        0.0000 
     74 CA         20.9500   21.9900   -0.0700 C.3       5 GLY6        0.0000 
     75 DU         19.6900   18.0800   -2.8600 H         6 CUB7        0.0000 
     76 DU         20.5900   18.8600   -1.9400 H         6 CUB7        0.0000 
     77 DU         20.3500   20.0900   -2.7600 H         6 CUB7        0.0000 
     78 DU         22.6600   19.3000   -1.8800 H         6 CUB7        0.0000 
     79 DU         22.4200   20.5300   -2.7000 H         6 CUB7        0.0000 
     80 DU         21.2400   20.8700   -1.8400 H         6 CUB7        0.0000 
     81 DU         21.0000   22.1100   -2.6600 H         6 CUB7        0.0000 
     82 DU         19.8200   22.4500   -1.8000 H         6 CUB7        0.0000 
     83 DU         27.5700   16.5800   -1.9000 H         6 CUB7        0.0000 
     84 DU         27.3400   17.8200   -2.7200 H         6 CUB7        0.0000 
     85 DU         24.7300   19.7300   -1.8200 H         6 CUB7        0.0000 
     86 DU         23.5500   20.0800   -0.9600 H         6 CUB7        0.0000 
     87 DU         23.3200   21.3100   -1.7800 H         6 CUB7        0.0000 
     88 DU         22.1300   21.6500   -0.9200 H         6 CUB7        0.0000 
@<TRIPOS>BOND
@<TRIPOS>SUBSTRUCTURE
     1 ALA2        1 GROUP   
     2 ASP3       29 GROUP   
     3 LYS4       41 GROUP   
     4 PHE5       50 GROUP   
     5 GLY6       52 GROUP   
     6 CUB7       75 GROUP   
@<TRIPOS>SET

