#    Name: 6qk8_4_ARG_SER_PHE_LEU_HIS_ARG_MET_SEP_CAVITY_N1_4
#    Modification time : Fri May 22 19:26:34 2020

@<TRIPOS>MOLECULE
6qk8_4_ARG_SER_PHE_LEU_HIS_ARG_MET_SEP_CAVITY_N1_4
   87     0     7     0     0
SMALL
NO_CHARGES


@<TRIPOS>ATOM
      1 OG         11.2600    8.4600   20.8200 O.3       1 SER1        0.0000 
      2 OG         11.9100   10.4800   20.9200 O.3       1 SER1        0.0000 
      3 N          14.9100    7.6700   13.0600 N.am      2 ALA2        0.0000 
      4 N           9.6500   11.3900   17.4500 N.am      2 ALA2        0.0000 
      5 N           8.2400   12.9600   17.4900 N.am      2 ALA2        0.0000 
      6 N          16.7000    9.2300   14.9000 N.am      2 ALA2        0.0000 
      7 N          12.6700   12.7200   15.8300 N.am      2 ALA2        0.0000 
      8 N          11.7300   11.8300   17.5100 N.am      2 ALA2        0.0000 
      9 O          10.5500   12.1700   18.3700 O.2       2 ALA2        0.0000 
     10 O           9.3600   12.5100   19.2200 O.2       2 ALA2        0.0000 
     11 O           7.9400   14.0800   19.2600 O.2       2 ALA2        0.0000 
     12 N          18.3000    6.3000   18.2700 N.am      2 ALA2        0.0000 
     13 N          17.1200    6.6400   19.1300 N.am      2 ALA2        0.0000 
     14 N          16.6400    9.1100   17.4900 N.am      2 ALA2        0.0000 
     15 N          16.4100   10.3500   16.6700 N.am      2 ALA2        0.0000 
     16 N          15.7000    8.2200   19.1700 N.am      2 ALA2        0.0000 
     17 N          15.2200   10.6900   17.5300 N.am      2 ALA2        0.0000 
     18 N          14.7500    7.3300   20.8400 N.am      2 ALA2        0.0000 
     19 OD1         8.0500    8.4800   19.0200 O.co2     3 ASP3        0.0000 
     20 OD1         7.5800   10.9500   17.3800 O.co2     3 ASP3        0.0000 
     21 OD1         9.8900   10.1500   18.2600 O.co2     3 ASP3        0.0000 
     22 OD1         8.9500    9.2600   19.9400 O.co2     3 ASP3        0.0000 
     23 OD1         8.7100   10.4900   19.1200 O.co2     3 ASP3        0.0000 
     24 OD1         8.4700   11.7300   18.3000 O.co2     3 ASP3        0.0000 
     25 OD1         7.2900   12.0700   19.1600 O.co2     3 ASP3        0.0000 
     26 OD1         7.0500   13.3000   18.3400 O.co2     3 ASP3        0.0000 
     27 OD1        13.0900   10.1400   20.0600 O.co2     3 ASP3        0.0000 
     28 OD1        12.8600   11.3700   19.2500 O.co2     3 ASP3        0.0000 
     29 OD1        11.6800   11.7100   20.1000 O.co2     3 ASP3        0.0000 
     30 OD1        10.4900   12.0500   20.9600 O.co2     3 ASP3        0.0000 
     31 OD1        13.9900   10.9200   20.9800 O.co2     3 ASP3        0.0000 
     32 NZ         14.2600    5.6500   12.9600 N.4       4 LYS4        0.0000 
     33 NZ         15.1500    6.4300   13.8800 N.4       4 LYS4        0.0000 
     34 NZ         16.0400    7.2100   14.8000 N.4       4 LYS4        0.0000 
     35 NZ         15.1000    6.3200   16.4700 N.4       4 LYS4        0.0000 
     36 NZ         18.3500    6.4200   15.6800 N.4       4 LYS4        0.0000 
     37 NZ         17.4100    5.5200   17.3500 N.4       4 LYS4        0.0000 
     38 NZ         17.1700    6.7600   16.5300 N.4       4 LYS4        0.0000 
     39 CZ         16.3500   10.2300   19.2700 C.ar      5 PHE5        0.0000 
     40 CA         13.0700    5.9900   13.8100 C.3       6 GLY6        0.0000 
     41 CA         12.8400    7.2300   13.0000 C.3       6 GLY6        0.0000 
     42 CA         11.6600    7.5700   13.8500 C.3       6 GLY6        0.0000 
     43 CA         13.7300    8.0100   13.9200 C.3       6 GLY6        0.0000 
     44 CA         12.5500    8.3500   14.7700 C.3       6 GLY6        0.0000 
     45 CA         15.8000    8.4500   13.9800 C.3       6 GLY6        0.0000 
     46 CA         14.6200    8.7900   14.8300 C.3       6 GLY6        0.0000 
     47 CA         13.4400    9.1300   15.6900 C.3       6 GLY6        0.0000 
     48 CA         12.0200   10.7000   15.7300 C.3       6 GLY6        0.0000 
     49 CA         10.6000   12.2800   15.7700 C.3       6 GLY6        0.0000 
     50 CA         16.9300    7.9900   15.7200 C.3       6 GLY6        0.0000 
     51 CA         15.5100    9.5700   15.7500 C.3       6 GLY6        0.0000 
     52 CA         14.3300    9.9100   16.6100 C.3       6 GLY6        0.0000 
     53 CA         14.0900   11.1400   15.7900 C.3       6 GLY6        0.0000 
     54 CA         12.9100   11.4800   16.6500 C.3       6 GLY6        0.0000 
     55 CA         10.0700    8.8000   21.6800 C.3       6 GLY6        0.0000 
     56 CA          9.8400   10.0400   20.8600 C.3       6 GLY6        0.0000 
     57 CA          9.6000   11.2700   20.0400 C.3       6 GLY6        0.0000 
     58 CA          8.1800   12.8500   20.0800 C.3       6 GLY6        0.0000 
     59 CA         18.0600    7.5400   17.4500 C.3       6 GLY6        0.0000 
     60 CA         17.8200    8.7700   16.6300 C.3       6 GLY6        0.0000 
     61 CA         14.9900   11.9200   16.7100 C.3       6 GLY6        0.0000 
     62 CA         14.0400   11.0300   18.3900 C.3       6 GLY6        0.0000 
     63 CA         13.8000   12.2700   17.5700 C.3       6 GLY6        0.0000 
     64 CA         10.7300   10.8200   21.7800 C.3       6 GLY6        0.0000 
     65 CA          9.3100   12.4000   21.8200 C.3       6 GLY6        0.0000 
     66 CA         16.1100   11.4700   18.4500 C.3       6 GLY6        0.0000 
     67 CA         15.1700   10.5800   20.1300 C.3       6 GLY6        0.0000 
     68 DU         13.9700    6.7700   14.7300 H         7 CUB7        0.0000 
     69 DU         11.3600    8.6900   15.6300 H         7 CUB7        0.0000 
     70 DU          7.3400   12.1800   16.5700 H         7 CUB7        0.0000 
     71 DU         14.8600    7.5500   15.6500 H         7 CUB7        0.0000 
     72 DU         13.6800    7.8900   16.5100 H         7 CUB7        0.0000 
     73 DU         12.2600    9.4700   16.5500 H         7 CUB7        0.0000 
     74 DU         10.3600    7.6800   19.9000 H         7 CUB7        0.0000 
     75 DU         15.9900    7.1000   17.3900 H         7 CUB7        0.0000 
     76 DU         15.7500    8.3300   16.5700 H         7 CUB7        0.0000 
     77 DU         14.8000    7.4400   18.2500 H         7 CUB7        0.0000 
     78 DU         14.5700    8.6700   17.4300 H         7 CUB7        0.0000 
     79 DU         13.1500   10.2500   17.4700 H         7 CUB7        0.0000 
     80 DU         12.2000    9.3600   19.1400 H         7 CUB7        0.0000 
     81 DU         11.9700   10.5900   18.3300 H         7 CUB7        0.0000 
     82 DU         11.0200    9.7000   20.0000 H         7 CUB7        0.0000 
     83 DU         10.7800   10.9300   19.1800 H         7 CUB7        0.0000 
     84 DU         16.8800    7.8800   18.3100 H         7 CUB7        0.0000 
     85 DU         15.4600    9.4500   18.3500 H         7 CUB7        0.0000 
     86 DU         14.5100    8.5600   20.0300 H         7 CUB7        0.0000 
     87 DU         14.2800    9.8000   19.2100 H         7 CUB7        0.0000 
@<TRIPOS>BOND
@<TRIPOS>SUBSTRUCTURE
     1 SER1        1 GROUP   
     2 ALA2        3 GROUP   
     3 ASP3       19 GROUP   
     4 LYS4       32 GROUP   
     5 PHE5       39 GROUP   
     6 GLY6       40 GROUP   
     7 CUB7       68 GROUP   
@<TRIPOS>SET

