#    Name: 6qk8_1_ARG_SER_PHE_LEU_HIS_ARG_MET_SEP
#    Modification time : Fri May 22 19:26:05 2020

@<TRIPOS>MOLECULE
6qk8_1_ARG_SER_PHE_LEU_HIS_ARG_MET_SEP
   75    76     8     0     0
SMALL
NO_CHARGES


@<TRIPOS>ATOM
      1 N          -4.6750   14.6480    9.0110 N.4       1 ARG478      0.0000 
      2 CA         -4.4250   13.5750    8.0470 C.3       1 ARG478      0.0000 
      3 C          -3.8710   12.3120    8.7160 C.2       1 ARG478      0.0000 
      4 O          -2.9160   12.3700    9.4980 O.2       1 ARG478      0.0000 
      5 CB         -3.4590   14.0490    6.9560 C.3       1 ARG478      0.0000 
      6 CG         -3.0960   12.9850    5.9240 C.3       1 ARG478      0.0000 
      7 CD         -2.6790   13.6150    4.5950 C.3       1 ARG478      0.0000 
      8 NE         -1.9950   12.6720    3.7100 N.pl3     1 ARG478      0.0000 
      9 CZ         -1.2360   13.0310    2.6750 C.cat     1 ARG478      0.0000 
     10 NH1        -1.0530   14.3170    2.3890 N.pl3     1 ARG478      0.0000 
     11 NH2        -0.6510   12.1030    1.9250 N.pl3     1 ARG478      0.0000 
     12 N          -4.4730   11.1710    8.3890 N.am      2 SER479      0.0000 
     13 CA         -4.0660    9.9080    8.9780 C.3       2 SER479      0.0000 
     14 C          -2.6790    9.5010    8.4850 C.2       2 SER479      0.0000 
     15 O          -2.1510   10.0290    7.5010 O.2       2 SER479      0.0000 
     16 CB         -5.0790    8.8170    8.6470 C.3       2 SER479      0.0000 
     17 OG         -6.3900    9.3470    8.6380 O.3       2 SER479      0.0000 
     18 N          -2.0990    8.5320    9.1840 N.am      3 PHE480      0.0000 
     19 CA         -0.7550    8.0580    8.8910 C.3       3 PHE480      0.0000 
     20 C          -0.7730    6.5920    8.4560 C.2       3 PHE480      0.0000 
     21 O          -1.3050    5.7230    9.1550 O.2       3 PHE480      0.0000 
     22 CB          0.1500    8.2560   10.1130 C.3       3 PHE480      0.0000 
     23 CG          0.2330    9.6900   10.5800 C.ar      3 PHE480      0.0000 
     24 CD1         0.6780   10.6920    9.7220 C.ar      3 PHE480      0.0000 
     25 CD2        -0.1330   10.0400   11.8730 C.ar      3 PHE480      0.0000 
     26 CE1         0.7570   12.0120   10.1460 C.ar      3 PHE480      0.0000 
     27 CE2        -0.0550   11.3620   12.3020 C.ar      3 PHE480      0.0000 
     28 CZ          0.3910   12.3450   11.4350 C.ar      3 PHE480      0.0000 
     29 N           1.3180    3.0540    6.6780 N.am      4 LEU482      0.0000 
     30 CA          2.5600    2.3000    6.8570 C.3       4 LEU482      0.0000 
     31 C           3.7550    2.9520    6.1620 C.2       4 LEU482      0.0000 
     32 O           3.7260    3.1900    4.9550 O.2       4 LEU482      0.0000 
     33 CB          2.3990    0.8770    6.3240 C.3       4 LEU482      0.0000 
     34 CG          2.2490   -0.2720    7.3150 C.3       4 LEU482      0.0000 
     35 CD1         2.6770   -1.5830    6.6720 C.3       4 LEU482      0.0000 
     36 CD2         3.0520   -0.0080    8.5710 C.3       4 LEU482      0.0000 
     37 N           4.8060    3.2350    6.9160 N.am      5 HIS483      0.0000 
     38 CA          6.0320    3.7620    6.3460 C.3       5 HIS483      0.0000 
     39 C           7.0350    2.6250    6.1530 C.2       5 HIS483      0.0000 
     40 O           6.7110    1.4440    6.3140 O.2       5 HIS483      0.0000 
     41 CB          6.5830    4.8760    7.2300 C.3       5 HIS483      0.0000 
     42 CG          6.8060    4.4580    8.6470 C.2       5 HIS483      0.0000 
     43 ND1         6.0630    4.9570    9.6950 N.pl3     5 HIS483      0.0000 
     44 CD2         7.6820    3.5810    9.1900 C.2       5 HIS483      0.0000 
     45 CE1         6.4760    4.4080   10.8240 C.2       5 HIS483      0.0000 
     46 NE2         7.4580    3.5700   10.5450 N.2       5 HIS483      0.0000 
     47 N           8.2690    2.9820    5.8070 N.am      6 ARG484      0.0000 
     48 CA          9.2760    1.9820    5.4810 C.3       6 ARG484      0.0000 
     49 C           9.6550    1.1700    6.7130 C.2       6 ARG484      0.0000 
     50 O           9.7930    1.7070    7.8150 O.2       6 ARG484      0.0000 
     51 CB         10.5180    2.6520    4.8870 C.3       6 ARG484      0.0000 
     52 CG         11.7180    1.7220    4.6940 C.3       6 ARG484      0.0000 
     53 CD         13.0450    2.4500    4.9230 C.3       6 ARG484      0.0000 
     54 NE         13.6000    2.9920    3.6840 N.pl3     6 ARG484      0.0000 
     55 CZ         14.5280    2.3850    2.9490 C.cat     6 ARG484      0.0000 
     56 NH1        15.0130    1.2060    3.3280 N.pl3     6 ARG484      0.0000 
     57 NH2        14.9720    2.9560    1.8330 N.pl3     6 ARG484      0.0000 
     58 N           9.8170   -0.1350    6.5170 N.am      7 MET485      0.0000 
     59 CA         10.2280   -1.0280    7.5930 C.3       7 MET485      0.0000 
     60 C          11.6870   -1.4470    7.4210 C.2       7 MET485      0.0000 
     61 O          12.3860   -0.9600    6.5290 O.2       7 MET485      0.0000 
     62 CB          9.3230   -2.2610    7.6450 C.3       7 MET485      0.0000 
     63 CG          7.8870   -1.9590    8.0770 C.3       7 MET485      0.0000 
     64 SD          7.7680   -1.2890    9.7580 S.3       7 MET485      0.0000 
     65 CE          6.7700    0.1760    9.4970 C.3       7 MET485      0.0000 
     66 N          -0.1980    6.3300    7.2870 N.am      8 SEP481      0.0000 
     67 CA         -0.1610    4.9820    6.7350 C.3       8 SEP481      0.0000 
     68 CB         -0.4530    5.0040    5.2270 C.3       8 SEP481      0.0000 
     69 OG          0.3580    5.9520    4.5460 O.3       8 SEP481      0.0000 
     70 C           1.1960    4.3370    7.0190 C.2       8 SEP481      0.0000 
     71 O           2.1000    4.9910    7.5500 O.2       8 SEP481      0.0000 
     72 P           0.3400    5.7360    2.9470 P.3       8 SEP481      0.0000 
     73 O1P        -0.5380    6.8690    2.2100 O.co2     8 SEP481      0.0000 
     74 O2P        -0.3030    4.3020    2.6040 O.co2     8 SEP481      0.0000 
     75 O3P         1.8630    5.7920    2.4290 O.co2     8 SEP481      0.0000 
@<TRIPOS>BOND
     1    1    2 1    
     2    2    3 1    
     3    2    5 1    
     4    3    4 2    
     5    3   12 am   
     6    5    6 1    
     7    6    7 1    
     8    7    8 1    
     9    8    9 ar   
    10    9   10 ar   
    11    9   11 ar   
    12   12   13 1    
    13   13   14 1    
    14   13   16 1    
    15   14   15 2    
    16   14   18 am   
    17   16   17 1    
    18   18   19 1    
    19   19   20 1    
    20   19   22 1    
    21   20   21 2    
    22   20   66 du   
    23   22   23 1    
    24   23   24 ar   
    25   23   25 ar   
    26   24   26 ar   
    27   25   27 ar   
    28   26   28 ar   
    29   27   28 ar   
    30   29   30 1    
    31   29   70 am   
    32   30   31 1    
    33   30   33 1    
    34   31   32 2    
    35   31   37 am   
    36   33   34 1    
    37   34   35 1    
    38   34   36 1    
    39   37   38 1    
    40   38   39 1    
    41   38   41 1    
    42   39   40 2    
    43   39   47 am   
    44   41   42 1    
    45   42   43 1    
    46   42   44 2    
    47   43   45 1    
    48   44   46 1    
    49   45   46 2    
    50   47   48 1    
    51   48   49 1    
    52   48   51 1    
    53   49   50 2    
    54   49   58 am   
    55   51   52 1    
    56   52   53 1    
    57   53   54 1    
    58   54   55 ar   
    59   55   56 ar   
    60   55   57 ar   
    61   58   59 1    
    62   59   60 1    
    63   59   62 1    
    64   60   61 2    
    65   62   63 1    
    66   63   64 1    
    67   64   65 1    
    68   66   67 1    
    69   67   68 1    
    70   67   70 1    
    71   68   69 1    
    72   69   72 1    
    73   70   71 2    
    74   72   73 ar   
    75   72   74 ar   
    76   72   75 ar   
@<TRIPOS>SUBSTRUCTURE
     1 ARG478      1 RESIDUE 
     2 SER479     12 RESIDUE 
     3 PHE480     18 RESIDUE 
     4 LEU482     29 RESIDUE 
     5 HIS483     37 RESIDUE 
     6 ARG484     47 RESIDUE 
     7 MET485     58 RESIDUE 
     8 SEP481     66 RESIDUE 
@<TRIPOS>SET

