#    Name: 6qk8_4_ARG_SER_PHE_LEU_HIS_ARG_MET_SEP
#    Modification time : Fri May 22 19:26:31 2020

@<TRIPOS>MOLECULE
6qk8_4_ARG_SER_PHE_LEU_HIS_ARG_MET_SEP
   69    70     8     0     0
SMALL
NO_CHARGES


@<TRIPOS>ATOM
      1 N          -2.7530   17.4260   12.5970 N.4       1 ARG478      0.0000 
      2 CA         -1.5280   17.7830   13.3080 C.3       1 ARG478      0.0000 
      3 C          -0.2850   17.1440   12.6620 C.2       1 ARG478      0.0000 
      4 O          -0.4020   16.2570   11.8100 O.2       1 ARG478      0.0000 
      5 CB         -1.6400   17.3800   14.7820 C.3       1 ARG478      0.0000 
      6 N           0.8980   17.6090   13.0690 N.am      2 SER479      0.0000 
      7 CA          2.1570   17.1420   12.5090 C.3       2 SER479      0.0000 
      8 C           2.5640   15.8080   13.1290 C.2       2 SER479      0.0000 
      9 O           1.9910   15.3440   14.1190 O.2       2 SER479      0.0000 
     10 CB          3.2570   18.1760   12.7290 C.3       2 SER479      0.0000 
     11 OG          2.8820   19.4370   12.2070 O.3       2 SER479      0.0000 
     12 N           3.5740   15.1900   12.5320 N.am      3 PHE480      0.0000 
     13 CA          4.0760   13.9160   13.0170 C.3       3 PHE480      0.0000 
     14 C           5.4510   14.1250   13.6500 C.2       3 PHE480      0.0000 
     15 O           6.3880   14.4910   12.9520 O.2       3 PHE480      0.0000 
     16 CB          4.1500   12.9000   11.8690 C.3       3 PHE480      0.0000 
     17 CG          4.3480   11.4790   12.3220 C.ar      3 PHE480      0.0000 
     18 CD1         3.2690   10.7040   12.7140 C.ar      3 PHE480      0.0000 
     19 CD2         5.6150   10.9180   12.3510 C.ar      3 PHE480      0.0000 
     20 CE1         3.4490    9.3960   13.1350 C.ar      3 PHE480      0.0000 
     21 CE2         5.8020    9.6080   12.7710 C.ar      3 PHE480      0.0000 
     22 CZ          4.7180    8.8480   13.1620 C.ar      3 PHE480      0.0000 
     23 N           8.7110   12.5350   16.2300 N.am      4 LEU482      0.0000 
     24 CA          9.5550   11.3410   16.1740 C.3       4 LEU482      0.0000 
     25 C           9.0340   10.2520   17.1500 C.2       4 LEU482      0.0000 
     26 O           8.7800   10.5280   18.3310 O.2       4 LEU482      0.0000 
     27 CB         10.9980   11.7010   16.4860 C.3       4 LEU482      0.0000 
     28 CG         11.8470   10.4360   16.6950 C.3       4 LEU482      0.0000 
     29 CD1        11.9190    9.7160   15.3590 C.3       4 LEU482      0.0000 
     30 CD2        13.2230   10.7580   17.2080 C.3       4 LEU482      0.0000 
     31 N           8.8740    9.0470   16.6360 N.am      5 HIS483      0.0000 
     32 CA          8.3020    7.9170   17.3800 C.3       5 HIS483      0.0000 
     33 C           9.4370    7.0140   17.8570 C.2       5 HIS483      0.0000 
     34 O          10.6040    7.4160   17.8610 O.2       5 HIS483      0.0000 
     35 CB          7.2880    7.1620   16.5160 C.3       5 HIS483      0.0000 
     36 CG          5.9280    7.8020   16.5070 C.2       5 HIS483      0.0000 
     37 ND1         5.7600    9.1720   16.5020 N.pl3     5 HIS483      0.0000 
     38 CD2         4.6790    7.2720   16.4850 C.2       5 HIS483      0.0000 
     39 CE1         4.4690    9.4550   16.4740 C.2       5 HIS483      0.0000 
     40 NE2         3.7920    8.3210   16.4620 N.2       5 HIS483      0.0000 
     41 N           9.1010    5.8100   18.3280 N.am      6 ARG484      0.0000 
     42 CA         10.1030    4.8850   18.8720 C.3       6 ARG484      0.0000 
     43 C          11.2540    4.6620   17.8910 C.2       6 ARG484      0.0000 
     44 O          11.0500    4.5180   16.6790 O.2       6 ARG484      0.0000 
     45 CB          9.4500    3.5560   19.2310 C.3       6 ARG484      0.0000 
     46 CG         10.3340    2.6360   20.0740 C.3       6 ARG484      0.0000 
     47 CD         10.2310    1.1850   19.6230 C.3       6 ARG484      0.0000 
     48 NE         11.3300    0.8140   18.7360 N.pl3     6 ARG484      0.0000 
     49 CZ         12.5580    0.5080   19.1520 C.cat     6 ARG484      0.0000 
     50 NH1        12.8530    0.5270   20.4490 N.pl3     6 ARG484      0.0000 
     51 NH2        13.4950    0.1800   18.2700 N.pl3     6 ARG484      0.0000 
     52 N          12.4630    4.6010   18.4380 N.am      7 MET485      0.0000 
     53 CA         13.6810    4.4550   17.6470 C.3       7 MET485      0.0000 
     54 C          14.3850    3.1370   17.9300 C.2       7 MET485      0.0000 
     55 O          14.6560    2.8140   19.0810 O.2       7 MET485      0.0000 
     56 CB         14.6290    5.6310   17.9070 C.3       7 MET485      0.0000 
     57 CG         14.1560    6.9100   17.2420 C.3       7 MET485      0.0000 
     58 SD         14.6130    6.9810   15.4920 S.3       7 MET485      0.0000 
     59 CE         13.2050    6.1980   14.6980 C.3       7 MET485      0.0000 
     60 N           5.5550   13.9160   14.9640 N.am      8 SEP481      0.0000 
     61 CA          6.8350   13.9570   15.6660 C.3       8 SEP481      0.0000 
     62 CB          6.6310   14.4550   17.1040 C.3       8 SEP481      0.0000 
     63 OG          5.8390   13.5320   17.8260 O.3       8 SEP481      0.0000 
     64 C           7.5050   12.5980   15.6590 C.2       8 SEP481      0.0000 
     65 O           6.9690   11.6030   15.1580 O.2       8 SEP481      0.0000 
     66 P           5.7330   14.0120   19.3520 P.3       8 SEP481      0.0000 
     67 O1P         5.0530   15.4700   19.4360 O.co2     8 SEP481      0.0000 
     68 O2P         7.2540   14.0380   19.8960 O.co2     8 SEP481      0.0000 
     69 O3P         4.7710   12.9900   20.1480 O.co2     8 SEP481      0.0000 
@<TRIPOS>BOND
     1    1    2 1    
     2    2    3 1    
     3    2    5 1    
     4    3    4 2    
     5    3    6 am   
     6    6    7 1    
     7    7    8 1    
     8    7   10 1    
     9    8    9 2    
    10    8   12 am   
    11   10   11 1    
    12   12   13 1    
    13   13   14 1    
    14   13   16 1    
    15   14   15 2    
    16   14   60 du   
    17   16   17 1    
    18   17   18 ar   
    19   17   19 ar   
    20   18   20 ar   
    21   19   21 ar   
    22   20   22 ar   
    23   21   22 ar   
    24   23   24 1    
    25   23   64 am   
    26   24   25 1    
    27   24   27 1    
    28   25   26 2    
    29   25   31 am   
    30   27   28 1    
    31   28   29 1    
    32   28   30 1    
    33   31   32 1    
    34   32   33 1    
    35   32   35 1    
    36   33   34 2    
    37   33   41 am   
    38   35   36 1    
    39   36   37 1    
    40   36   38 2    
    41   37   39 1    
    42   38   40 1    
    43   39   40 2    
    44   41   42 1    
    45   42   43 1    
    46   42   45 1    
    47   43   44 2    
    48   43   52 am   
    49   45   46 1    
    50   46   47 1    
    51   47   48 1    
    52   48   49 ar   
    53   49   50 ar   
    54   49   51 ar   
    55   52   53 1    
    56   53   54 1    
    57   53   56 1    
    58   54   55 2    
    59   56   57 1    
    60   57   58 1    
    61   58   59 1    
    62   60   61 1    
    63   61   62 1    
    64   61   64 1    
    65   62   63 1    
    66   63   66 1    
    67   64   65 2    
    68   66   67 ar   
    69   66   68 ar   
    70   66   69 ar   
@<TRIPOS>SUBSTRUCTURE
     1 ARG478      1 RESIDUE 
     2 SER479      6 RESIDUE 
     3 PHE480     12 RESIDUE 
     4 LEU482     23 RESIDUE 
     5 HIS483     31 RESIDUE 
     6 ARG484     41 RESIDUE 
     7 MET485     52 RESIDUE 
     8 SEP481     60 RESIDUE 
@<TRIPOS>SET

