#    Name: 6qk8_2_ARG_SER_PHE_LEU_HIS_ARG_MET_SEP
#    Modification time : Fri May 22 19:26:14 2020

@<TRIPOS>MOLECULE
6qk8_2_ARG_SER_PHE_LEU_HIS_ARG_MET_SEP
   60    61     8     0     0
SMALL
NO_CHARGES


@<TRIPOS>ATOM
      1 N          32.4810   17.6100    2.7020 N.4       1 ARG478      0.0000 
      2 CA         32.3110   18.2070    4.0200 C.3       1 ARG478      0.0000 
      3 C          32.4430   19.7280    3.9460 C.2       1 ARG478      0.0000 
      4 O          32.0460   20.4320    4.8730 O.2       1 ARG478      0.0000 
      5 CB         33.3250   17.6240    5.0130 C.3       1 ARG478      0.0000 
      6 N          32.9960   20.2310    2.8420 N.am      2 SER479      0.0000 
      7 CA         33.0880   21.6700    2.6260 C.3       2 SER479      0.0000 
      8 C          31.7500   22.2130    2.1470 C.2       2 SER479      0.0000 
      9 O          31.0420   21.5660    1.3700 O.2       2 SER479      0.0000 
     10 CB         34.1740   22.0060    1.6020 C.3       2 SER479      0.0000 
     11 OG         35.3390   21.2210    1.7910 O.3       2 SER479      0.0000 
     12 N          31.4040   23.4070    2.6120 N.am      3 PHE480      0.0000 
     13 CA         30.1310   24.0080    2.2400 C.3       3 PHE480      0.0000 
     14 C          30.2990   24.9460    1.0490 C.2       3 PHE480      0.0000 
     15 O          31.1230   25.8640    1.0770 O.2       3 PHE480      0.0000 
     16 CB         29.5180   24.7660    3.4220 C.3       3 PHE480      0.0000 
     17 CG         29.5250   23.9970    4.7120 C.ar      3 PHE480      0.0000 
     18 CD1        28.6160   22.9710    4.9330 C.ar      3 PHE480      0.0000 
     19 CD2        30.4390   24.3000    5.7110 C.ar      3 PHE480      0.0000 
     20 CE1        28.6220   22.2620    6.1260 C.ar      3 PHE480      0.0000 
     21 CE2        30.4480   23.5910    6.9060 C.ar      3 PHE480      0.0000 
     22 CZ         29.5380   22.5740    7.1110 C.ar      3 PHE480      0.0000 
     23 N          27.7540   27.2720   -1.8110 N.am      4 LEU482      0.0000 
     24 CA         26.5980   28.1400   -1.6410 C.3       4 LEU482      0.0000 
     25 C          25.2870   27.3650   -1.6910 C.2       4 LEU482      0.0000 
     26 O          25.1310   26.4400   -2.4900 O.2       4 LEU482      0.0000 
     27 CB         26.5900   29.2340   -2.7100 C.3       4 LEU482      0.0000 
     28 CG         25.6830   30.4140   -2.3710 C.3       4 LEU482      0.0000 
     29 CD1        25.9180   30.7880   -0.9310 C.3       4 LEU482      0.0000 
     30 CD2        25.9200   31.6000   -3.2850 C.3       4 LEU482      0.0000 
     31 N          24.3500   27.7410   -0.8260 N.am      5 HIS483      0.0000 
     32 CA         22.9920   27.2170   -0.8790 C.3       5 HIS483      0.0000 
     33 C          22.0430   28.3090   -0.3960 C.2       5 HIS483      0.0000 
     34 O          22.4470   29.4570   -0.1890 O.2       5 HIS483      0.0000 
     35 CB         22.8550   25.9150   -0.0730 C.3       5 HIS483      0.0000 
     36 CG         23.7100   25.8530    1.1570 C.2       5 HIS483      0.0000 
     37 ND1        23.4240   26.5690    2.3010 N.pl3     5 HIS483      0.0000 
     38 CD2        24.8220   25.1300    1.4350 C.2       5 HIS483      0.0000 
     39 CE1        24.3320   26.3030    3.2230 C.2       5 HIS483      0.0000 
     40 NE2        25.1910   25.4320    2.7230 N.2       5 HIS483      0.0000 
     41 N          20.7710   27.9470   -0.2140 N.am      6 ARG484      0.0000 
     42 CA         19.7490   28.9290    0.1290 C.3       6 ARG484      0.0000 
     43 C          19.8960   29.4800    1.5420 C.2       6 ARG484      0.0000 
     44 O          19.2440   30.4790    1.8660 O.2       6 ARG484      0.0000 
     45 CB         18.3570   28.3190   -0.0430 C.3       6 ARG484      0.0000 
     46 N          20.7210   28.8650    2.3840 N.am      7 MET485      0.0000 
     47 CA         20.9250   29.3680    3.7360 C.3       7 MET485      0.0000 
     48 C          22.3890   29.2510    4.1490 C.2       7 MET485      0.0000 
     49 O          23.2880   29.6920    3.4280 O.2       7 MET485      0.0000 
     50 CB         20.0310   28.6200    4.7260 C.3       7 MET485      0.0000 
     51 N          29.5300   24.7080   -0.0050 N.am      8 SEP481      0.0000 
     52 CA         29.4410   25.6810   -1.0760 C.3       8 SEP481      0.0000 
     53 CB         29.4040   25.0070   -2.4450 C.3       8 SEP481      0.0000 
     54 OG         28.1690   24.3480   -2.6330 O.3       8 SEP481      0.0000 
     55 C          28.1820   26.5010   -0.8190 C.2       8 SEP481      0.0000 
     56 O          27.6060   26.4310    0.2700 O.2       8 SEP481      0.0000 
     57 P          28.1830   23.3880   -3.9220 P.3       8 SEP481      0.0000 
     58 O1P        28.1850   24.2560   -5.2730 O.co2     8 SEP481      0.0000 
     59 O2P        29.5330   22.5110   -3.9270 O.co2     8 SEP481      0.0000 
     60 O3P        26.8590   22.4690   -3.8420 O.co2     8 SEP481      0.0000 
@<TRIPOS>BOND
     1    1    2 1    
     2    2    3 1    
     3    2    5 1    
     4    3    4 2    
     5    3    6 am   
     6    6    7 1    
     7    7    8 1    
     8    7   10 1    
     9    8    9 2    
    10    8   12 am   
    11   10   11 1    
    12   12   13 1    
    13   13   14 1    
    14   13   16 1    
    15   14   15 2    
    16   14   51 du   
    17   16   17 1    
    18   17   18 ar   
    19   17   19 ar   
    20   18   20 ar   
    21   19   21 ar   
    22   20   22 ar   
    23   21   22 ar   
    24   23   24 1    
    25   23   55 am   
    26   24   25 1    
    27   24   27 1    
    28   25   26 2    
    29   25   31 am   
    30   27   28 1    
    31   28   29 1    
    32   28   30 1    
    33   31   32 1    
    34   32   33 1    
    35   32   35 1    
    36   33   34 2    
    37   33   41 am   
    38   35   36 1    
    39   36   37 1    
    40   36   38 2    
    41   37   39 1    
    42   38   40 1    
    43   39   40 2    
    44   41   42 1    
    45   42   43 1    
    46   42   45 1    
    47   43   44 2    
    48   43   46 am   
    49   46   47 1    
    50   47   48 1    
    51   47   50 1    
    52   48   49 2    
    53   51   52 1    
    54   52   53 1    
    55   52   55 1    
    56   53   54 1    
    57   54   57 1    
    58   55   56 2    
    59   57   58 ar   
    60   57   59 ar   
    61   57   60 ar   
@<TRIPOS>SUBSTRUCTURE
     1 ARG478      1 RESIDUE 
     2 SER479      6 RESIDUE 
     3 PHE480     12 RESIDUE 
     4 LEU482     23 RESIDUE 
     5 HIS483     31 RESIDUE 
     6 ARG484     41 RESIDUE 
     7 MET485     46 RESIDUE 
     8 SEP481     51 RESIDUE 
@<TRIPOS>SET

