#    Name: 5x71_1_5GP
#    Modification time : Fri May 22 19:19:13 2020

@<TRIPOS>MOLECULE
5x71_1_5GP
   24    26     1     0     0
SMALL
NO_CHARGES


@<TRIPOS>ATOM
      1 P         -11.1330   19.4670   33.4630 P.3       1 5GP901      0.0000 
      2 O1P       -10.8780   18.3720   32.4500 O.co2     1 5GP901      0.0000 
      3 O2P        -9.9630   20.3920   33.7060 O.co2     1 5GP901      0.0000 
      4 O3P       -12.4510   20.1950   33.2850 O.co2     1 5GP901      0.0000 
      5 O5'       -11.2730   18.5960   34.7950 O.3       1 5GP901      0.0000 
      6 C5'       -11.9650   19.0790   35.9370 C.3       1 5GP901      0.0000 
      7 C4'       -11.0810   19.0410   37.1530 C.3       1 5GP901      0.0000 
      8 O4'       -10.6600   17.6740   37.4080 O.3       1 5GP901      0.0000 
      9 C3'        -9.7800   19.8070   37.0160 C.3       1 5GP901      0.0000 
     10 O3'        -9.9330   21.1990   37.2320 O.3       1 5GP901      0.0000 
     11 C2'        -8.8740   19.1090   38.0240 C.3       1 5GP901      0.0000 
     12 O2'        -9.1640   19.5360   39.3430 O.3       1 5GP901      0.0000 
     13 C1'        -9.3260   17.6570   37.8770 C.3       1 5GP901      0.0000 
     14 N9         -8.5000   16.9440   36.8850 N.pl3     1 5GP901      0.0000 
     15 C8         -8.8840   16.6550   35.6310 C.2       1 5GP901      0.0000 
     16 N7         -7.8800   16.0120   34.9890 N.2       1 5GP901      0.0000 
     17 C5         -6.8610   15.8940   35.8630 C.2       1 5GP901      0.0000 
     18 C6         -5.5970   15.3330   35.7620 C.2       1 5GP901      0.0000 
     19 O6         -5.2450   14.7970   34.6880 O.2       1 5GP901      0.0000 
     20 N1         -4.7700   15.3670   36.8180 N.am      1 5GP901      0.0000 
     21 C2         -5.1580   15.9410   37.9700 C.2       1 5GP901      0.0000 
     22 N2         -4.3060   15.9660   39.0240 N.pl3     1 5GP901      0.0000 
     23 N3         -6.3870   16.4990   38.0960 N.2       1 5GP901      0.0000 
     24 C4         -7.2540   16.4800   37.0560 C.2       1 5GP901      0.0000 
@<TRIPOS>BOND
     1    1    2 ar   
     2    1    3 ar   
     3    1    4 ar   
     4    1    5 1    
     5    5    6 1    
     6    6    7 1    
     7    7    8 1    
     8    7    9 1    
     9    8   13 1    
    10    9   10 1    
    11    9   11 1    
    12   11   12 1    
    13   11   13 1    
    14   13   14 1    
    15   14   15 1    
    16   14   24 1    
    17   15   16 2    
    18   16   17 1    
    19   17   18 1    
    20   17   24 2    
    21   18   19 2    
    22   18   20 am   
    23   20   21 1    
    24   21   22 1    
    25   21   23 2    
    26   23   24 1    
@<TRIPOS>SUBSTRUCTURE
     1 5GP901      1 GROUP   
@<TRIPOS>SET

