#    Name: 5x71_2_5GP_CAVITY_N1_6
#    Modification time : Fri May 22 19:19:19 2020

@<TRIPOS>MOLECULE
5x71_2_5GP_CAVITY_N1_6
  122     0     7     0     0
SMALL
NO_CHARGES


@<TRIPOS>ATOM
      1 OG         24.6800   46.9400   30.3700 O.3       1 SER1        0.0000 
      2 OG         25.6300   46.2600   31.3200 O.3       1 SER1        0.0000 
      3 OG         19.7300   51.1200   31.1700 O.3       1 SER1        0.0000 
      4 OG         20.4200   52.4300   31.4100 O.3       1 SER1        0.0000 
      5 OG         24.1700   50.9000   28.9500 O.3       1 SER1        0.0000 
      6 OG         22.3000   51.4700   31.2200 O.3       1 SER1        0.0000 
      7 OG         21.3600   51.7600   32.3600 O.3       1 SER1        0.0000 
      8 OG         20.1600   54.4100   30.7000 O.3       1 SER1        0.0000 
      9 OG         22.0400   53.4600   30.5100 O.3       1 SER1        0.0000 
     10 OG         21.1100   53.7400   31.6500 O.3       1 SER1        0.0000 
     11 OG         25.8000   51.9200   28.0500 O.3       1 SER1        0.0000 
     12 OG         24.8600   52.2100   29.1900 O.3       1 SER1        0.0000 
     13 OG         23.9300   52.5000   30.3200 O.3       1 SER1        0.0000 
     14 OG         22.9900   52.7800   31.4600 O.3       1 SER1        0.0000 
     15 OG         25.8100   51.5400   30.1400 O.3       1 SER1        0.0000 
     16 OG         27.6900   50.5800   29.9500 O.3       1 SER1        0.0000 
     17 OG         26.7600   50.8700   31.0900 O.3       1 SER1        0.0000 
     18 OG         25.5500   53.5200   29.4200 O.3       1 SER1        0.0000 
     19 OG         26.5000   52.8500   30.3700 O.3       1 SER1        0.0000 
     20 OG         27.4500   52.1800   31.3200 O.3       1 SER1        0.0000 
     21 OG         27.1900   54.1600   30.6100 O.3       1 SER1        0.0000 
     22 N          26.5700   45.9800   30.1800 N.am      2 ALA2        0.0000 
     23 O          25.3600   48.6300   28.5200 O.2       2 ALA2        0.0000 
     24 N          27.2600   47.2900   30.4200 N.am      2 ALA2        0.0000 
     25 N          26.3200   47.5700   31.5600 N.am      2 ALA2        0.0000 
     26 O          25.1100   50.6100   27.8100 O.2       2 ALA2        0.0000 
     27 N          20.4300   52.0500   33.5000 N.am      2 ALA2        0.0000 
     28 O          26.0500   49.9400   28.7600 O.2       2 ALA2        0.0000 
     29 O          27.0000   49.2700   29.7100 O.2       2 ALA2        0.0000 
     30 O          27.9500   48.6000   30.6600 O.2       2 ALA2        0.0000 
     31 O          27.0100   48.8800   31.8000 O.2       2 ALA2        0.0000 
     32 N          19.2100   55.0900   29.7500 N.am      2 ALA2        0.0000 
     33 N          20.1700   54.0300   32.7800 N.am      2 ALA2        0.0000 
     34 N          21.1200   53.3600   33.7300 N.am      2 ALA2        0.0000 
     35 O          27.7000   50.1900   32.0300 O.2       2 ALA2        0.0000 
     36 N          20.8600   55.3400   33.0200 N.am      2 ALA2        0.0000 
     37 N          21.8100   54.6700   33.9700 N.am      2 ALA2        0.0000 
     38 O          28.3900   51.5000   32.2700 O.2       2 ALA2        0.0000 
     39 O          22.5000   55.9800   34.2100 O.2       2 ALA2        0.0000 
     40 O          23.4500   55.3100   35.1600 O.2       2 ALA2        0.0000 
     41 N          28.1400   53.4900   31.5600 N.am      2 ALA2        0.0000 
     42 N          27.2000   53.7700   32.7000 N.am      2 ALA2        0.0000 
     43 N          29.0900   52.8100   32.5100 N.am      2 ALA2        0.0000 
     44 N          28.1500   53.1000   33.6500 N.am      2 ALA2        0.0000 
     45 O          30.9700   51.8600   32.3200 O.2       2 ALA2        0.0000 
     46 O          30.0300   52.1400   33.4600 O.2       2 ALA2        0.0000 
     47 N          26.9600   55.3700   34.0700 N.am      2 ALA2        0.0000 
     48 N          26.0200   55.6600   35.2100 N.am      2 ALA2        0.0000 
     49 N          30.7100   53.8400   31.6100 N.am      2 ALA2        0.0000 
     50 N          29.7800   54.1200   32.7500 N.am      2 ALA2        0.0000 
     51 N          28.8400   54.4100   33.8800 N.am      2 ALA2        0.0000 
     52 N          27.9000   54.7000   35.0200 N.am      2 ALA2        0.0000 
     53 O          26.9700   54.9900   36.1600 O.2       2 ALA2        0.0000 
     54 N          30.7200   53.4500   33.7000 N.am      2 ALA2        0.0000 
     55 N          29.5300   55.7200   34.1200 N.am      2 ALA2        0.0000 
     56 OD1        19.9800   49.1400   31.8800 O.co2     3 ASP3        0.0000 
     57 OD1        23.7400   47.6100   29.4200 O.co2     3 ASP3        0.0000 
     58 OD1        22.8000   47.8900   30.5600 O.co2     3 ASP3        0.0000 
     59 OD1        21.8700   48.1800   31.7000 O.co2     3 ASP3        0.0000 
     60 OD1        25.6200   46.6500   29.2400 O.co2     3 ASP3        0.0000 
     61 OD1        20.6700   50.4500   32.1200 O.co2     3 ASP3        0.0000 
     62 OD1        19.7400   50.7400   33.2600 O.co2     3 ASP3        0.0000 
     63 OD1        22.5600   49.4900   31.9300 O.co2     3 ASP3        0.0000 
     64 OD1        26.3100   47.9600   29.4700 O.co2     3 ASP3        0.0000 
     65 OD1        23.2500   50.8000   32.1700 O.co2     3 ASP3        0.0000 
     66 OD1        22.3100   51.0900   33.3100 O.co2     3 ASP3        0.0000 
     67 OD1        23.0000   52.4000   33.5500 O.co2     3 ASP3        0.0000 
     68 OD1        23.6900   53.7100   33.7800 O.co2     3 ASP3        0.0000 
     69 OD1        22.7600   54.0000   34.9200 O.co2     3 ASP3        0.0000 
     70 OD1        24.6400   53.0400   34.7300 O.co2     3 ASP3        0.0000 
     71 NZ         18.7900   51.4100   32.3100 N.4       4 LYS4        0.0000 
     72 NZ         18.5300   53.3900   31.6000 N.4       4 LYS4        0.0000 
     73 NZ         19.4800   52.7200   32.5500 N.4       4 LYS4        0.0000 
     74 NZ         19.2200   54.7000   31.8300 N.4       4 LYS4        0.0000 
     75 CZ         20.9200   48.8500   30.7500 C.ar      5 PHE5        0.0000 
     76 CZ         24.4300   48.9200   29.6600 C.ar      5 PHE5        0.0000 
     77 CZ         23.4900   49.2000   30.8000 C.ar      5 PHE5        0.0000 
     78 CZ         23.2400   51.1900   30.0900 C.ar      5 PHE5        0.0000 
     79 CZ         20.1500   54.8000   28.6100 C.ar      5 PHE5        0.0000 
     80 CZ         21.1000   54.1300   29.5600 C.ar      5 PHE5        0.0000 
     81 CZ         23.9100   52.8800   28.2400 C.ar      5 PHE5        0.0000 
     82 CZ         22.9800   53.1700   29.3700 C.ar      5 PHE5        0.0000 
     83 CZ         22.7200   55.1500   28.6600 C.ar      5 PHE5        0.0000 
     84 CZ         21.7900   55.4400   29.8000 C.ar      5 PHE5        0.0000 
     85 CZ         20.8500   55.7200   30.9400 C.ar      5 PHE5        0.0000 
     86 CZ         22.7300   54.7700   30.7500 C.ar      5 PHE5        0.0000 
     87 CZ         21.8000   55.0500   31.8800 C.ar      5 PHE5        0.0000 
     88 CZ         26.2400   54.8300   29.6600 C.ar      5 PHE5        0.0000 
     89 CZ         24.3700   55.4000   31.9400 C.ar      5 PHE5        0.0000 
     90 CZ         23.4400   55.6900   33.0700 C.ar      5 PHE5        0.0000 
     91 CZ         25.3200   54.7300   32.8800 C.ar      5 PHE5        0.0000 
     92 CZ         24.3800   55.0200   34.0200 C.ar      5 PHE5        0.0000 
     93 CZ         30.0200   52.5300   31.3700 C.ar      5 PHE5        0.0000 
     94 CA         24.6100   54.1900   28.4700 C.3       6 GLY6        0.0000 
     95 CA         23.6700   54.4800   29.6100 C.3       6 GLY6        0.0000 
     96 CA         24.3600   55.7900   29.8500 C.3       6 GLY6        0.0000 
     97 CA         25.3100   55.1200   30.8000 C.3       6 GLY6        0.0000 
     98 CA         26.2600   54.4400   31.7500 C.3       6 GLY6        0.0000 
     99 CA         25.3300   54.3500   34.9700 C.3       6 GLY6        0.0000 
    100 CA         26.2800   53.6800   35.9200 C.3       6 GLY6        0.0000 
    101 DU         23.7500   47.2200   31.5100 H         7 CUB7        0.0000 
    102 DU         24.7000   46.5500   32.4600 H         7 CUB7        0.0000 
    103 DU         25.3800   48.2500   30.6100 H         7 CUB7        0.0000 
    104 DU         24.4400   48.5300   31.7500 H         7 CUB7        0.0000 
    105 DU         25.1200   50.2300   29.9000 H         7 CUB7        0.0000 
    106 DU         24.1800   50.5100   31.0300 H         7 CUB7        0.0000 
    107 DU         26.0700   49.5600   30.8500 H         7 CUB7        0.0000 
    108 DU         22.0500   53.0700   32.6000 H         7 CUB7        0.0000 
    109 DU         24.8700   51.8200   31.2700 H         7 CUB7        0.0000 
    110 DU         23.9400   52.1100   32.4100 H         7 CUB7        0.0000 
    111 DU         25.8200   51.1500   32.2200 H         7 CUB7        0.0000 
    112 DU         24.8900   51.4400   33.3600 H         7 CUB7        0.0000 
    113 DU         24.6200   53.8100   30.5600 H         7 CUB7        0.0000 
    114 DU         23.6800   54.0900   31.7000 H         7 CUB7        0.0000 
    115 DU         22.7500   54.3800   32.8300 H         7 CUB7        0.0000 
    116 DU         25.5600   53.1300   31.5100 H         7 CUB7        0.0000 
    117 DU         24.6300   53.4200   32.6500 H         7 CUB7        0.0000 
    118 DU         26.5100   52.4600   32.4600 H         7 CUB7        0.0000 
    119 DU         25.5800   52.7500   33.6000 H         7 CUB7        0.0000 
    120 DU         27.4600   51.7900   33.4100 H         7 CUB7        0.0000 
    121 DU         26.2700   54.0600   33.8300 H         7 CUB7        0.0000 
    122 DU         27.2100   53.3900   34.7800 H         7 CUB7        0.0000 
@<TRIPOS>BOND
@<TRIPOS>SUBSTRUCTURE
     1 SER1        1 GROUP   
     2 ALA2       22 GROUP   
     3 ASP3       56 GROUP   
     4 LYS4       71 GROUP   
     5 PHE5       75 GROUP   
     6 GLY6       94 GROUP   
     7 CUB7      101 GROUP   
@<TRIPOS>SET

