#    Name: 5x71_1_5GP_CAVITY_N1_8
#    Modification time : Fri May 22 19:19:14 2020

@<TRIPOS>MOLECULE
5x71_1_5GP_CAVITY_N1_8
  161     0     7     0     0
SMALL
NO_CHARGES


@<TRIPOS>ATOM
      1 OG        -10.8700   18.6500   33.9800 O.3       1 SER1        0.0000 
      2 OG        -11.8000   18.9400   35.1200 O.3       1 SER1        0.0000 
      3 OG        -12.7400   19.2300   36.2600 O.3       1 SER1        0.0000 
      4 OG         -9.9200   17.9800   34.9300 O.3       1 SER1        0.0000 
      5 OG         -7.0900   16.3500   35.6900 O.3       1 SER1        0.0000 
      6 OG        -12.0600   20.9200   34.4100 O.3       1 SER1        0.0000 
      7 OG        -10.1800   19.9600   34.2200 O.3       1 SER1        0.0000 
      8 OG         -4.5200   16.7000   35.7400 O.3       1 SER1        0.0000 
      9 OG         -5.4500   16.9900   36.8800 O.3       1 SER1        0.0000 
     10 OG         -9.5000   21.6600   32.3700 O.3       1 SER1        0.0000 
     11 OG         -9.4800   21.2700   34.4600 O.3       1 SER1        0.0000 
     12 OG         -5.7100   18.9700   36.1700 O.3       1 SER1        0.0000 
     13 OG         -3.8200   18.0100   35.9800 O.3       1 SER1        0.0000 
     14 OG         -8.8300   23.7400   28.4400 O.3       1 SER1        0.0000 
     15 OG        -10.6900   23.9300   32.8000 O.3       1 SER1        0.0000 
     16 OG        -11.6200   24.2100   33.9300 O.3       1 SER1        0.0000 
     17 OG         -4.0800   19.9900   35.2700 O.3       1 SER1        0.0000 
     18 OG         -8.1400   25.0500   28.6800 O.3       1 SER1        0.0000 
     19 OG        -10.0100   25.6200   30.9500 O.3       1 SER1        0.0000 
     20 OG         -9.0600   24.9500   31.9000 O.3       1 SER1        0.0000 
     21 OG        -11.8700   25.8100   35.3100 O.3       1 SER1        0.0000 
     22 OG         -9.0500   24.5700   33.9800 O.3       1 SER1        0.0000 
     23 OG         -9.9900   24.8500   35.1200 O.3       1 SER1        0.0000 
     24 OG         -8.0800   23.1200   39.1100 O.3       1 SER1        0.0000 
     25 OG         -7.1300   22.4500   40.0600 O.3       1 SER1        0.0000 
     26 OG         -8.0700   22.7400   41.1900 O.3       1 SER1        0.0000 
     27 OG         -7.1200   22.0700   42.1400 O.3       1 SER1        0.0000 
     28 OG         -8.3700   26.2600   32.1400 O.3       1 SER1        0.0000 
     29 OG         -8.3600   25.8800   34.2200 O.3       1 SER1        0.0000 
     30 OG         -9.3000   26.1600   35.3600 O.3       1 SER1        0.0000 
     31 OG         -7.6800   27.5700   32.3700 O.3       1 SER1        0.0000 
     32 N         -11.7900   18.5600   37.2100 N.am      2 ALA2        0.0000 
     33 N          -5.1900   15.0100   37.5900 N.am      2 ALA2        0.0000 
     34 O         -12.0700   21.3100   32.3200 O.2       2 ALA2        0.0000 
     35 N         -13.0100   21.5900   33.4600 N.am      2 ALA2        0.0000 
     36 O         -10.1900   20.3500   32.1300 O.2       2 ALA2        0.0000 
     37 O         -11.1200   20.6400   33.2700 O.2       2 ALA2        0.0000 
     38 O         -12.9900   21.2100   35.5400 O.2       2 ALA2        0.0000 
     39 O         -13.9300   21.5000   36.6800 O.2       2 ALA2        0.0000 
     40 N          -6.3900   17.2800   38.0200 N.am      2 ALA2        0.0000 
     41 N          -7.3200   17.5600   39.1500 N.am      2 ALA2        0.0000 
     42 N          -4.5000   16.3200   37.8300 N.am      2 ALA2        0.0000 
     43 N          -5.4400   16.6000   38.9700 N.am      2 ALA2        0.0000 
     44 N          -3.5600   15.6500   38.7800 N.am      2 ALA2        0.0000 
     45 N         -13.2500   23.1900   34.8300 N.am      2 ALA2        0.0000 
     46 N         -14.1900   23.4800   35.9700 N.am      2 ALA2        0.0000 
     47 N          -5.7000   18.5900   38.2600 N.am      2 ALA2        0.0000 
     48 N          -6.6300   18.8700   39.3900 N.am      2 ALA2        0.0000 
     49 N          -7.5700   19.1600   40.5300 N.am      2 ALA2        0.0000 
     50 N          -7.8800   23.0700   29.3900 N.am      2 ALA2        0.0000 
     51 N         -12.5600   24.5000   35.0700 N.am      2 ALA2        0.0000 
     52 N         -12.5500   24.1200   37.1600 N.am      2 ALA2        0.0000 
     53 N          -6.8800   20.4700   40.7700 N.am      2 ALA2        0.0000 
     54 N          -7.1900   24.3800   29.6200 N.am      2 ALA2        0.0000 
     55 OD1       -13.6700   19.5100   37.3900 O.co2     3 ASP3        0.0000 
     56 OD1       -12.0400   20.1500   38.5800 O.co2     3 ASP3        0.0000 
     57 OD1       -13.2600   23.5800   32.7500 O.co2     3 ASP3        0.0000 
     58 OD1       -11.3800   22.6200   32.5600 O.co2     3 ASP3        0.0000 
     59 OD1       -12.3200   22.9000   33.7000 O.co2     3 ASP3        0.0000 
     60 OD1        -9.7600   24.0200   29.5700 O.co2     3 ASP3        0.0000 
     61 OD1       -11.6400   24.6000   31.8500 O.co2     3 ASP3        0.0000 
     62 OD1        -9.7500   23.6400   31.6600 O.co2     3 ASP3        0.0000 
     63 OD1        -8.8100   22.9700   32.6100 O.co2     3 ASP3        0.0000 
     64 OD1        -9.7400   23.2600   33.7500 O.co2     3 ASP3        0.0000 
     65 OD1        -8.7900   22.5800   34.7000 O.co2     3 ASP3        0.0000 
     66 OD1        -8.1300   24.6600   30.7600 O.co2     3 ASP3        0.0000 
     67 OD1        -8.1000   23.8900   34.9300 O.co2     3 ASP3        0.0000 
     68 OD1        -9.0400   24.1800   36.0700 O.co2     3 ASP3        0.0000 
     69 OD1        -8.0900   23.5100   37.0200 O.co2     3 ASP3        0.0000 
     70 OD1        -5.2700   22.2600   35.7000 O.co2     3 ASP3        0.0000 
     71 OD1        -6.2100   22.5500   36.8300 O.co2     3 ASP3        0.0000 
     72 OD1        -7.1400   22.8400   37.9700 O.co2     3 ASP3        0.0000 
     73 OD1        -7.4400   25.9700   31.0000 O.co2     3 ASP3        0.0000 
     74 OD1        -7.4100   25.2000   35.1700 O.co2     3 ASP3        0.0000 
     75 OD1        -5.5200   23.8600   37.0700 O.co2     3 ASP3        0.0000 
     76 OD1        -7.6700   27.1900   34.4600 O.co2     3 ASP3        0.0000 
     77 NZ         -4.7600   18.3000   37.1200 N.4       4 LYS4        0.0000 
     78 NZ         -2.8800   17.3400   36.9300 N.4       4 LYS4        0.0000 
     79 NZ         -5.9500   20.5700   37.5400 N.4       4 LYS4        0.0000 
     80 NZ         -6.8900   20.8600   38.6800 N.4       4 LYS4        0.0000 
     81 NZ         -5.9400   20.1800   39.6300 N.4       4 LYS4        0.0000 
     82 NZ         -3.3900   21.3000   35.5100 N.4       4 LYS4        0.0000 
     83 NZ         -4.3300   21.5900   36.6500 N.4       4 LYS4        0.0000 
     84 NZ         -5.2600   21.8800   37.7800 N.4       4 LYS4        0.0000 
     85 NZ         -6.2000   22.1700   38.9200 N.4       4 LYS4        0.0000 
     86 NZ         -1.7500   21.9400   36.7000 N.4       4 LYS4        0.0000 
     87 NZ         -2.6900   22.2300   37.8300 N.4       4 LYS4        0.0000 
     88 NZ         -0.8000   21.2700   37.6500 N.4       4 LYS4        0.0000 
     89 CZ         -7.7800   15.0400   35.4600 C.ar      5 PHE5        0.0000 
     90 CZ         -8.0400   17.0200   34.7400 C.ar      5 PHE5        0.0000 
     91 CZ         -8.9700   17.3100   35.8800 C.ar      5 PHE5        0.0000 
     92 CZ         -9.9100   17.6000   37.0200 C.ar      5 PHE5        0.0000 
     93 CZ         -8.0200   16.6400   36.8300 C.ar      5 PHE5        0.0000 
     94 CZ         -8.9600   16.9300   37.9700 C.ar      5 PHE5        0.0000 
     95 CZ         -9.9000   17.2100   39.1000 C.ar      5 PHE5        0.0000 
     96 CZ         -6.1400   15.6800   36.6400 C.ar      5 PHE5        0.0000 
     97 CZ         -7.0800   15.9700   37.7800 C.ar      5 PHE5        0.0000 
     98 CZ         -9.2300   19.2900   35.1700 C.ar      5 PHE5        0.0000 
     99 CZ         -8.2800   18.6200   36.1200 C.ar      5 PHE5        0.0000 
    100 CZ         -7.3300   17.9500   37.0700 C.ar      5 PHE5        0.0000 
    101 CZ         -8.5400   20.6000   35.4100 C.ar      5 PHE5        0.0000 
    102 CZ         -7.5900   19.9300   36.3600 C.ar      5 PHE5        0.0000 
    103 CZ         -6.6400   19.2600   37.3100 C.ar      5 PHE5        0.0000 
    104 CZ        -12.5700   24.8900   32.9800 C.ar      5 PHE5        0.0000 
    105 CZ         -7.8500   21.9100   35.6500 C.ar      5 PHE5        0.0000 
    106 CZ         -6.9000   21.2400   36.5900 C.ar      5 PHE5        0.0000 
    107 CZ         -5.0200   20.2800   36.4100 C.ar      5 PHE5        0.0000 
    108 CZ         -9.0700   25.3400   29.8100 C.ar      5 PHE5        0.0000 
    109 CZ         -6.1900   21.7800   41.0000 C.ar      5 PHE5        0.0000 
    110 CZ         -6.1700   21.4000   43.0900 C.ar      5 PHE5        0.0000 
    111 CZ         -8.3800   26.6500   30.0500 C.ar      5 PHE5        0.0000 
    112 CA        -10.6100   16.6700   34.6900 C.3       6 GLY6        0.0000 
    113 CA        -11.5500   16.9600   35.8300 C.3       6 GLY6        0.0000 
    114 CA         -9.6600   16.0000   35.6400 C.3       6 GLY6        0.0000 
    115 CA        -10.6000   16.2900   36.7800 C.3       6 GLY6        0.0000 
    116 CA        -10.8400   17.8800   38.1500 C.3       6 GLY6        0.0000 
    117 CA        -10.1500   19.1900   38.3900 C.3       6 GLY6        0.0000 
    118 CA        -11.0900   19.4800   39.5300 C.3       6 GLY6        0.0000 
    119 CA         -9.2100   18.5200   39.3400 C.3       6 GLY6        0.0000 
    120 CA         -8.2600   17.8500   40.2900 C.3       6 GLY6        0.0000 
    121 CA        -10.4400   22.3300   31.4200 C.3       6 GLY6        0.0000 
    122 CA         -9.4500   20.1200   40.7200 C.3       6 GLY6        0.0000 
    123 CA         -8.8200   23.3500   30.5200 C.3       6 GLY6        0.0000 
    124 CA         -8.7600   21.4300   40.9500 C.3       6 GLY6        0.0000 
    125 CA         -7.8100   20.7600   41.9000 C.3       6 GLY6        0.0000 
    126 CA         -4.3400   21.9800   34.5600 C.3       6 GLY6        0.0000 
    127 CA         -6.5000   25.6900   29.8600 C.3       6 GLY6        0.0000 
    128 CA         -7.4200   25.5900   33.0900 C.3       6 GLY6        0.0000 
    129 CA         -4.5800   23.5700   35.9300 C.3       6 GLY6        0.0000 
    130 CA         -2.7000   22.6100   35.7500 C.3       6 GLY6        0.0000 
    131 CA         -3.6400   22.9000   36.8800 C.3       6 GLY6        0.0000 
    132 CA         -4.5700   23.1900   38.0200 C.3       6 GLY6        0.0000 
    133 CA         -5.5100   23.4800   39.1600 C.3       6 GLY6        0.0000 
    134 CA         -5.8000   26.6100   32.1900 C.3       6 GLY6        0.0000 
    135 CA         -6.7300   26.9000   33.3200 C.3       6 GLY6        0.0000 
    136 CA         -5.7900   26.2300   34.2700 C.3       6 GLY6        0.0000 
    137 DU        -10.8500   18.2700   36.0700 H         7 CUB7        0.0000 
    138 DU        -11.1100   20.2500   35.3600 H         7 CUB7        0.0000 
    139 DU        -12.0500   20.5400   36.4900 H         7 CUB7        0.0000 
    140 DU        -10.1600   19.5800   36.3100 H         7 CUB7        0.0000 
    141 DU        -11.1000   19.8700   37.4400 H         7 CUB7        0.0000 
    142 DU         -9.2200   18.9100   37.2600 H         7 CUB7        0.0000 
    143 DU         -8.2700   18.2400   38.2100 H         7 CUB7        0.0000 
    144 DU        -10.4300   21.9500   33.5100 H         7 CUB7        0.0000 
    145 DU        -11.3700   22.2300   34.6500 H         7 CUB7        0.0000 
    146 DU        -12.3000   22.5200   35.7800 H         7 CUB7        0.0000 
    147 DU        -10.4200   21.5600   35.5900 H         7 CUB7        0.0000 
    148 DU         -9.4700   20.8900   36.5400 H         7 CUB7        0.0000 
    149 DU        -10.4100   21.1800   37.6800 H         7 CUB7        0.0000 
    150 DU         -8.5300   20.2200   37.4900 H         7 CUB7        0.0000 
    151 DU         -9.4600   20.5000   38.6300 H         7 CUB7        0.0000 
    152 DU         -7.5800   19.5500   38.4400 H         7 CUB7        0.0000 
    153 DU         -8.5100   19.8300   39.5800 H         7 CUB7        0.0000 
    154 DU        -10.6800   23.5400   34.8800 H         7 CUB7        0.0000 
    155 DU        -11.6100   23.8300   36.0200 H         7 CUB7        0.0000 
    156 DU         -9.7300   22.8700   35.8300 H         7 CUB7        0.0000 
    157 DU         -8.7800   22.2000   36.7800 H         7 CUB7        0.0000 
    158 DU         -7.8400   21.5300   37.7300 H         7 CUB7        0.0000 
    159 DU         -8.7700   21.8100   38.8700 H         7 CUB7        0.0000 
    160 DU         -7.8200   21.1400   39.8200 H         7 CUB7        0.0000 
    161 DU         -6.7400   27.2800   31.2400 H         7 CUB7        0.0000 
@<TRIPOS>BOND
@<TRIPOS>SUBSTRUCTURE
     1 SER1        1 GROUP   
     2 ALA2       32 GROUP   
     3 ASP3       55 GROUP   
     4 LYS4       77 GROUP   
     5 PHE5       89 GROUP   
     6 GLY6      112 GROUP   
     7 CUB7      137 GROUP   
@<TRIPOS>SET

