#    Name: 5x71_2_5GP
#    Modification time : Fri May 22 19:19:18 2020

@<TRIPOS>MOLECULE
5x71_2_5GP
   24    26     1     0     0
SMALL
NO_CHARGES


@<TRIPOS>ATOM
      1 P          25.1520   51.4750   28.1670 P.3       1 5GP901      0.0000 
      2 O1P        24.9620   52.5180   27.0890 O.co2     1 5GP901      0.0000 
      3 O2P        26.1320   50.3720   27.8540 O.co2     1 5GP901      0.0000 
      4 O3P        23.8910   51.0090   28.8500 O.co2     1 5GP901      0.0000 
      5 O5'        25.8840   52.2540   29.3370 O.3       1 5GP901      0.0000 
      6 C5'        25.7280   51.8330   30.6810 C.3       1 5GP901      0.0000 
      7 C4'        25.6720   53.0110   31.6140 C.3       1 5GP901      0.0000 
      8 O4'        25.0910   54.1490   30.9240 O.3       1 5GP901      0.0000 
      9 C3'        24.8360   52.8010   32.8650 C.3       1 5GP901      0.0000 
     10 O3'        25.3980   53.5700   33.9290 O.3       1 5GP901      0.0000 
     11 C2'        23.4810   53.3810   32.4680 C.3       1 5GP901      0.0000 
     12 O2'        22.6960   53.8120   33.5630 O.3       1 5GP901      0.0000 
     13 C1'        23.8870   54.5430   31.5590 C.3       1 5GP901      0.0000 
     14 N9         22.9260   54.8240   30.4910 N.pl3     1 5GP901      0.0000 
     15 C8         23.1970   54.7240   29.1830 C.2       1 5GP901      0.0000 
     16 N7         22.1040   55.0700   28.4740 N.2       1 5GP901      0.0000 
     17 C5         21.1410   55.3960   29.3540 C.2       1 5GP901      0.0000 
     18 C6         19.8240   55.8200   29.2150 C.2       1 5GP901      0.0000 
     19 O6         19.3240   55.9670   28.0820 O.2       1 5GP901      0.0000 
     20 N1         19.0970   56.0740   30.3100 N.am      1 5GP901      0.0000 
     21 C2         19.6280   55.9180   31.5360 C.2       1 5GP901      0.0000 
     22 N2         18.8880   56.1730   32.6380 N.pl3     1 5GP901      0.0000 
     23 N3         20.9020   55.5070   31.6990 N.2       1 5GP901      0.0000 
     24 C4         21.6700   55.2490   30.6240 C.2       1 5GP901      0.0000 
@<TRIPOS>BOND
     1    1    2 ar   
     2    1    3 ar   
     3    1    4 ar   
     4    1    5 1    
     5    5    6 1    
     6    6    7 1    
     7    7    8 1    
     8    7    9 1    
     9    8   13 1    
    10    9   10 1    
    11    9   11 1    
    12   11   12 1    
    13   11   13 1    
    14   13   14 1    
    15   14   15 1    
    16   14   24 1    
    17   15   16 2    
    18   16   17 1    
    19   17   18 1    
    20   17   24 2    
    21   18   19 2    
    22   18   20 am   
    23   20   21 1    
    24   21   22 1    
    25   21   23 2    
    26   23   24 1    
@<TRIPOS>SUBSTRUCTURE
     1 5GP901      1 GROUP   
@<TRIPOS>SET

