#    Name: 6tge_15_H4M
#    Modification time : Fri May 22 19:35:00 2020

@<TRIPOS>MOLECULE
6tge_15_H4M
   45    49     1     0     0
SMALL
NO_CHARGES


@<TRIPOS>ATOM
      1 N1        107.1020   15.0950  158.6370 N.2       1 H4M302      0.0000 
      2 C2        106.6010   14.0590  157.9280 C.2       1 H4M302      0.0000 
      3 NA2       105.3040   13.7910  157.9780 N.pl3     1 H4M302      0.0000 
      4 N3        107.4060   13.2860  157.1470 N.am      1 H4M302      0.0000 
      5 C4        108.7550   13.5590  157.0930 C.2       1 H4M302      0.0000 
      6 OH4       109.4400   12.8640  156.4030 O.2       1 H4M302      0.0000 
      7 C4A       109.3090   14.6650  157.8510 C.2       1 H4M302      0.0000 
      8 N5        110.6820   14.9980  157.8130 N.3       1 H4M302      0.0000 
      9 C6        111.1780   15.7420  158.9360 C.3       1 H4M302      0.0000 
     10 C7        110.2650   16.8620  159.3190 C.3       1 H4M302      0.0000 
     11 C7M       110.7220   17.7510  160.4830 C.3       1 H4M302      0.0000 
     12 N8        108.8710   16.5330  159.4110 N.pl3     1 H4M302      0.0000 
     13 C8A       108.4300   15.4290  158.6210 C.2       1 H4M302      0.0000 
     14 C9        112.5610   16.1880  158.4680 C.3       1 H4M302      0.0000 
     15 C9M       113.6240   15.8530  159.5500 C.3       1 H4M302      0.0000 
     16 C10       111.5360   14.7980  156.9350 C.3       1 H4M302      0.0000 
     17 N10       112.8270   15.4200  157.2600 N.3       1 H4M302      0.0000 
     18 C11       114.8380   17.1870  154.0440 C.ar      1 H4M302      0.0000 
     19 C12       114.8820   17.8150  155.2900 C.ar      1 H4M302      0.0000 
     20 C13       114.2210   17.2460  156.3850 C.ar      1 H4M302      0.0000 
     21 C14       113.5110   16.0530  156.2380 C.ar      1 H4M302      0.0000 
     22 C15       113.4810   15.4330  154.9780 C.ar      1 H4M302      0.0000 
     23 C16       114.1290   16.0050  153.8920 C.ar      1 H4M302      0.0000 
     24 CX1       115.4710   17.7410  152.9330 C.3       1 H4M302      0.0000 
     25 CX2       116.9910   17.6260  153.0000 C.3       1 H4M302      0.0000 
     26 CX3       117.4960   16.7810  151.8240 C.3       1 H4M302      0.0000 
     27 CX4       118.4780   17.5630  150.9460 C.3       1 H4M302      0.0000 
     28 CX5       119.8510   17.6820  151.6050 C.3       1 H4M302      0.0000 
     29 OX2       117.5600   18.9390  152.9380 O.3       1 H4M302      0.0000 
     30 OX3       118.1320   15.6310  152.3780 O.3       1 H4M302      0.0000 
     31 OX4       118.5950   16.8570  149.7000 O.3       1 H4M302      0.0000 
     32 OX5       120.1610   19.0610  151.8430 O.3       1 H4M302      0.0000 
     33 O5J       124.0920   22.5770  150.0270 O.3       1 H4M302      0.0000 
     34 C5J       123.9960   21.1940  150.3810 C.3       1 H4M302      0.0000 
     35 C4J       122.6560   20.9500  151.0760 C.3       1 H4M302      0.0000 
     36 O4J       122.3420   19.5450  151.0800 O.3       1 H4M302      0.0000 
     37 C3J       122.7170   21.3550  152.5380 C.3       1 H4M302      0.0000 
     38 O3J       122.4060   22.7430  152.6960 O.3       1 H4M302      0.0000 
     39 C2J       121.6330   20.4930  153.1550 C.3       1 H4M302      0.0000 
     40 O2J       120.3850   21.2000  153.1640 O.3       1 H4M302      0.0000 
     41 C1J       121.5300   19.2800  152.2410 C.3       1 H4M302      0.0000 
     42 PA        123.5560   23.0520  148.5530 P.3       1 H4M302      0.0000 
     43 O1A       122.6150   22.0100  147.9950 O.3       1 H4M302      0.0000 
     44 O2A       122.8280   24.3680  148.6840 O.co2     1 H4M302      0.0000 
     45 O3A       124.8590   23.2380  147.5280 O.co2     1 H4M302      0.0000 
@<TRIPOS>BOND
     1    1    2 2    
     2    1   13 1    
     3    2    3 1    
     4    2    4 1    
     5    4    5 am   
     6    5    6 2    
     7    5    7 1    
     8    7    8 1    
     9    7   13 2    
    10    8    9 1    
    11    8   16 1    
    12    9   10 1    
    13    9   14 1    
    14   10   11 1    
    15   10   12 1    
    16   12   13 1    
    17   14   15 1    
    18   14   17 1    
    19   16   17 1    
    20   17   21 1    
    21   18   19 ar   
    22   18   23 ar   
    23   18   24 1    
    24   19   20 ar   
    25   20   21 ar   
    26   21   22 ar   
    27   22   23 ar   
    28   24   25 1    
    29   25   26 1    
    30   25   29 1    
    31   26   27 1    
    32   26   30 1    
    33   27   28 1    
    34   27   31 1    
    35   28   32 1    
    36   32   41 1    
    37   33   34 1    
    38   33   42 1    
    39   34   35 1    
    40   35   36 1    
    41   35   37 1    
    42   36   41 1    
    43   37   38 1    
    44   37   39 1    
    45   39   40 1    
    46   39   41 1    
    47   42   43 1    
    48   42   44 ar   
    49   42   45 ar   
@<TRIPOS>SUBSTRUCTURE
     1 H4M302      1 GROUP   
@<TRIPOS>SET

