#    Name: 6tge_2_H4M
#    Modification time : Fri May 22 19:33:55 2020

@<TRIPOS>MOLECULE
6tge_2_H4M
   45    49     1     0     0
SMALL
NO_CHARGES


@<TRIPOS>ATOM
      1 N1         12.6430   -0.6560   78.1740 N.2       1 H4M302      0.0000 
      2 C2         11.3410   -0.6980   77.8220 C.2       1 H4M302      0.0000 
      3 NA2        10.5400    0.3250   78.0960 N.pl3     1 H4M302      0.0000 
      4 N3         10.8250   -1.7800   77.1710 N.am      1 H4M302      0.0000 
      5 C4         11.6470   -2.8600   76.8780 C.2       1 H4M302      0.0000 
      6 OH4        11.1490   -3.8090   76.3200 O.2       1 H4M302      0.0000 
      7 C4A        13.0460   -2.8320   77.2720 C.2       1 H4M302      0.0000 
      8 N5         13.9620   -3.8630   76.9660 N.3       1 H4M302      0.0000 
      9 C6         15.1460   -3.9540   77.7750 C.3       1 H4M302      0.0000 
     10 C7         15.7590   -2.6100   78.0080 C.3       1 H4M302      0.0000 
     11 C7M        16.9950   -2.5930   78.9040 C.3       1 H4M302      0.0000 
     12 N8         14.8580   -1.5420   78.3340 N.pl3     1 H4M302      0.0000 
     13 C8A        13.5120   -1.6850   77.9110 C.2       1 H4M302      0.0000 
     14 C9         16.0200   -4.9420   76.9990 C.3       1 H4M302      0.0000 
     15 C9M        16.5130   -6.0600   77.9520 C.3       1 H4M302      0.0000 
     16 C10        13.9640   -4.6450   76.0020 C.3       1 H4M302      0.0000 
     17 N10        15.1380   -5.5230   75.9950 N.3       1 H4M302      0.0000 
     18 C11        16.5940   -6.8430   72.2700 C.ar      1 H4M302      0.0000 
     19 C12        17.4320   -6.8950   73.3870 C.ar      1 H4M302      0.0000 
     20 C13        16.9770   -6.4630   74.6450 C.ar      1 H4M302      0.0000 
     21 C14        15.6810   -5.9660   74.7950 C.ar      1 H4M302      0.0000 
     22 C15        14.8480   -5.9350   73.6670 C.ar      1 H4M302      0.0000 
     23 C16        15.3050   -6.3450   72.4250 C.ar      1 H4M302      0.0000 
     24 CX1        17.0320   -7.2680   71.0070 C.3       1 H4M302      0.0000 
     25 CX2        15.9780   -8.1540   70.3190 C.3       1 H4M302      0.0000 
     26 CX3        16.3770   -8.4340   68.8620 C.3       1 H4M302      0.0000 
     27 CX4        16.2520   -9.9260   68.5240 C.3       1 H4M302      0.0000 
     28 CX5        16.9650  -10.2200   67.1960 C.3       1 H4M302      0.0000 
     29 OX2        15.8880   -9.4160   70.9940 O.3       1 H4M302      0.0000 
     30 OX3        15.5240   -7.7380   67.9440 O.3       1 H4M302      0.0000 
     31 OX4        16.8290  -10.6980   69.5710 O.3       1 H4M302      0.0000 
     32 OX5        16.0750  -10.8980   66.3030 O.3       1 H4M302      0.0000 
     33 O5J        16.4530   -8.2980   61.7770 O.3       1 H4M302      0.0000 
     34 C5J        15.1530   -8.5900   62.3000 C.3       1 H4M302      0.0000 
     35 C4J        15.2350   -9.7930   63.2460 C.3       1 H4M302      0.0000 
     36 O4J        15.8700   -9.4100   64.4800 O.3       1 H4M302      0.0000 
     37 C3J        13.8410  -10.2840   63.6020 C.3       1 H4M302      0.0000 
     38 O3J        13.4180  -11.2960   62.6820 O.3       1 H4M302      0.0000 
     39 C2J        14.0440  -10.8700   64.9850 C.3       1 H4M302      0.0000 
     40 O2J        14.4310  -12.2470   64.8850 O.3       1 H4M302      0.0000 
     41 C1J        15.1770  -10.0410   65.5730 C.3       1 H4M302      0.0000 
     42 PA         17.3130   -7.0700   62.4390 P.3       1 H4M302      0.0000 
     43 O1A        16.6020   -6.5430   63.6640 O.3       1 H4M302      0.0000 
     44 O2A        18.6800   -7.5730   62.8340 O.co2     1 H4M302      0.0000 
     45 O3A        17.4750   -5.8450   61.3180 O.co2     1 H4M302      0.0000 
@<TRIPOS>BOND
     1    1    2 2    
     2    1   13 1    
     3    2    3 1    
     4    2    4 1    
     5    4    5 am   
     6    5    6 2    
     7    5    7 1    
     8    7    8 1    
     9    7   13 2    
    10    8    9 1    
    11    8   16 1    
    12    9   10 1    
    13    9   14 1    
    14   10   11 1    
    15   10   12 1    
    16   12   13 1    
    17   14   15 1    
    18   14   17 1    
    19   16   17 1    
    20   17   21 1    
    21   18   19 ar   
    22   18   23 ar   
    23   18   24 1    
    24   19   20 ar   
    25   20   21 ar   
    26   21   22 ar   
    27   22   23 ar   
    28   24   25 1    
    29   25   26 1    
    30   25   29 1    
    31   26   27 1    
    32   26   30 1    
    33   27   28 1    
    34   27   31 1    
    35   28   32 1    
    36   32   41 1    
    37   33   34 1    
    38   33   42 1    
    39   34   35 1    
    40   35   36 1    
    41   35   37 1    
    42   36   41 1    
    43   37   38 1    
    44   37   39 1    
    45   39   40 1    
    46   39   41 1    
    47   42   43 1    
    48   42   44 ar   
    49   42   45 ar   
@<TRIPOS>SUBSTRUCTURE
     1 H4M302      1 GROUP   
@<TRIPOS>SET

