#    Name: 6tge_3_H4M_CAVITY_N1_12
#    Modification time : Fri May 22 19:34:04 2020

@<TRIPOS>MOLECULE
6tge_3_H4M_CAVITY_N1_12
   75     0     4     0     0
SMALL
NO_CHARGES


@<TRIPOS>ATOM
      1 O         -14.0600   18.6100   67.3400 O.2       1 ALA2        0.0000 
      2 N         -15.0000   16.2200   69.4900 N.am      1 ALA2        0.0000 
      3 N         -14.9900   14.4600   70.6800 N.am      1 ALA2        0.0000 
      4 N         -19.1600   22.6400   69.5700 N.am      1 ALA2        0.0000 
      5 N         -18.2000   21.5100   69.7800 N.am      1 ALA2        0.0000 
      6 N         -13.4000   17.6100   69.6400 N.am      1 ALA2        0.0000 
      7 N         -14.3500   16.9800   70.6200 N.am      1 ALA2        0.0000 
      8 N         -17.5500   22.2600   70.9000 N.am      1 ALA2        0.0000 
      9 N         -13.7100   19.5000   70.5500 N.am      1 ALA2        0.0000 
     10 N         -14.6600   18.8700   71.5300 N.am      1 ALA2        0.0000 
     11 N         -12.7500   18.3700   70.7600 N.am      1 ALA2        0.0000 
     12 N         -16.9000   23.0200   72.0200 N.am      1 ALA2        0.0000 
     13 N         -14.9900   22.5200   71.2600 N.am      1 ALA2        0.0000 
     14 N         -14.0100   19.6300   72.6500 N.am      1 ALA2        0.0000 
     15 N         -14.3400   23.2800   72.3800 N.am      1 ALA2        0.0000 
     16 N         -13.3800   22.1400   72.5900 N.am      1 ALA2        0.0000 
     17 N         -14.3300   21.5200   73.5600 N.am      1 ALA2        0.0000 
     18 N         -13.3700   20.3800   73.7700 N.am      1 ALA2        0.0000 
     19 N         -12.7300   22.9000   73.7100 N.am      1 ALA2        0.0000 
     20 N         -11.7700   21.7700   73.9200 N.am      1 ALA2        0.0000 
     21 CZ        -15.9500   15.5900   70.4700 C.ar      2 PHE5        0.0000 
     22 CZ        -16.2600   17.4800   71.3800 C.ar      2 PHE5        0.0000 
     23 CZ        -15.3000   16.3500   71.5900 C.ar      2 PHE5        0.0000 
     24 CZ        -17.5300   18.7400   73.2700 C.ar      2 PHE5        0.0000 
     25 CZ        -18.4800   18.1100   74.2400 C.ar      2 PHE5        0.0000 
     26 CZ        -15.6100   18.2400   72.5000 C.ar      2 PHE5        0.0000 
     27 CZ        -16.5600   17.6100   73.4800 C.ar      2 PHE5        0.0000 
     28 CZ        -14.6500   17.1100   72.7100 C.ar      2 PHE5        0.0000 
     29 CZ        -14.9600   19.0000   73.6200 C.ar      2 PHE5        0.0000 
     30 CZ        -15.9200   18.3700   74.6000 C.ar      2 PHE5        0.0000 
     31 CZ        -14.3200   19.7500   74.7400 C.ar      2 PHE5        0.0000 
     32 CZ        -15.2700   19.1300   75.7200 C.ar      2 PHE5        0.0000 
     33 CZ        -16.2200   18.5000   76.6900 C.ar      2 PHE5        0.0000 
     34 CZ        -13.6700   20.5100   75.8700 C.ar      2 PHE5        0.0000 
     35 CZ        -11.1200   22.5300   75.0400 C.ar      2 PHE5        0.0000 
     36 CA        -15.6300   13.7000   69.5600 C.3       3 GLY6        0.0000 
     37 CA        -16.5800   13.0800   70.5300 C.3       3 GLY6        0.0000 
     38 CA        -15.0100   17.9800   68.3100 C.3       3 GLY6        0.0000 
     39 CA        -15.3300   21.6300   68.0400 C.3       3 GLY6        0.0000 
     40 CA        -14.3700   20.5000   68.2500 C.3       3 GLY6        0.0000 
     41 CA        -13.4100   19.3700   68.4600 C.3       3 GLY6        0.0000 
     42 CA        -16.6000   22.8900   69.9300 C.3       3 GLY6        0.0000 
     43 CA        -14.6800   22.3900   69.1600 C.3       3 GLY6        0.0000 
     44 CA        -15.6300   21.7600   70.1400 C.3       3 GLY6        0.0000 
     45 CA        -17.5400   20.5000   72.0900 C.3       3 GLY6        0.0000 
     46 CA        -18.4900   19.8800   73.0600 C.3       3 GLY6        0.0000 
     47 CA        -14.6700   20.6300   70.3400 C.3       3 GLY6        0.0000 
     48 CA        -13.7000   17.7400   71.7400 C.3       3 GLY6        0.0000 
     49 CA        -15.9400   21.8900   72.2300 C.3       3 GLY6        0.0000 
     50 CA        -14.0200   21.3900   71.4700 C.3       3 GLY6        0.0000 
     51 CA        -15.9300   20.1300   73.4200 C.3       3 GLY6        0.0000 
     52 CA        -16.8800   19.5000   74.3900 C.3       3 GLY6        0.0000 
     53 CA        -16.2500   23.7800   73.1400 C.3       3 GLY6        0.0000 
     54 CA        -15.2900   22.6500   73.3500 C.3       3 GLY6        0.0000 
     55 CA        -15.2800   20.8900   74.5400 C.3       3 GLY6        0.0000 
     56 CA        -16.2300   20.2600   75.5100 C.3       3 GLY6        0.0000 
     57 CA        -17.1800   19.6300   76.4900 C.3       3 GLY6        0.0000 
     58 CA        -13.6900   24.0300   73.5000 C.3       3 GLY6        0.0000 
     59 CA        -11.7800   23.5300   72.7300 C.3       3 GLY6        0.0000 
     60 CA        -12.7200   21.1400   74.8900 C.3       3 GLY6        0.0000 
     61 CA        -12.0700   21.9000   76.0100 C.3       3 GLY6        0.0000 
     62 DU        -16.2800   21.0000   69.0200 H         4 CUB7        0.0000 
     63 DU        -15.3200   19.8700   69.2200 H         4 CUB7        0.0000 
     64 DU        -14.3600   18.7400   69.4300 H         4 CUB7        0.0000 
     65 DU        -15.3100   18.1100   70.4100 H         4 CUB7        0.0000 
     66 DU        -16.5900   21.1300   71.1100 H         4 CUB7        0.0000 
     67 DU        -15.6200   20.0000   71.3200 H         4 CUB7        0.0000 
     68 DU        -16.5700   19.3700   72.2900 H         4 CUB7        0.0000 
     69 DU        -14.9800   20.7600   72.4400 H         4 CUB7        0.0000 
     70 DU        -14.6400   23.4000   74.4700 H         4 CUB7        0.0000 
     71 DU        -13.6800   22.2700   74.6800 H         4 CUB7        0.0000 
     72 DU        -14.6300   21.6400   75.6600 H         4 CUB7        0.0000 
     73 DU        -12.0800   23.6600   74.8300 H         4 CUB7        0.0000 
     74 DU        -13.0300   23.0300   75.8000 H         4 CUB7        0.0000 
     75 DU        -11.4200   22.6600   77.1300 H         4 CUB7        0.0000 
@<TRIPOS>BOND
@<TRIPOS>SUBSTRUCTURE
     1 ALA2        1 GROUP   
     2 PHE5       21 GROUP   
     3 GLY6       36 GROUP   
     4 CUB7       62 GROUP   
@<TRIPOS>SET

