#    Name: 6tge_22_H4M
#    Modification time : Fri May 22 19:35:25 2020

@<TRIPOS>MOLECULE
6tge_22_H4M
   45    49     1     0     0
SMALL
NO_CHARGES


@<TRIPOS>ATOM
      1 N1         45.5490  -29.7120  115.8520 N.2       1 H4M302      0.0000 
      2 C2         44.7670  -28.6480  116.1040 C.2       1 H4M302      0.0000 
      3 NA2        43.5700  -28.5590  115.5200 N.pl3     1 H4M302      0.0000 
      4 N3         45.2020  -27.6670  116.9510 N.am      1 H4M302      0.0000 
      5 C4         46.4520  -27.7660  117.5540 C.2       1 H4M302      0.0000 
      6 OH4        46.8150  -26.8970  118.2990 O.2       1 H4M302      0.0000 
      7 C4A        47.3020  -28.9150  117.2960 C.2       1 H4M302      0.0000 
      8 N5         48.5870  -29.0860  117.8770 N.3       1 H4M302      0.0000 
      9 C6         49.4420  -29.9770  117.1480 C.3       1 H4M302      0.0000 
     10 C7         48.7760  -31.2230  116.6540 C.3       1 H4M302      0.0000 
     11 C7M        49.5880  -32.1140  115.7070 C.3       1 H4M302      0.0000 
     12 N8         47.4890  -31.0500  116.0600 N.pl3     1 H4M302      0.0000 
     13 C8A        46.7850  -29.8750  116.4170 C.2       1 H4M302      0.0000 
     14 C9         50.5600  -30.2340  118.1570 C.3       1 H4M302      0.0000 
     15 C9M        51.9150  -30.2660  117.4160 C.3       1 H4M302      0.0000 
     16 C10        49.1250  -28.6370  118.9230 C.3       1 H4M302      0.0000 
     17 N10        50.5080  -29.1220  119.0880 N.3       1 H4M302      0.0000 
     18 C11        52.2230  -29.5660  122.9290 C.ar      1 H4M302      0.0000 
     19 C12        52.6050  -30.4290  121.9050 C.ar      1 H4M302      0.0000 
     20 C13        52.0480  -30.3030  120.6220 C.ar      1 H4M302      0.0000 
     21 C14        51.1010  -29.3120  120.3340 C.ar      1 H4M302      0.0000 
     22 C15        50.7490  -28.4370  121.3640 C.ar      1 H4M302      0.0000 
     23 C16        51.3080  -28.5690  122.6320 C.ar      1 H4M302      0.0000 
     24 CX1        52.7520  -29.6020  124.2270 C.3       1 H4M302      0.0000 
     25 CX2        52.6180  -30.9100  125.0210 C.3       1 H4M302      0.0000 
     26 CX3        53.2730  -30.6520  126.3910 C.3       1 H4M302      0.0000 
     27 CX4        53.0680  -31.7820  127.4080 C.3       1 H4M302      0.0000 
     28 CX5        53.6500  -33.0880  126.8670 C.3       1 H4M302      0.0000 
     29 OX2        51.2570  -31.2710  125.2400 O.3       1 H4M302      0.0000 
     30 OX3        54.6810  -30.4460  126.2020 O.3       1 H4M302      0.0000 
     31 OX4        53.7060  -31.4120  128.6410 O.3       1 H4M302      0.0000 
     32 OX5        54.5930  -33.6760  127.7770 O.3       1 H4M302      0.0000 
     33 O5J        58.9800  -35.4610  130.2610 O.3       1 H4M302      0.0000 
     34 C5J        58.4960  -35.6880  128.9300 C.3       1 H4M302      0.0000 
     35 C4J        57.0310  -35.2340  128.8140 C.3       1 H4M302      0.0000 
     36 O4J        56.9170  -34.1620  127.8500 O.3       1 H4M302      0.0000 
     37 C3J        56.1630  -36.3850  128.3230 C.3       1 H4M302      0.0000 
     38 O3J        55.1760  -36.7050  129.3200 O.3       1 H4M302      0.0000 
     39 C2J        55.4810  -35.8510  127.0740 C.3       1 H4M302      0.0000 
     40 O2J        54.0920  -36.1940  127.1120 O.3       1 H4M302      0.0000 
     41 C1J        55.6840  -34.3440  127.1220 C.3       1 H4M302      0.0000 
     42 PA         59.8040  -34.0780  130.5950 P.3       1 H4M302      0.0000 
     43 O1A        59.1040  -33.3680  131.7410 O.3       1 H4M302      0.0000 
     44 O2A        61.2350  -34.4100  130.9740 O.co2     1 H4M302      0.0000 
     45 O3A        59.8190  -33.0740  129.2550 O.co2     1 H4M302      0.0000 
@<TRIPOS>BOND
     1    1    2 2    
     2    1   13 1    
     3    2    3 1    
     4    2    4 1    
     5    4    5 am   
     6    5    6 2    
     7    5    7 1    
     8    7    8 1    
     9    7   13 2    
    10    8    9 1    
    11    8   16 1    
    12    9   10 1    
    13    9   14 1    
    14   10   11 1    
    15   10   12 1    
    16   12   13 1    
    17   14   15 1    
    18   14   17 1    
    19   16   17 1    
    20   17   21 1    
    21   18   19 ar   
    22   18   23 ar   
    23   18   24 1    
    24   19   20 ar   
    25   20   21 ar   
    26   21   22 ar   
    27   22   23 ar   
    28   24   25 1    
    29   25   26 1    
    30   25   29 1    
    31   26   27 1    
    32   26   30 1    
    33   27   28 1    
    34   27   31 1    
    35   28   32 1    
    36   32   41 1    
    37   33   34 1    
    38   33   42 1    
    39   34   35 1    
    40   35   36 1    
    41   35   37 1    
    42   36   41 1    
    43   37   38 1    
    44   37   39 1    
    45   39   40 1    
    46   39   41 1    
    47   42   43 1    
    48   42   44 ar   
    49   42   45 ar   
@<TRIPOS>SUBSTRUCTURE
     1 H4M302      1 GROUP   
@<TRIPOS>SET

