#    Name: 6tge_8_H4M
#    Modification time : Fri May 22 19:34:27 2020

@<TRIPOS>MOLECULE
6tge_8_H4M
   45    49     1     0     0
SMALL
NO_CHARGES


@<TRIPOS>ATOM
      1 N1         81.5750  -65.9150  159.0240 N.2       1 H4M302      0.0000 
      2 C2         80.2700  -65.9630  158.6910 C.2       1 H4M302      0.0000 
      3 NA2        79.4740  -64.9340  158.9630 N.pl3     1 H4M302      0.0000 
      4 N3         79.7620  -67.0410  158.0420 N.am      1 H4M302      0.0000 
      5 C4         80.5530  -68.1320  157.7300 C.2       1 H4M302      0.0000 
      6 OH4        80.0280  -69.0810  157.1880 O.2       1 H4M302      0.0000 
      7 C4A        81.9610  -68.1030  158.1120 C.2       1 H4M302      0.0000 
      8 N5         82.9090  -69.1070  157.8230 N.3       1 H4M302      0.0000 
      9 C6         84.0270  -69.1890  158.7170 C.3       1 H4M302      0.0000 
     10 C7         84.6690  -67.8480  158.8300 C.3       1 H4M302      0.0000 
     11 C7M        85.9740  -67.7790  159.6160 C.3       1 H4M302      0.0000 
     12 N8         83.7780  -66.7860  159.1620 N.pl3     1 H4M302      0.0000 
     13 C8A        82.4280  -66.9450  158.7480 C.2       1 H4M302      0.0000 
     14 C9         84.9160  -70.2720  158.1270 C.3       1 H4M302      0.0000 
     15 C9M        85.1890  -71.3460  159.2110 C.3       1 H4M302      0.0000 
     16 C10        83.0370  -69.8550  156.8400 C.3       1 H4M302      0.0000 
     17 N10        84.1300  -70.8200  157.0370 N.3       1 H4M302      0.0000 
     18 C11        86.1520  -72.3880  153.7160 C.ar      1 H4M302      0.0000 
     19 C12        86.8450  -72.1490  154.8980 C.ar      1 H4M302      0.0000 
     20 C13        86.1890  -71.6250  156.0100 C.ar      1 H4M302      0.0000 
     21 C14        84.8270  -71.3380  155.9630 C.ar      1 H4M302      0.0000 
     22 C15        84.1270  -71.5960  154.7710 C.ar      1 H4M302      0.0000 
     23 C16        84.7890  -72.1190  153.6580 C.ar      1 H4M302      0.0000 
     24 CX1        86.8810  -72.9230  152.6560 C.3       1 H4M302      0.0000 
     25 CX2        86.2320  -72.9120  151.2640 C.3       1 H4M302      0.0000 
     26 CX3        85.2570  -74.0870  151.0760 C.3       1 H4M302      0.0000 
     27 CX4        85.7610  -74.9550  149.9150 C.3       1 H4M302      0.0000 
     28 CX5        87.0470  -75.6940  150.3060 C.3       1 H4M302      0.0000 
     29 OX2        85.5390  -71.6840  151.0050 O.3       1 H4M302      0.0000 
     30 OX3        85.1500  -74.9000  152.2400 O.3       1 H4M302      0.0000 
     31 OX4        84.7960  -75.9470  149.5590 O.3       1 H4M302      0.0000 
     32 OX5        88.0350  -75.5770  149.2770 O.3       1 H4M302      0.0000 
     33 O5J        92.8860  -75.9540  151.9140 O.3       1 H4M302      0.0000 
     34 C5J        91.6760  -75.4630  151.3300 C.3       1 H4M302      0.0000 
     35 C4J        91.5170  -75.9010  149.8750 C.3       1 H4M302      0.0000 
     36 O4J        90.2010  -76.4630  149.7200 O.3       1 H4M302      0.0000 
     37 C3J        91.4880  -74.7360  148.8980 C.3       1 H4M302      0.0000 
     38 O3J        91.7620  -75.1930  147.5640 O.3       1 H4M302      0.0000 
     39 C2J        90.0510  -74.2350  148.9830 C.3       1 H4M302      0.0000 
     40 O2J        89.4600  -74.1440  147.6780 O.3       1 H4M302      0.0000 
     41 C1J        89.3390  -75.3040  149.8070 C.3       1 H4M302      0.0000 
     42 PA         93.1410  -75.5580  153.4850 P.3       1 H4M302      0.0000 
     43 O1A        93.0940  -76.8010  154.3430 O.3       1 H4M302      0.0000 
     44 O2A        94.4880  -74.8910  153.6290 O.co2     1 H4M302      0.0000 
     45 O3A        91.9460  -74.5030  153.9780 O.co2     1 H4M302      0.0000 
@<TRIPOS>BOND
     1    1    2 2    
     2    1   13 1    
     3    2    3 1    
     4    2    4 1    
     5    4    5 am   
     6    5    6 2    
     7    5    7 1    
     8    7    8 1    
     9    7   13 2    
    10    8    9 1    
    11    8   16 1    
    12    9   10 1    
    13    9   14 1    
    14   10   11 1    
    15   10   12 1    
    16   12   13 1    
    17   14   15 1    
    18   14   17 1    
    19   16   17 1    
    20   17   21 1    
    21   18   19 ar   
    22   18   23 ar   
    23   18   24 1    
    24   19   20 ar   
    25   20   21 ar   
    26   21   22 ar   
    27   22   23 ar   
    28   24   25 1    
    29   25   26 1    
    30   25   29 1    
    31   26   27 1    
    32   26   30 1    
    33   27   28 1    
    34   27   31 1    
    35   28   32 1    
    36   32   41 1    
    37   33   34 1    
    38   33   42 1    
    39   34   35 1    
    40   35   36 1    
    41   35   37 1    
    42   36   41 1    
    43   37   38 1    
    44   37   39 1    
    45   39   40 1    
    46   39   41 1    
    47   42   43 1    
    48   42   44 ar   
    49   42   45 ar   
@<TRIPOS>SUBSTRUCTURE
     1 H4M302      1 GROUP   
@<TRIPOS>SET

