#    Name: 6tge_6_H4M
#    Modification time : Fri May 22 19:34:11 2020

@<TRIPOS>MOLECULE
6tge_6_H4M
   45    49     1     0     0
SMALL
NO_CHARGES


@<TRIPOS>ATOM
      1 N1         42.9080    2.2700   35.5530 N.2       1 H4M302      0.0000 
      2 C2         41.6770    2.1290   36.1050 C.2       1 H4M302      0.0000 
      3 NA2        40.8980    1.1230   35.7320 N.pl3     1 H4M302      0.0000 
      4 N3         41.2140    3.0030   37.0460 N.am      1 H4M302      0.0000 
      5 C4         42.0130    4.0580   37.4430 C.2       1 H4M302      0.0000 
      6 OH4        41.6010    4.8270   38.2730 O.2       1 H4M302      0.0000 
      7 C4A        43.3260    4.2250   36.8440 C.2       1 H4M302      0.0000 
      8 N5         44.2120    5.2560   37.2270 N.3       1 H4M302      0.0000 
      9 C6         45.2300    5.6900   36.2970 C.3       1 H4M302      0.0000 
     10 C7         45.8840    4.4760   35.7190 C.3       1 H4M302      0.0000 
     11 C7M        46.9480    4.8210   34.6750 C.3       1 H4M302      0.0000 
     12 N8         45.0350    3.4030   35.2800 N.pl3     1 H4M302      0.0000 
     13 C8A        43.7570    3.2930   35.9050 C.2       1 H4M302      0.0000 
     14 C9         46.0630    6.6350   37.1810 C.3       1 H4M302      0.0000 
     15 C9M        45.5480    8.0910   37.0400 C.3       1 H4M302      0.0000 
     16 C10        44.3780    5.7770   38.3300 C.3       1 H4M302      0.0000 
     17 N10        45.8150    6.0380   38.4870 N.3       1 H4M302      0.0000 
     18 C11        46.6610    7.8380   42.1530 C.ar      1 H4M302      0.0000 
     19 C12        47.5240    8.0820   41.0790 C.ar      1 H4M302      0.0000 
     20 C13        47.2880    7.4990   39.8270 C.ar      1 H4M302      0.0000 
     21 C14        46.1780    6.6710   39.6560 C.ar      1 H4M302      0.0000 
     22 C15        45.3260    6.4440   40.7510 C.ar      1 H4M302      0.0000 
     23 C16        45.5600    7.0170   41.9860 C.ar      1 H4M302      0.0000 
     24 CX1        46.8470    8.4040   43.4060 C.3       1 H4M302      0.0000 
     25 CX2        48.2700    8.2090   43.9190 C.3       1 H4M302      0.0000 
     26 CX3        48.3220    8.8100   45.3300 C.3       1 H4M302      0.0000 
     27 CX4        49.4640    9.8260   45.4230 C.3       1 H4M302      0.0000 
     28 CX5        49.3870   10.5380   46.7760 C.3       1 H4M302      0.0000 
     29 OX2        48.5930    6.8180   43.9460 O.3       1 H4M302      0.0000 
     30 OX3        47.0810    9.4680   45.6300 O.3       1 H4M302      0.0000 
     31 OX4        50.7270    9.1580   45.2890 O.3       1 H4M302      0.0000 
     32 OX5        50.6240   10.3600   47.4690 O.3       1 H4M302      0.0000 
     33 O5J        53.5430   13.4050   49.9130 O.3       1 H4M302      0.0000 
     34 C5J        54.3220   12.2520   49.5680 C.3       1 H4M302      0.0000 
     35 C4J        53.5420   11.4050   48.5590 C.3       1 H4M302      0.0000 
     36 O4J        52.1360   11.5120   48.8370 O.3       1 H4M302      0.0000 
     37 C3J        53.7530   11.9290   47.1500 C.3       1 H4M302      0.0000 
     38 O3J        54.8430   11.2420   46.5250 O.3       1 H4M302      0.0000 
     39 C2J        52.4490   11.5860   46.4610 C.3       1 H4M302      0.0000 
     40 O2J        52.5450   10.3020   45.8290 O.3       1 H4M302      0.0000 
     41 C1J        51.4260   11.5470   47.5850 C.3       1 H4M302      0.0000 
     42 PA         54.1500   14.8930   49.5910 P.3       1 H4M302      0.0000 
     43 O1A        53.1680   15.9460   50.0490 O.3       1 H4M302      0.0000 
     44 O2A        55.4580   15.0690   50.3250 O.co2     1 H4M302      0.0000 
     45 O3A        54.4080   15.0540   47.9510 O.co2     1 H4M302      0.0000 
@<TRIPOS>BOND
     1    1    2 2    
     2    1   13 1    
     3    2    3 1    
     4    2    4 1    
     5    4    5 am   
     6    5    6 2    
     7    5    7 1    
     8    7    8 1    
     9    7   13 2    
    10    8    9 1    
    11    8   16 1    
    12    9   10 1    
    13    9   14 1    
    14   10   11 1    
    15   10   12 1    
    16   12   13 1    
    17   14   15 1    
    18   14   17 1    
    19   16   17 1    
    20   17   21 1    
    21   18   19 ar   
    22   18   23 ar   
    23   18   24 1    
    24   19   20 ar   
    25   20   21 ar   
    26   21   22 ar   
    27   22   23 ar   
    28   24   25 1    
    29   25   26 1    
    30   25   29 1    
    31   26   27 1    
    32   26   30 1    
    33   27   28 1    
    34   27   31 1    
    35   28   32 1    
    36   32   41 1    
    37   33   34 1    
    38   33   42 1    
    39   34   35 1    
    40   35   36 1    
    41   35   37 1    
    42   36   41 1    
    43   37   38 1    
    44   37   39 1    
    45   39   40 1    
    46   39   41 1    
    47   42   43 1    
    48   42   44 ar   
    49   42   45 ar   
@<TRIPOS>SUBSTRUCTURE
     1 H4M302      1 GROUP   
@<TRIPOS>SET

