#    Name: 6tge_25_NAP_CAVITY_N1_8
#    Modification time : Fri May 22 19:36:05 2020

@<TRIPOS>MOLECULE
6tge_25_NAP_CAVITY_N1_8
   95     0     5     0     0
SMALL
NO_CHARGES


@<TRIPOS>ATOM
      1 OG         73.2700    8.3400  148.2300 O.3       1 SER1        0.0000 
      2 OG         73.9200    9.1000  149.3500 O.3       1 SER1        0.0000 
      3 OG         72.9700    8.4700  150.3300 O.3       1 SER1        0.0000 
      4 OG         73.6100   10.9900  150.2700 O.3       1 SER1        0.0000 
      5 OG         72.6600   10.3600  151.2400 O.3       1 SER1        0.0000 
      6 N          73.5900    6.4500  147.3200 N.am      2 ALA2        0.0000 
      7 N          72.6400    5.8300  148.3000 N.am      2 ALA2        0.0000 
      8 N          73.2900    6.5800  149.4200 N.am      2 ALA2        0.0000 
      9 N          74.2500    5.4500  149.6300 N.am      2 ALA2        0.0000 
     10 N          72.0200    7.8400  151.3000 N.am      2 ALA2        0.0000 
     11 N          72.9800    6.7100  151.5100 N.am      2 ALA2        0.0000 
     12 N          72.0300    6.0800  152.4900 N.am      2 ALA2        0.0000 
     13 N          71.0800    5.4500  153.4600 N.am      2 ALA2        0.0000 
     14 N          73.6200    9.2300  151.4500 N.am      2 ALA2        0.0000 
     15 N          69.8200    6.7100  155.3500 N.am      2 ALA2        0.0000 
     16 N          71.7300    6.2100  154.5800 N.am      2 ALA2        0.0000 
     17 N          72.6900    5.0800  154.7900 N.am      2 ALA2        0.0000 
     18 N          75.2200   10.6200  151.6000 N.am      2 ALA2        0.0000 
     19 N          70.4600    7.4700  156.4700 N.am      2 ALA2        0.0000 
     20 N          72.3800    6.9700  155.7000 N.am      2 ALA2        0.0000 
     21 N          71.4300    6.3400  156.6800 N.am      2 ALA2        0.0000 
     22 O          73.3400    5.8400  155.9100 O.2       2 ALA2        0.0000 
     23 O          71.1000    9.9900  156.4100 O.2       2 ALA2        0.0000 
     24 N          75.8700   11.3700  152.7200 N.am      2 ALA2        0.0000 
     25 O          72.0600    8.8600  156.6200 O.2       2 ALA2        0.0000 
     26 N          70.1600    7.6000  158.5700 N.am      2 ALA2        0.0000 
     27 N          69.2100    6.9700  159.5400 N.am      2 ALA2        0.0000 
     28 O          71.7600    8.9900  158.7100 O.2       2 ALA2        0.0000 
     29 CZ         74.8700    9.7300  148.3800 C.ar      3 PHE5        0.0000 
     30 CZ         75.8400    8.6000  148.5900 C.ar      3 PHE5        0.0000 
     31 CZ         76.8100    5.7100  149.9800 C.ar      3 PHE5        0.0000 
     32 CZ         75.5200   10.4900  149.5000 C.ar      3 PHE5        0.0000 
     33 CZ         76.4800    9.3500  149.7100 C.ar      3 PHE5        0.0000 
     34 CZ         77.4500    8.2200  149.9200 C.ar      3 PHE5        0.0000 
     35 CZ         77.4600    6.4600  151.1000 C.ar      3 PHE5        0.0000 
     36 CZ         76.1700   11.2400  150.6200 C.ar      3 PHE5        0.0000 
     37 CZ         77.1300   10.1100  150.8300 C.ar      3 PHE5        0.0000 
     38 CZ         78.0900    8.9800  151.0400 C.ar      3 PHE5        0.0000 
     39 CZ         79.0600    7.8500  151.2500 C.ar      3 PHE5        0.0000 
     40 CZ         78.1000    7.2200  152.2200 C.ar      3 PHE5        0.0000 
     41 CZ         78.7400    9.7400  152.1600 C.ar      3 PHE5        0.0000 
     42 CA         72.6300    7.5900  147.1100 C.3       4 GLY6        0.0000 
     43 CA         74.5400    7.0800  146.3500 C.3       4 GLY6        0.0000 
     44 CA         74.5500    5.3200  147.5300 C.3       4 GLY6        0.0000 
     45 CA         74.2300    8.9700  147.2600 C.3       4 GLY6        0.0000 
     46 CA         72.3200    7.7100  149.2100 C.3       4 GLY6        0.0000 
     47 CA         76.1500    6.7100  147.6800 C.3       4 GLY6        0.0000 
     48 CA         75.2000    6.0800  148.6500 C.3       4 GLY6        0.0000 
     49 CA         76.1600    4.9500  148.8600 C.3       4 GLY6        0.0000 
     50 CA         71.0600    8.9800  151.1000 C.3       4 GLY6        0.0000 
     51 CA         71.0700    7.2100  152.2800 C.3       4 GLY6        0.0000 
     52 CA         70.1200    6.5900  153.2500 C.3       4 GLY6        0.0000 
     53 CA         76.8000    7.4700  148.8000 C.3       4 GLY6        0.0000 
     54 CA         75.8600    5.0800  150.9500 C.3       4 GLY6        0.0000 
     55 CA         72.6700    8.6000  152.4200 C.3       4 GLY6        0.0000 
     56 CA         71.7200    7.9700  153.4000 C.3       4 GLY6        0.0000 
     57 CA         70.7700    7.3400  154.3700 C.3       4 GLY6        0.0000 
     58 CA         76.5100    5.8300  152.0800 C.3       4 GLY6        0.0000 
     59 CA         70.4500    9.2300  155.2900 C.3       4 GLY6        0.0000 
     60 CA         69.5000    8.6000  156.2600 C.3       4 GLY6        0.0000 
     61 CA         71.4100    8.1000  155.4900 C.3       4 GLY6        0.0000 
     62 CA         77.1500    6.5900  153.2000 C.3       4 GLY6        0.0000 
     63 CA         70.1500    9.3600  157.3800 C.3       4 GLY6        0.0000 
     64 CA         72.0700    7.1000  157.8000 C.3       4 GLY6        0.0000 
     65 CA         71.1200    6.4700  158.7700 C.3       4 GLY6        0.0000 
     66 CA         70.8100    8.3600  159.6900 C.3       4 GLY6        0.0000 
     67 CA         69.8600    7.7300  160.6600 C.3       4 GLY6        0.0000 
     68 CA         71.7700    7.2300  159.8900 C.3       4 GLY6        0.0000 
     69 CA         70.8200    6.6000  160.8700 C.3       4 GLY6        0.0000 
     70 DU         75.5000    5.9500  146.5500 H         5 CUB7        0.0000 
     71 DU         75.1900    7.8400  147.4700 H         5 CUB7        0.0000 
     72 DU         74.2400    7.2100  148.4400 H         5 CUB7        0.0000 
     73 DU         74.8800    7.9700  149.5600 H         5 CUB7        0.0000 
     74 DU         73.9300    7.3400  150.5400 H         5 CUB7        0.0000 
     75 DU         75.8500    6.8400  149.7700 H         5 CUB7        0.0000 
     76 DU         74.9000    6.2100  150.7500 H         5 CUB7        0.0000 
     77 DU         74.5700    9.8600  150.4800 H         5 CUB7        0.0000 
     78 DU         75.5300    8.7300  150.6800 H         5 CUB7        0.0000 
     79 DU         74.5800    8.1000  151.6600 H         5 CUB7        0.0000 
     80 DU         73.6300    7.4700  152.6300 H         5 CUB7        0.0000 
     81 DU         72.6800    6.8400  153.6100 H         5 CUB7        0.0000 
     82 DU         76.4900    7.5900  150.8900 H         5 CUB7        0.0000 
     83 DU         75.5400    6.9700  151.8700 H         5 CUB7        0.0000 
     84 DU         74.5900    6.3400  152.8400 H         5 CUB7        0.0000 
     85 DU         73.6400    5.7100  153.8200 H         5 CUB7        0.0000 
     86 DU         76.1800    9.4800  151.8000 H         5 CUB7        0.0000 
     87 DU         75.2300    8.8500  152.7800 H         5 CUB7        0.0000 
     88 DU         73.3300    7.6000  154.7300 H         5 CUB7        0.0000 
     89 DU         77.1400    8.3500  152.0100 H         5 CUB7        0.0000 
     90 DU         76.1900    7.7200  152.9900 H         5 CUB7        0.0000 
     91 DU         71.1100    8.2300  157.5900 H         5 CUB7        0.0000 
     92 DU         76.8300   10.2400  152.9300 H         5 CUB7        0.0000 
     93 DU         73.0200    7.7300  156.8200 H         5 CUB7        0.0000 
     94 DU         77.7900    9.1100  153.1300 H         5 CUB7        0.0000 
     95 DU         72.7200    7.8500  158.9200 H         5 CUB7        0.0000 
@<TRIPOS>BOND
@<TRIPOS>SUBSTRUCTURE
     1 SER1        1 GROUP   
     2 ALA2        6 GROUP   
     3 PHE5       29 GROUP   
     4 GLY6       42 GROUP   
     5 CUB7       70 GROUP   
@<TRIPOS>SET

