#    Name: 6tge_20_NAP_CAVITY_N1_8
#    Modification time : Fri May 22 19:36:22 2020

@<TRIPOS>MOLECULE
6tge_20_NAP_CAVITY_N1_8
   68     0     5     0     0
SMALL
NO_CHARGES


@<TRIPOS>ATOM
      1 OG         29.6100  -61.7200  120.4500 O.3       1 SER1        0.0000 
      2 OG         31.5200  -62.2200  119.6900 O.3       1 SER1        0.0000 
      3 OG         30.5700  -62.8500  120.6600 O.3       1 SER1        0.0000 
      4 OG         31.2100  -60.3300  120.6000 O.3       1 SER1        0.0000 
      5 OG         30.2600  -60.9600  121.5700 O.3       1 SER1        0.0000 
      6 OG         29.3000  -61.5900  122.5500 O.3       1 SER1        0.0000 
      7 OG         30.2700  -62.7200  122.7600 O.3       1 SER1        0.0000 
      8 N          32.1100  -67.0100  112.5500 N.am      2 ALA2        0.0000 
      9 O          28.9300  -65.2500  115.2000 O.2       2 ALA2        0.0000 
     10 N          30.8400  -65.7500  114.4400 N.am      2 ALA2        0.0000 
     11 N          29.8900  -66.3800  115.4100 N.am      2 ALA2        0.0000 
     12 N          32.7500  -66.2600  113.6700 N.am      2 ALA2        0.0000 
     13 N          31.8000  -66.8800  114.6400 N.am      2 ALA2        0.0000 
     14 N          28.6200  -65.1200  117.3000 N.am      2 ALA2        0.0000 
     15 N          30.5400  -65.6200  116.5300 N.am      2 ALA2        0.0000 
     16 N          29.5900  -66.2500  117.5100 N.am      2 ALA2        0.0000 
     17 N          31.5000  -66.7600  116.7400 N.am      2 ALA2        0.0000 
     18 N          29.2700  -64.3600  118.4200 N.am      2 ALA2        0.0000 
     19 N          30.2300  -65.4900  118.6300 N.am      2 ALA2        0.0000 
     20 O          30.8600  -61.2200  117.3800 O.2       2 ALA2        0.0000 
     21 N          29.9200  -63.6100  119.5400 N.am      2 ALA2        0.0000 
     22 N          28.9700  -64.2300  120.5100 N.am      2 ALA2        0.0000 
     23 N          28.6200  -57.0600  117.8800 N.am      2 ALA2        0.0000 
     24 N          29.5900  -58.2000  118.0900 N.am      2 ALA2        0.0000 
     25 N          29.6000  -59.9600  119.2700 N.am      2 ALA2        0.0000 
     26 N          30.5600  -61.0900  119.4800 N.am      2 ALA2        0.0000 
     27 N          30.2200  -55.6800  118.0200 N.am      2 ALA2        0.0000 
     28 N          30.2300  -57.4400  119.2100 N.am      2 ALA2        0.0000 
     29 N          30.2400  -59.2000  120.3900 N.am      2 ALA2        0.0000 
     30 CZ         29.2700  -56.3100  119.0000 C.ar      3 PHE5        0.0000 
     31 CZ         28.3200  -56.9300  119.9700 C.ar      3 PHE5        0.0000 
     32 CZ         29.2800  -58.0700  120.1800 C.ar      3 PHE5        0.0000 
     33 CZ         28.3300  -58.7000  121.1600 C.ar      3 PHE5        0.0000 
     34 CZ         27.3800  -59.3200  122.1300 C.ar      3 PHE5        0.0000 
     35 CZ         29.9300  -57.3100  121.3000 C.ar      3 PHE5        0.0000 
     36 CA         31.1400  -65.8800  112.3400 C.3       4 GLY6        0.0000 
     37 CA         32.7400  -64.4900  112.4900 C.3       4 GLY6        0.0000 
     38 CA         33.7000  -65.6300  112.7000 C.3       4 GLY6        0.0000 
     39 CA         32.4400  -64.3700  114.5800 C.3       4 GLY6        0.0000 
     40 CA         31.4900  -64.9900  115.5600 C.3       4 GLY6        0.0000 
     41 CA         32.4500  -66.1300  115.7700 C.3       4 GLY6        0.0000 
     42 CA         31.1700  -63.1100  116.4700 C.3       4 GLY6        0.0000 
     43 CA         32.1400  -64.2400  116.6800 C.3       4 GLY6        0.0000 
     44 CA         31.1900  -64.8700  117.6500 C.3       4 GLY6        0.0000 
     45 CA         32.1500  -66.0000  117.8600 C.3       4 GLY6        0.0000 
     46 CA         31.8200  -62.3500  117.5900 C.3       4 GLY6        0.0000 
     47 CA         30.8700  -62.9800  118.5600 C.3       4 GLY6        0.0000 
     48 CA         31.8300  -64.1100  118.7700 C.3       4 GLY6        0.0000 
     49 CA         30.8800  -64.7400  119.7500 C.3       4 GLY6        0.0000 
     50 CA         30.8900  -58.4400  121.5100 C.3       4 GLY6        0.0000 
     51 CA         29.9400  -59.0700  122.4900 C.3       4 GLY6        0.0000 
     52 CA         30.9000  -60.2000  122.6900 C.3       4 GLY6        0.0000 
     53 DU         31.7900  -65.1200  113.4600 H         5 CUB7        0.0000 
     54 DU         27.6600  -63.9900  117.0900 H         5 CUB7        0.0000 
     55 DU         29.5800  -64.4900  116.3200 H         5 CUB7        0.0000 
     56 DU         29.2600  -62.6000  117.2400 H         5 CUB7        0.0000 
     57 DU         28.3100  -63.2300  118.2100 H         5 CUB7        0.0000 
     58 DU         30.2200  -63.7300  117.4400 H         5 CUB7        0.0000 
     59 DU         26.0900  -62.6000  121.0700 H         5 CUB7        0.0000 
     60 DU         29.9100  -61.8400  118.3600 H         5 CUB7        0.0000 
     61 DU         28.9600  -62.4700  119.3300 H         5 CUB7        0.0000 
     62 DU         28.0100  -63.1000  120.3100 H         5 CUB7        0.0000 
     63 DU         27.0600  -63.7300  121.2800 H         5 CUB7        0.0000 
     64 DU         28.6500  -60.5800  120.2400 H         5 CUB7        0.0000 
     65 DU         28.6600  -62.3400  121.4300 H         5 CUB7        0.0000 
     66 DU         27.7000  -62.9700  122.4000 H         5 CUB7        0.0000 
     67 DU         29.2900  -59.8300  121.3600 H         5 CUB7        0.0000 
     68 DU         28.3400  -60.4600  122.3400 H         5 CUB7        0.0000 
@<TRIPOS>BOND
@<TRIPOS>SUBSTRUCTURE
     1 SER1        1 GROUP   
     2 ALA2        8 GROUP   
     3 PHE5       30 GROUP   
     4 GLY6       36 GROUP   
     5 CUB7       53 GROUP   
@<TRIPOS>SET

