#    Name: 6tge_7_H4M_CAVITY_N1_12
#    Modification time : Fri May 22 19:34:20 2020

@<TRIPOS>MOLECULE
6tge_7_H4M_CAVITY_N1_12
   71     0     4     0     0
SMALL
NO_CHARGES


@<TRIPOS>ATOM
      1 N          88.2900  -29.5400  143.0700 N.am      1 ALA2        0.0000 
      2 N          90.2000  -30.0500  142.3000 N.am      1 ALA2        0.0000 
      3 N          89.2500  -30.6700  143.2800 N.am      1 ALA2        0.0000 
      4 N          90.2200  -31.8100  143.4800 N.am      1 ALA2        0.0000 
      5 N          90.8600  -31.0500  144.6000 N.am      1 ALA2        0.0000 
      6 N          92.7800  -31.5500  143.8400 N.am      1 ALA2        0.0000 
      7 O          94.6900  -32.0500  143.0700 O.2       1 ALA2        0.0000 
      8 N          94.7000  -33.8200  144.2600 N.am      1 ALA2        0.0000 
      9 N          92.4700  -31.4200  145.9300 N.am      1 ALA2        0.0000 
     10 N          93.4400  -32.5500  146.1400 N.am      1 ALA2        0.0000 
     11 N          94.4000  -33.6900  146.3500 N.am      1 ALA2        0.0000 
     12 N          93.4500  -34.3200  147.3300 N.am      1 ALA2        0.0000 
     13 CZ         89.8800  -26.4000  142.0300 C.ar      2 PHE5        0.0000 
     14 CZ         88.9300  -27.0200  143.0000 C.ar      2 PHE5        0.0000 
     15 CZ         90.8400  -27.5300  142.2400 C.ar      2 PHE5        0.0000 
     16 CZ         89.8900  -28.1600  143.2100 C.ar      2 PHE5        0.0000 
     17 CZ         91.8000  -28.6600  142.4500 C.ar      2 PHE5        0.0000 
     18 CZ         90.8500  -29.2900  143.4200 C.ar      2 PHE5        0.0000 
     19 CZ         89.9000  -29.9200  144.4000 C.ar      2 PHE5        0.0000 
     20 CZ         91.5100  -30.2900  145.7300 C.ar      2 PHE5        0.0000 
     21 CZ         94.4100  -35.4500  147.5300 C.ar      2 PHE5        0.0000 
     22 CZ         93.1200  -30.6700  147.0500 C.ar      2 PHE5        0.0000 
     23 CZ         94.0800  -31.8000  147.2600 C.ar      2 PHE5        0.0000 
     24 CZ         93.1400  -34.1900  149.4200 C.ar      2 PHE5        0.0000 
     25 CZ         95.0600  -34.6900  148.6600 C.ar      2 PHE5        0.0000 
     26 CZ         94.1100  -35.3200  149.6300 C.ar      2 PHE5        0.0000 
     27 CZ         93.7800  -31.6700  149.3600 C.ar      2 PHE5        0.0000 
     28 CZ         92.8300  -32.3000  150.3300 C.ar      2 PHE5        0.0000 
     29 CZ         92.8400  -34.0600  151.5200 C.ar      2 PHE5        0.0000 
     30 CZ         91.8900  -34.6900  152.4900 C.ar      2 PHE5        0.0000 
     31 CZ         93.8000  -35.1900  151.7300 C.ar      2 PHE5        0.0000 
     32 CZ         92.8500  -35.8200  152.7000 C.ar      2 PHE5        0.0000 
     33 CZ         93.4800  -31.5400  151.4500 C.ar      2 PHE5        0.0000 
     34 CZ         92.5300  -32.1700  152.4300 C.ar      2 PHE5        0.0000 
     35 CA         87.6300  -28.5400  140.7600 C.3       3 GLY6        0.0000 
     36 CA         88.5900  -29.6700  140.9700 C.3       3 GLY6        0.0000 
     37 CA         89.5600  -30.8000  141.1800 C.3       3 GLY6        0.0000 
     38 CA         88.2800  -27.7800  141.8800 C.3       3 GLY6        0.0000 
     39 CA         92.1300  -32.3100  142.7200 C.3       3 GLY6        0.0000 
     40 CA         92.7700  -29.7900  142.6500 C.3       3 GLY6        0.0000 
     41 CA         91.8100  -30.4200  143.6300 C.3       3 GLY6        0.0000 
     42 CA         93.7300  -30.9200  142.8600 C.3       3 GLY6        0.0000 
     43 CA         93.7400  -32.6800  144.0500 C.3       3 GLY6        0.0000 
     44 CA         93.7500  -34.4400  145.2300 C.3       3 GLY6        0.0000 
     45 CA         92.4600  -29.6600  144.7500 C.3       3 GLY6        0.0000 
     46 CA         93.4200  -30.7900  144.9600 C.3       3 GLY6        0.0000 
     47 CA         95.3400  -31.3000  144.1900 C.3       3 GLY6        0.0000 
     48 CA         94.3900  -31.9300  145.1700 C.3       3 GLY6        0.0000 
     49 CA         95.3500  -33.0600  145.3800 C.3       3 GLY6        0.0000 
     50 CA         95.3600  -34.8200  146.5600 C.3       3 GLY6        0.0000 
     51 CA         95.0300  -31.1700  146.2900 C.3       3 GLY6        0.0000 
     52 CA         93.1300  -32.4300  148.2400 C.3       3 GLY6        0.0000 
     53 CA         96.0000  -32.3000  146.5000 C.3       3 GLY6        0.0000 
     54 CA         94.0900  -33.5600  148.4500 C.3       3 GLY6        0.0000 
     55 CA         94.7300  -31.0400  148.3800 C.3       3 GLY6        0.0000 
     56 CA         95.6900  -32.1700  148.5900 C.3       3 GLY6        0.0000 
     57 CA         93.7900  -33.4300  150.5400 C.3       3 GLY6        0.0000 
     58 CA         94.4300  -30.9100  150.4800 C.3       3 GLY6        0.0000 
     59 CA         95.3900  -32.0400  150.6900 C.3       3 GLY6        0.0000 
     60 DU         91.4700  -31.3100  140.4100 H         4 CUB7        0.0000 
     61 DU         90.1900  -28.2800  141.1200 H         4 CUB7        0.0000 
     62 DU         89.2400  -28.9100  142.0900 H         4 CUB7        0.0000 
     63 DU         91.1600  -29.4200  141.3300 H         4 CUB7        0.0000 
     64 DU         92.1200  -30.5500  141.5300 H         4 CUB7        0.0000 
     65 DU         91.1700  -31.1800  142.5100 H         4 CUB7        0.0000 
     66 DU         93.0800  -31.6800  141.7400 H         4 CUB7        0.0000 
     67 DU         95.0500  -32.9300  147.4700 H         4 CUB7        0.0000 
     68 DU         94.7400  -32.8000  149.5700 H         4 CUB7        0.0000 
     69 DU         94.7500  -34.5600  150.7500 H         4 CUB7        0.0000 
     70 DU         94.4400  -32.6700  151.6600 H         4 CUB7        0.0000 
     71 DU         93.4900  -33.3000  152.6400 H         4 CUB7        0.0000 
@<TRIPOS>BOND
@<TRIPOS>SUBSTRUCTURE
     1 ALA2        1 GROUP   
     2 PHE5       13 GROUP   
     3 GLY6       35 GROUP   
     4 CUB7       60 GROUP   
@<TRIPOS>SET

