#    Name: 6tge_25_NAP
#    Modification time : Fri May 22 19:36:03 2020

@<TRIPOS>MOLECULE
6tge_25_NAP
   48    52     1     0     1
SMALL
NO_CHARGES


@<TRIPOS>ATOM
      1 PA         71.4030    8.1600  159.4620 P.3       1 NAP301      0.0000 
      2 O1A        72.7800    7.7840  159.6140 O.co2     1 NAP301      0.0000 
      3 O2A        71.0760    9.4690  159.9970 O.co2     1 NAP301      0.0000 
      4 O5B        70.5320    6.9950  160.1040 O.3       1 NAP301      0.0000 
      5 C5B        69.1780    7.0050  159.8550 C.3       1 NAP301      0.0000 
      6 C4B        68.3890    6.3280  160.9490 C.3       1 NAP301      0.0000 
      7 O4B        68.6500    4.9540  161.0310 O.3       1 NAP301      0.0000 
      8 C3B        68.6120    6.8090  162.3510 C.3       1 NAP301      0.0000 
      9 O3B        67.9800    8.0470  162.6220 O.3       1 NAP301      0.0000 
     10 C2B        68.0050    5.6700  163.1370 C.3       1 NAP301      0.0000 
     11 O2B        66.6280    5.9260  163.3890 O.3       1 NAP301      0.0000 
     12 C1B        68.1560    4.4650  162.2320 C.3       1 NAP301      0.0000 
     13 N9A        69.0830    3.5050  162.8330 N.pl3     1 NAP301      0.0000 
     14 C8A        70.3200    3.6410  163.2340 C.2       1 NAP301      0.0000 
     15 N7A        70.7950    2.5030  163.7140 N.2       1 NAP301      0.0000 
     16 C5A        69.8580    1.6400  163.6310 C.ar      1 NAP301      0.0000 
     17 C6A        69.7710    0.2520  163.9890 C.ar      1 NAP301      0.0000 
     18 N6A        70.7040   -0.5010  164.5210 N.pl3     1 NAP301      0.0000 
     19 N1A        68.6460   -0.3660  163.7710 N.ar      1 NAP301      0.0000 
     20 C2A        67.6170    0.2660  163.2240 C.ar      1 NAP301      0.0000 
     21 N3A        67.6380    1.5550  162.8780 N.ar      1 NAP301      0.0000 
     22 C4A        68.7240    2.2680  163.0560 C.ar      1 NAP301      0.0000 
     23 O3         71.0770    8.0790  157.9430 O.3       1 NAP301      0.0000 
     24 PN         70.6500    9.1250  156.8050 P.3       1 NAP301      0.0000 
     25 O1N        69.3030    9.5890  156.9570 O.co2     1 NAP301      0.0000 
     26 O2N        71.6760   10.2030  156.7730 O.co2     1 NAP301      0.0000 
     27 O5D        70.7560    8.3340  155.4730 O.3       1 NAP301      0.0000 
     28 C5D        69.9850    7.1860  155.3690 C.3       1 NAP301      0.0000 
     29 C4D        70.6740    6.1830  154.4690 C.3       1 NAP301      0.0000 
     30 O4D        70.8480    6.6940  153.1590 O.3       1 NAP301      0.0000 
     31 C3D        72.0660    5.8080  154.9540 C.3       1 NAP301      0.0000 
     32 O3D        72.2470    4.4170  154.7760 O.3       1 NAP301      0.0000 
     33 C2D        72.9750    6.5880  154.0620 C.3       1 NAP301      0.0000 
     34 O2D        74.2620    5.9880  153.8860 O.3       1 NAP301      0.0000 
     35 C1D        72.2220    6.5030  152.7680 C.3       1 NAP301      0.0000 
     36 N1N        72.5200    7.4540  151.7600 N.pl3     1 NAP301      0.0000 
     37 C2N        72.3600    7.0870  150.4640 C.ar      1 NAP301      0.0000 
     38 C3N        72.5470    7.9660  149.4100 C.ar      1 NAP301      0.0000 
     39 C7N        72.2220    7.5320  147.9730 C.2       1 NAP301      0.0000 
     40 O7N        72.2990    8.3140  147.0770 O.2       1 NAP301      0.0000 
     41 N7N        71.7760    6.1720  147.7400 N.am      1 NAP301      0.0000 
     42 C4N        72.9600    9.2710  149.6980 C.ar      1 NAP301      0.0000 
     43 C5N        72.9230    9.6760  151.0280 C.ar      1 NAP301      0.0000 
     44 C6N        72.7840    8.7570  152.0450 C.ar      1 NAP301      0.0000 
     45 P2B        65.9680    5.7360  164.8370 P.3       1 NAP301      0.0000 
     46 O1X        64.8880    6.6800  164.9340 O.co2     1 NAP301      0.0000 
     47 O2X        65.4250    4.3760  164.9030 O.co2     1 NAP301      0.0000 
     48 O3X        67.0210    5.9450  165.8510 O.co2     1 NAP301      0.0000 
@<TRIPOS>BOND
     1    1    2 ar   
     2    1    3 ar   
     3    1    4 1    
     4    1   23 1    
     5    4    5 1    
     6    5    6 1    
     7    6    7 1    
     8    6    8 1    
     9    7   12 1    
    10    8    9 1    
    11    8   10 1    
    12   10   11 1    
    13   10   12 1    
    14   11   45 1    
    15   12   13 1    
    16   13   14 1    
    17   13   22 1    
    18   14   15 2    
    19   15   16 1    
    20   16   17 ar   
    21   16   22 ar   
    22   17   18 1    
    23   17   19 ar   
    24   19   20 ar   
    25   20   21 ar   
    26   21   22 ar   
    27   23   24 1    
    28   24   25 ar   
    29   24   26 ar   
    30   24   27 1    
    31   27   28 1    
    32   28   29 1    
    33   29   30 1    
    34   29   31 1    
    35   30   35 1    
    36   31   32 1    
    37   31   33 1    
    38   33   34 1    
    39   33   35 1    
    40   35   36 1    
    41   36   37 ar   
    42   36   44 ar   
    43   37   38 ar   
    44   38   39 1    
    45   38   42 ar   
    46   39   40 2    
    47   39   41 am   
    48   42   43 ar   
    49   43   44 ar   
    50   45   46 ar   
    51   45   47 ar   
    52   45   48 ar   
@<TRIPOS>SUBSTRUCTURE
     1 NAP301      1 GROUP   
@<TRIPOS>SET
ATOM$ORANGE STATIC     ATOMS   COLORGROUP SYSTEM 
42 5 5 6 6 8 8 10 10 12 12 14 14 16 16 17 17 20 \
20 22 22 28 28 29 29 31 31 33 33 35 35 37 37 38 38 39 \
39 42 42 43 43 44 44 

