#    Name: 6tge_26_NAP_CAVITY_N1_ALL
#    Modification time : Fri May 22 19:35:57 2020

@<TRIPOS>MOLECULE
6tge_26_NAP_CAVITY_N1_ALL
   88     0     5     0     0
SMALL
NO_CHARGES


@<TRIPOS>ATOM
      1 OG         44.5300  -42.6400   68.8300 O.3       1 SER1        0.0000 
      2 OG         44.2100  -40.7600   69.7400 O.3       1 SER1        0.0000 
      3 N          43.2300  -44.1600   66.5900 N.am      2 ALA2        0.0000 
      4 N          44.1900  -45.2900   66.8000 N.am      2 ALA2        0.0000 
      5 N          46.1100  -45.7900   66.0300 N.am      2 ALA2        0.0000 
      6 N          41.9800  -44.6600   69.6600 N.am      2 ALA2        0.0000 
      7 N          43.8900  -45.1600   68.8900 N.am      2 ALA2        0.0000 
      8 N          44.8500  -46.2900   69.1000 N.am      2 ALA2        0.0000 
      9 N          42.6200  -43.9000   70.7800 N.am      2 ALA2        0.0000 
     10 N          44.5400  -44.4100   70.0100 N.am      2 ALA2        0.0000 
     11 N          43.5900  -45.0300   70.9900 N.am      2 ALA2        0.0000 
     12 N          42.6400  -45.6600   71.9600 N.am      2 ALA2        0.0000 
     13 N          41.6800  -46.2900   72.9400 N.am      2 ALA2        0.0000 
     14 N          45.5000  -45.5400   70.2200 N.am      2 ALA2        0.0000 
     15 N          43.2600  -41.3800   70.7200 N.am      2 ALA2        0.0000 
     16 N          45.1700  -41.8900   69.9500 N.am      2 ALA2        0.0000 
     17 N          44.2200  -42.5200   70.9200 N.am      2 ALA2        0.0000 
     18 N          41.3700  -44.4000   73.8500 N.am      2 ALA2        0.0000 
     19 N          42.3300  -45.5300   74.0600 N.am      2 ALA2        0.0000 
     20 N          43.2900  -46.6700   74.2700 N.am      2 ALA2        0.0000 
     21 N          46.7700  -40.5000   70.1000 N.am      2 ALA2        0.0000 
     22 N          45.8200  -41.1300   71.0700 N.am      2 ALA2        0.0000 
     23 N          41.0700  -44.2700   75.9400 N.am      2 ALA2        0.0000 
     24 N          42.9800  -44.7800   75.1800 N.am      2 ALA2        0.0000 
     25 N          42.0300  -45.4100   76.1500 N.am      2 ALA2        0.0000 
     26 O          43.9400  -45.9100   75.3900 O.2       2 ALA2        0.0000 
     27 N          47.4200  -39.7400   71.2200 N.am      2 ALA2        0.0000 
     28 N          46.4700  -40.3700   72.1900 N.am      2 ALA2        0.0000 
     29 O          42.6700  -42.8900   76.0900 O.2       2 ALA2        0.0000 
     30 N          41.7200  -43.5200   77.0700 N.am      2 ALA2        0.0000 
     31 N          40.7600  -44.1500   78.0400 N.am      2 ALA2        0.0000 
     32 N          47.4300  -41.5000   72.4000 N.am      2 ALA2        0.0000 
     33 O          41.7300  -45.2800   78.2500 O.2       2 ALA2        0.0000 
     34 CZ         47.7200  -46.1700   67.3600 C.ar      3 PHE5        0.0000 
     35 CZ         46.4400  -43.1500   68.0600 C.ar      3 PHE5        0.0000 
     36 CZ         48.3600  -45.4100   68.4800 C.ar      3 PHE5        0.0000 
     37 CZ         47.4100  -46.0400   69.4500 C.ar      3 PHE5        0.0000 
     38 CZ         46.1300  -41.2600   68.9800 C.ar      3 PHE5        0.0000 
     39 CZ         47.0900  -42.3900   69.1800 C.ar      3 PHE5        0.0000 
     40 CZ         48.0500  -43.5200   69.3900 C.ar      3 PHE5        0.0000 
     41 CZ         49.0100  -44.6500   69.6000 C.ar      3 PHE5        0.0000 
     42 CZ         48.0600  -45.2800   70.5800 C.ar      3 PHE5        0.0000 
     43 CZ         47.7400  -41.6300   70.3000 C.ar      3 PHE5        0.0000 
     44 CZ         48.7000  -42.7700   70.5100 C.ar      3 PHE5        0.0000 
     45 CZ         49.6600  -43.9000   70.7200 C.ar      3 PHE5        0.0000 
     46 CZ         48.7100  -44.5300   71.7000 C.ar      3 PHE5        0.0000 
     47 CZ         48.3800  -40.8800   71.4300 C.ar      3 PHE5        0.0000 
     48 CZ         49.3500  -42.0100   71.6300 C.ar      3 PHE5        0.0000 
     49 CA         45.1400  -44.6600   65.8200 C.3       4 GLY6        0.0000 
     50 CA         45.1500  -46.4200   67.0000 C.3       4 GLY6        0.0000 
     51 CA         44.8300  -42.7700   66.7300 C.3       4 GLY6        0.0000 
     52 CA         43.8800  -43.4000   67.7100 C.3       4 GLY6        0.0000 
     53 CA         42.9300  -44.0300   68.6800 C.3       4 GLY6        0.0000 
     54 CA         45.8000  -45.6700   68.1300 C.3       4 GLY6        0.0000 
     55 CA         46.7600  -46.8000   68.3300 C.3       4 GLY6        0.0000 
     56 CA         41.6600  -42.7700   70.5700 C.3       4 GLY6        0.0000 
     57 CA         45.4800  -42.0200   67.8500 C.3       4 GLY6        0.0000 
     58 CA         43.5800  -43.2700   69.8000 C.3       4 GLY6        0.0000 
     59 CA         41.6700  -44.5300   71.7500 C.3       4 GLY6        0.0000 
     60 CA         47.4000  -44.2800   68.2700 C.3       4 GLY6        0.0000 
     61 CA         43.2700  -43.1400   71.9000 C.3       4 GLY6        0.0000 
     62 CA         42.3200  -43.7700   72.8700 C.3       4 GLY6        0.0000 
     63 CA         47.1100  -45.9100   71.5500 C.3       4 GLY6        0.0000 
     64 CA         47.7600  -45.1500   72.6700 C.3       4 GLY6        0.0000 
     65 CA         42.6800  -44.6500   77.2700 C.3       4 GLY6        0.0000 
     66 CA         41.4100  -43.3900   79.1600 C.3       4 GLY6        0.0000 
     67 CA         43.3300  -43.8900   78.3900 C.3       4 GLY6        0.0000 
     68 CA         42.3700  -44.5200   79.3700 C.3       4 GLY6        0.0000 
     69 DU         45.7900  -43.9100   66.9400 H         5 CUB7        0.0000 
     70 DU         44.8400  -44.5300   67.9200 H         5 CUB7        0.0000 
     71 DU         46.7500  -45.0400   67.1500 H         5 CUB7        0.0000 
     72 DU         45.4900  -43.7800   69.0400 H         5 CUB7        0.0000 
     73 DU         46.4500  -44.9100   69.2500 H         5 CUB7        0.0000 
     74 DU         46.1400  -43.0200   70.1600 H         5 CUB7        0.0000 
     75 DU         45.1900  -43.6500   71.1300 H         5 CUB7        0.0000 
     76 DU         44.2300  -44.2800   72.1100 H         5 CUB7        0.0000 
     77 DU         43.2800  -44.9100   73.0800 H         5 CUB7        0.0000 
     78 DU         47.1000  -44.1500   70.3700 H         5 CUB7        0.0000 
     79 DU         46.1500  -44.7800   71.3400 H         5 CUB7        0.0000 
     80 DU         45.2000  -45.4100   72.3200 H         5 CUB7        0.0000 
     81 DU         44.2500  -46.0400   73.2900 H         5 CUB7        0.0000 
     82 DU         42.0200  -43.6400   74.9700 H         5 CUB7        0.0000 
     83 DU         46.7800  -42.2600   71.2800 H         5 CUB7        0.0000 
     84 DU         43.9300  -44.1500   74.2000 H         5 CUB7        0.0000 
     85 DU         47.7500  -43.3900   71.4900 H         5 CUB7        0.0000 
     86 DU         46.8000  -44.0200   72.4600 H         5 CUB7        0.0000 
     87 DU         43.6300  -44.0200   76.3000 H         5 CUB7        0.0000 
     88 DU         42.3600  -42.7600   78.1900 H         5 CUB7        0.0000 
@<TRIPOS>BOND
@<TRIPOS>SUBSTRUCTURE
     1 SER1        1 GROUP   
     2 ALA2        3 GROUP   
     3 PHE5       34 GROUP   
     4 GLY6       49 GROUP   
     5 CUB7       69 GROUP   
@<TRIPOS>SET

