#    Name: 6tge_3_H4M
#    Modification time : Fri May 22 19:34:03 2020

@<TRIPOS>MOLECULE
6tge_3_H4M
   45    49     1     0     0
SMALL
NO_CHARGES


@<TRIPOS>ATOM
      1 N1         -6.1580   23.7860   77.9450 N.2       1 H4M302      0.0000 
      2 C2         -5.6210   24.8140   77.2390 C.2       1 H4M302      0.0000 
      3 NA2        -4.3270   25.0930   77.3380 N.pl3     1 H4M302      0.0000 
      4 N3         -6.3880   25.5730   76.4040 N.am      1 H4M302      0.0000 
      5 C4         -7.7350   25.3100   76.2880 C.2       1 H4M302      0.0000 
      6 OH4        -8.3960   25.9900   75.5520 O.2       1 H4M302      0.0000 
      7 C4A        -8.3330   24.2190   77.0390 C.2       1 H4M302      0.0000 
      8 N5         -9.7050   23.8820   76.9290 N.3       1 H4M302      0.0000 
      9 C6        -10.2830   23.1810   78.0530 C.3       1 H4M302      0.0000 
     10 C7         -9.3920   22.0590   78.4950 C.3       1 H4M302      0.0000 
     11 C7M        -9.8690   21.2600   79.7120 C.3       1 H4M302      0.0000 
     12 N8         -7.9950   22.3780   78.6310 N.pl3     1 H4M302      0.0000 
     13 C8A        -7.4940   23.4630   77.8590 C.2       1 H4M302      0.0000 
     14 C9        -11.6740   22.7920   77.5540 C.3       1 H4M302      0.0000 
     15 C9M       -12.7370   23.5400   78.4010 C.3       1 H4M302      0.0000 
     16 C10       -10.4840   24.0160   75.9620 C.3       1 H4M302      0.0000 
     17 N10       -11.7360   23.2920   76.1930 N.3       1 H4M302      0.0000 
     18 C11       -14.2950   21.9400   73.1180 C.ar      1 H4M302      0.0000 
     19 C12       -14.2960   21.2980   74.3580 C.ar      1 H4M302      0.0000 
     20 C13       -13.4630   21.7240   75.4010 C.ar      1 H4M302      0.0000 
     21 C14       -12.5930   22.8020   75.2160 C.ar      1 H4M302      0.0000 
     22 C15       -12.5930   23.4470   73.9630 C.ar      1 H4M302      0.0000 
     23 C16       -13.4260   23.0160   72.9270 C.ar      1 H4M302      0.0000 
     24 CX1       -15.1380   21.4710   72.0940 C.3       1 H4M302      0.0000 
     25 CX2       -15.8090   22.6060   71.3170 C.3       1 H4M302      0.0000 
     26 CX3       -16.8770   22.1660   70.3100 C.3       1 H4M302      0.0000 
     27 CX4       -16.3640   21.1570   69.2790 C.3       1 H4M302      0.0000 
     28 CX5       -17.5720   20.6570   68.4660 C.3       1 H4M302      0.0000 
     29 OX2       -16.4760   23.4670   72.2530 O.3       1 H4M302      0.0000 
     30 OX3       -17.9860   21.5830   71.0130 O.3       1 H4M302      0.0000 
     31 OX4       -15.4060   21.7680   68.4070 O.3       1 H4M302      0.0000 
     32 OX5       -17.1450   19.9610   67.2850 O.3       1 H4M302      0.0000 
     33 O5J       -20.4010   18.8190   63.7610 O.3       1 H4M302      0.0000 
     34 C5J       -19.1530   19.3960   63.3380 C.3       1 H4M302      0.0000 
     35 C4J       -18.2250   19.6390   64.5380 C.3       1 H4M302      0.0000 
     36 O4J       -18.9650   19.6110   65.7770 O.3       1 H4M302      0.0000 
     37 C3J       -17.1710   18.5400   64.6290 C.3       1 H4M302      0.0000 
     38 O3J       -15.8660   19.1400   64.5320 O.3       1 H4M302      0.0000 
     39 C2J       -17.3620   17.9240   66.0050 C.3       1 H4M302      0.0000 
     40 O2J       -16.0860   17.6680   66.6020 O.3       1 H4M302      0.0000 
     41 C1J       -18.0990   19.0160   66.7630 C.3       1 H4M302      0.0000 
     42 PA        -21.8110   19.6140   63.4680 P.3       1 H4M302      0.0000 
     43 O1A       -21.5550   20.8410   62.6160 O.3       1 H4M302      0.0000 
     44 O2A       -22.7810   18.6990   62.7510 O.co2     1 H4M302      0.0000 
     45 O3A       -22.4580   20.0690   64.9390 O.co2     1 H4M302      0.0000 
@<TRIPOS>BOND
     1    1    2 2    
     2    1   13 1    
     3    2    3 1    
     4    2    4 1    
     5    4    5 am   
     6    5    6 2    
     7    5    7 1    
     8    7    8 1    
     9    7   13 2    
    10    8    9 1    
    11    8   16 1    
    12    9   10 1    
    13    9   14 1    
    14   10   11 1    
    15   10   12 1    
    16   12   13 1    
    17   14   15 1    
    18   14   17 1    
    19   16   17 1    
    20   17   21 1    
    21   18   19 ar   
    22   18   23 ar   
    23   18   24 1    
    24   19   20 ar   
    25   20   21 ar   
    26   21   22 ar   
    27   22   23 ar   
    28   24   25 1    
    29   25   26 1    
    30   25   29 1    
    31   26   27 1    
    32   26   30 1    
    33   27   28 1    
    34   27   31 1    
    35   28   32 1    
    36   32   41 1    
    37   33   34 1    
    38   33   42 1    
    39   34   35 1    
    40   35   36 1    
    41   35   37 1    
    42   36   41 1    
    43   37   38 1    
    44   37   39 1    
    45   39   40 1    
    46   39   41 1    
    47   42   43 1    
    48   42   44 ar   
    49   42   45 ar   
@<TRIPOS>SUBSTRUCTURE
     1 H4M302      1 GROUP   
@<TRIPOS>SET

