#    Name: 6tge_6_H4M_CAVITY_N1_4
#    Modification time : Fri May 22 19:34:12 2020

@<TRIPOS>MOLECULE
6tge_6_H4M_CAVITY_N1_4
   88     0     4     0     0
SMALL
NO_CHARGES


@<TRIPOS>ATOM
      1 N          43.5700    5.8900   34.5800 N.am      1 ALA2        0.0000 
      2 N          43.2700    6.0200   36.6700 N.am      1 ALA2        0.0000 
      3 N          45.2300    6.5300   41.2200 N.am      1 ALA2        0.0000 
      4 N          45.8800    7.2900   42.3400 N.am      1 ALA2        0.0000 
      5 N          48.4400    7.5500   42.6900 N.am      1 ALA2        0.0000 
      6 N          47.4900    6.9200   43.6700 N.am      1 ALA2        0.0000 
      7 N          49.4000    6.4100   42.9000 N.am      1 ALA2        0.0000 
      8 N          48.4500    5.7900   43.8800 N.am      1 ALA2        0.0000 
      9 N          49.4100    4.6500   44.0900 N.am      1 ALA2        0.0000 
     10 N          47.1700    8.8100   44.5800 N.am      1 ALA2        0.0000 
     11 N          49.1000    6.5400   45.0000 N.am      1 ALA2        0.0000 
     12 N          50.0600    5.4100   45.2100 N.am      1 ALA2        0.0000 
     13 N          47.8200    9.5600   45.7000 N.am      1 ALA2        0.0000 
     14 CZ         44.2300    4.8900   36.8800 C.ar      2 PHE5        0.0000 
     15 CZ         46.1500    4.3900   36.1100 C.ar      2 PHE5        0.0000 
     16 CZ         45.2000    3.7600   37.0900 C.ar      2 PHE5        0.0000 
     17 CZ         44.8800    5.6500   38.0000 C.ar      2 PHE5        0.0000 
     18 CZ         48.7000    6.4000   35.2900 C.ar      2 PHE5        0.0000 
     19 CZ         47.7500    5.7700   36.2600 C.ar      2 PHE5        0.0000 
     20 CZ         46.7900    5.1500   37.2400 C.ar      2 PHE5        0.0000 
     21 CZ         45.8400    4.5200   38.2100 C.ar      2 PHE5        0.0000 
     22 CZ         45.5300    6.4100   39.1200 C.ar      2 PHE5        0.0000 
     23 CZ         44.5800    5.7800   40.1000 C.ar      2 PHE5        0.0000 
     24 CZ         49.3500    7.1600   36.4100 C.ar      2 PHE5        0.0000 
     25 CZ         48.3900    6.5300   37.3800 C.ar      2 PHE5        0.0000 
     26 CZ         47.4400    5.9000   38.3600 C.ar      2 PHE5        0.0000 
     27 CZ         46.4900    5.2700   39.3300 C.ar      2 PHE5        0.0000 
     28 CZ         49.9900    7.9200   37.5300 C.ar      2 PHE5        0.0000 
     29 CZ         49.0400    7.2900   38.5000 C.ar      2 PHE5        0.0000 
     30 CZ         48.0900    6.6600   39.4800 C.ar      2 PHE5        0.0000 
     31 CZ         50.6400    8.6800   38.6500 C.ar      2 PHE5        0.0000 
     32 CZ         48.7400    7.4200   40.6000 C.ar      2 PHE5        0.0000 
     33 CZ         50.3500    7.0400   41.9300 C.ar      2 PHE5        0.0000 
     34 CZ         51.9500    8.4300   42.0700 C.ar      2 PHE5        0.0000 
     35 CZ         51.0000    7.8000   43.0500 C.ar      2 PHE5        0.0000 
     36 CZ         50.0500    7.1700   44.0200 C.ar      2 PHE5        0.0000 
     37 CZ         51.0100    6.0400   44.2300 C.ar      2 PHE5        0.0000 
     38 CZ         53.5500    9.8200   42.2200 C.ar      2 PHE5        0.0000 
     39 CZ         51.6500    8.5600   44.1700 C.ar      2 PHE5        0.0000 
     40 CZ         50.6900    7.9300   45.1400 C.ar      2 PHE5        0.0000 
     41 CZ         51.6600    6.8000   45.3500 C.ar      2 PHE5        0.0000 
     42 CA         48.0600    3.8900   35.3500 C.3       3 GLY6        0.0000 
     43 CA         46.7700    8.6700   34.8700 C.3       3 GLY6        0.0000 
     44 CA         47.7400    7.5300   35.0800 C.3       3 GLY6        0.0000 
     45 CA         47.4200    9.4200   35.9900 C.3       3 GLY6        0.0000 
     46 CA         48.0700   10.1800   37.1100 C.3       3 GLY6        0.0000 
     47 CA         47.1200    9.5500   38.0900 C.3       3 GLY6        0.0000 
     48 CA         44.2600    7.6700   41.0100 C.3       3 GLY6        0.0000 
     49 CA         47.1400    6.0300   40.4500 C.3       3 GLY6        0.0000 
     50 CA         46.8200    9.6800   40.1800 C.3       3 GLY6        0.0000 
     51 CA         45.8600    9.0500   41.1600 C.3       3 GLY6        0.0000 
     52 CA         44.9100    8.4200   42.1300 C.3       3 GLY6        0.0000 
     53 CA         49.6800    9.8100   38.4400 C.3       3 GLY6        0.0000 
     54 CA         48.7300    9.1800   39.4100 C.3       3 GLY6        0.0000 
     55 CA         47.7800    8.5500   40.3900 C.3       3 GLY6        0.0000 
     56 CA         47.7900    6.7900   41.5700 C.3       3 GLY6        0.0000 
     57 CA         46.5100    9.8100   42.2800 C.3       3 GLY6        0.0000 
     58 CA         45.5600    9.1800   43.2500 C.3       3 GLY6        0.0000 
     59 CA         47.4700    8.6800   42.4800 C.3       3 GLY6        0.0000 
     60 CA         46.5200    8.0500   43.4600 C.3       3 GLY6        0.0000 
     61 CA         50.3400    8.8000   40.7400 C.3       3 GLY6        0.0000 
     62 CA         49.3900    8.1700   41.7200 C.3       3 GLY6        0.0000 
     63 CA         50.3600    5.2800   43.1100 C.3       3 GLY6        0.0000 
     64 CA         48.1200    9.4400   43.6100 C.3       3 GLY6        0.0000 
     65 CA         50.9900    9.5600   41.8600 C.3       3 GLY6        0.0000 
     66 CA         50.0400    8.9300   42.8400 C.3       3 GLY6        0.0000 
     67 CA         49.0800    8.3000   43.8100 C.3       3 GLY6        0.0000 
     68 CA         52.5900   10.9500   42.0100 C.3       3 GLY6        0.0000 
     69 CA         51.6300   10.3200   42.9900 C.3       3 GLY6        0.0000 
     70 DU         44.2200    6.6500   35.7000 H         4 CUB7        0.0000 
     71 DU         45.1800    5.5200   35.9100 H         4 CUB7        0.0000 
     72 DU         44.8600    9.1700   35.6300 H         4 CUB7        0.0000 
     73 DU         45.8200    8.0400   35.8400 H         4 CUB7        0.0000 
     74 DU         46.7800    6.9100   36.0500 H         4 CUB7        0.0000 
     75 DU         45.8300    6.2800   37.0300 H         4 CUB7        0.0000 
     76 DU         46.4700    8.8000   36.9600 H         4 CUB7        0.0000 
     77 DU         48.3800    8.2900   36.2000 H         4 CUB7        0.0000 
     78 DU         47.4300    7.6600   37.1700 H         4 CUB7        0.0000 
     79 DU         46.4800    7.0300   38.1500 H         4 CUB7        0.0000 
     80 DU         46.1700    8.9200   39.0600 H         4 CUB7        0.0000 
     81 DU         45.2200    8.3000   40.0300 H         4 CUB7        0.0000 
     82 DU         49.0300    9.0500   37.3200 H         4 CUB7        0.0000 
     83 DU         48.0800    8.4200   38.2900 H         4 CUB7        0.0000 
     84 DU         47.1300    7.7900   39.2700 H         4 CUB7        0.0000 
     85 DU         46.1800    7.1600   40.2400 H         4 CUB7        0.0000 
     86 DU         46.8300    7.9200   41.3600 H         4 CUB7        0.0000 
     87 DU         48.1300    7.6700   44.7900 H         4 CUB7        0.0000 
     88 DU         49.7300    9.0600   44.9400 H         4 CUB7        0.0000 
@<TRIPOS>BOND
@<TRIPOS>SUBSTRUCTURE
     1 ALA2        1 GROUP   
     2 PHE5       14 GROUP   
     3 GLY6       42 GROUP   
     4 CUB7       70 GROUP   
@<TRIPOS>SET

