#    Name: 6tge_9_H4M
#    Modification time : Fri May 22 19:34:34 2020

@<TRIPOS>MOLECULE
6tge_9_H4M
   45    49     1     0     0
SMALL
NO_CHARGES


@<TRIPOS>ATOM
      1 N1         62.9190  -41.3440  158.7710 N.2       1 H4M302      0.0000 
      2 C2         63.4340  -40.3340  158.0350 C.2       1 H4M302      0.0000 
      3 NA2        64.7310  -40.0790  158.1180 N.pl3     1 H4M302      0.0000 
      4 N3         62.6530  -39.5830  157.1990 N.am      1 H4M302      0.0000 
      5 C4         61.2970  -39.8600  157.1100 C.2       1 H4M302      0.0000 
      6 OH4        60.6330  -39.1810  156.3570 O.2       1 H4M302      0.0000 
      7 C4A        60.7270  -40.9490  157.9060 C.2       1 H4M302      0.0000 
      8 N5         59.3560  -41.3260  157.8690 N.3       1 H4M302      0.0000 
      9 C6         58.8320  -42.0180  159.0310 C.3       1 H4M302      0.0000 
     10 C7         59.7530  -43.1230  159.4410 C.3       1 H4M302      0.0000 
     11 C7M        59.2880  -44.0110  160.5990 C.3       1 H4M302      0.0000 
     12 N8         61.1410  -42.7660  159.5540 N.pl3     1 H4M302      0.0000 
     13 C8A        61.5910  -41.6860  158.7270 C.2       1 H4M302      0.0000 
     14 C9         57.4280  -42.4200  158.5730 C.3       1 H4M302      0.0000 
     15 C9M        56.4100  -41.3900  159.1210 C.3       1 H4M302      0.0000 
     16 C10        58.5090  -41.2670  156.9580 C.3       1 H4M302      0.0000 
     17 N10        57.5700  -42.3870  157.1240 N.3       1 H4M302      0.0000 
     18 C11        54.3060  -42.5920  154.4920 C.ar      1 H4M302      0.0000 
     19 C12        54.3330  -43.4320  155.6120 C.ar      1 H4M302      0.0000 
     20 C13        55.4060  -43.3900  156.5150 C.ar      1 H4M302      0.0000 
     21 C14        56.4620  -42.4990  156.3060 C.ar      1 H4M302      0.0000 
     22 C15        56.4240  -41.6680  155.1750 C.ar      1 H4M302      0.0000 
     23 C16        55.3570  -41.7100  154.2860 C.ar      1 H4M302      0.0000 
     24 CX1        53.2370  -42.6000  153.5830 C.3       1 H4M302      0.0000 
     25 CX2        53.5080  -43.5010  152.3720 C.3       1 H4M302      0.0000 
     26 CX3        52.3520  -43.4320  151.3590 C.3       1 H4M302      0.0000 
     27 CX4        51.5910  -44.7640  151.3140 C.3       1 H4M302      0.0000 
     28 CX5        50.1350  -44.6160  151.7500 C.3       1 H4M302      0.0000 
     29 OX2        54.7060  -43.0700  151.7120 O.3       1 H4M302      0.0000 
     30 OX3        51.4860  -42.3630  151.7300 O.3       1 H4M302      0.0000 
     31 OX4        51.6110  -45.2550  149.9590 O.3       1 H4M302      0.0000 
     32 OX5        49.6740  -45.8530  152.3190 O.3       1 H4M302      0.0000 
     33 O5J        47.9730  -49.4710  149.1970 O.3       1 H4M302      0.0000 
     34 C5J        47.1350  -48.5500  149.9070 C.3       1 H4M302      0.0000 
     35 C4J        47.9590  -47.9040  151.0200 C.3       1 H4M302      0.0000 
     36 O4J        47.8390  -46.4730  150.9800 O.3       1 H4M302      0.0000 
     37 C3J        47.4370  -48.2890  152.3950 C.3       1 H4M302      0.0000 
     38 O3J        48.0870  -49.4760  152.8640 O.3       1 H4M302      0.0000 
     39 C2J        47.8180  -47.1010  153.2640 C.3       1 H4M302      0.0000 
     40 O2J        48.9160  -47.4490  154.1190 O.3       1 H4M302      0.0000 
     41 C1J        48.2450  -46.0190  152.2820 C.3       1 H4M302      0.0000 
     42 PA         48.0500  -49.3660  147.5650 P.3       1 H4M302      0.0000 
     43 O1A        49.2110  -50.1920  147.0610 O.3       1 H4M302      0.0000 
     44 O2A        46.7650  -49.8870  146.9670 O.co2     1 H4M302      0.0000 
     45 O3A        48.2680  -47.7720  147.1250 O.co2     1 H4M302      0.0000 
@<TRIPOS>BOND
     1    1    2 2    
     2    1   13 1    
     3    2    3 1    
     4    2    4 1    
     5    4    5 am   
     6    5    6 2    
     7    5    7 1    
     8    7    8 1    
     9    7   13 2    
    10    8    9 1    
    11    8   16 1    
    12    9   10 1    
    13    9   14 1    
    14   10   11 1    
    15   10   12 1    
    16   12   13 1    
    17   14   15 1    
    18   14   17 1    
    19   16   17 1    
    20   17   21 1    
    21   18   19 ar   
    22   18   23 ar   
    23   18   24 1    
    24   19   20 ar   
    25   20   21 ar   
    26   21   22 ar   
    27   22   23 ar   
    28   24   25 1    
    29   25   26 1    
    30   25   29 1    
    31   26   27 1    
    32   26   30 1    
    33   27   28 1    
    34   27   31 1    
    35   28   32 1    
    36   32   41 1    
    37   33   34 1    
    38   33   42 1    
    39   34   35 1    
    40   35   36 1    
    41   35   37 1    
    42   36   41 1    
    43   37   38 1    
    44   37   39 1    
    45   39   40 1    
    46   39   41 1    
    47   42   43 1    
    48   42   44 ar   
    49   42   45 ar   
@<TRIPOS>SUBSTRUCTURE
     1 H4M302      1 GROUP   
@<TRIPOS>SET

