#    Name: 6tge_9_H4M_CAVITY_N1_4
#    Modification time : Fri May 22 19:34:35 2020

@<TRIPOS>MOLECULE
6tge_9_H4M_CAVITY_N1_4
   74     0     5     0     0
SMALL
NO_CHARGES


@<TRIPOS>ATOM
      1 N          51.5900  -43.2800  151.4900 N.am      1 ALA2        0.0000 
      2 N          54.4800  -46.6700  152.1100 N.am      1 ALA2        0.0000 
      3 O          53.1900  -41.8900  151.6300 O.2       1 ALA2        0.0000 
      4 N          52.2400  -42.5200  152.6100 N.am      1 ALA2        0.0000 
      5 N          54.1600  -44.7800  153.0300 N.am      1 ALA2        0.0000 
      6 N          55.1300  -45.9200  153.2300 N.am      1 ALA2        0.0000 
      7 N          52.8900  -41.7600  153.7300 N.am      1 ALA2        0.0000 
      8 N          54.8000  -42.2700  152.9600 N.am      1 ALA2        0.0000 
      9 N          55.7600  -43.4000  153.1700 N.am      1 ALA2        0.0000 
     10 N          54.8100  -44.0300  154.1500 N.am      1 ALA2        0.0000 
     11 N          56.4000  -40.8800  153.1100 N.am      1 ALA2        0.0000 
     12 N          55.4500  -41.5100  154.0800 N.am      1 ALA2        0.0000 
     13 N          56.4100  -42.6400  154.2900 N.am      1 ALA2        0.0000 
     14 N          55.4600  -43.2700  155.2700 N.am      1 ALA2        0.0000 
     15 N          60.9200  -40.1100  158.0100 N.am      1 ALA2        0.0000 
     16 NZ         59.9900  -44.2600  161.3500 N.4       2 LYS4        0.0000 
     17 CZ         54.1700  -46.5400  154.2100 C.ar      3 PHE5        0.0000 
     18 CZ         53.2200  -47.1700  155.1800 C.ar      3 PHE5        0.0000 
     19 CZ         54.8200  -45.7900  155.3300 C.ar      3 PHE5        0.0000 
     20 CZ         57.0600  -41.8800  155.4100 C.ar      3 PHE5        0.0000 
     21 CZ         58.0200  -43.0200  155.6200 C.ar      3 PHE5        0.0000 
     22 CZ         56.1200  -44.2700  157.5700 C.ar      3 PHE5        0.0000 
     23 CZ         58.6700  -42.2600  156.7400 C.ar      3 PHE5        0.0000 
     24 CZ         57.7200  -42.8900  157.7200 C.ar      3 PHE5        0.0000 
     25 CZ         56.7700  -43.5200  158.6900 C.ar      3 PHE5        0.0000 
     26 CZ         58.6800  -44.0200  157.9300 C.ar      3 PHE5        0.0000 
     27 CZ         57.7300  -44.6500  158.9000 C.ar      3 PHE5        0.0000 
     28 CZ         59.6400  -45.1500  158.1300 C.ar      3 PHE5        0.0000 
     29 CZ         60.2700  -40.8700  156.8900 C.ar      3 PHE5        0.0000 
     30 CZ         59.3200  -41.5000  157.8600 C.ar      3 PHE5        0.0000 
     31 CZ         60.2800  -42.6300  158.0700 C.ar      3 PHE5        0.0000 
     32 CZ         59.3300  -43.2600  159.0500 C.ar      3 PHE5        0.0000 
     33 CZ         58.3800  -43.8900  160.0200 C.ar      3 PHE5        0.0000 
     34 CZ         60.2900  -44.3900  159.2600 C.ar      3 PHE5        0.0000 
     35 CZ         61.8800  -41.2500  158.2200 C.ar      3 PHE5        0.0000 
     36 CZ         60.9300  -41.8800  159.1900 C.ar      3 PHE5        0.0000 
     37 CA         52.5400  -42.6500  150.5100 C.3       4 GLY6        0.0000 
     38 CA         50.6400  -43.9100  152.4600 C.3       4 GLY6        0.0000 
     39 CA         54.4600  -43.1500  149.7500 C.3       4 GLY6        0.0000 
     40 CA         53.5000  -43.7800  150.7200 C.3       4 GLY6        0.0000 
     41 CA         51.6000  -45.0400  152.6700 C.3       4 GLY6        0.0000 
     42 CA         54.1500  -43.0200  151.8400 C.3       4 GLY6        0.0000 
     43 CA         52.2500  -44.2800  153.7900 C.3       4 GLY6        0.0000 
     44 CA         55.1100  -44.1600  152.0500 C.3       4 GLY6        0.0000 
     45 CA         53.2100  -45.4100  154.0000 C.3       4 GLY6        0.0000 
     46 CA         52.2600  -46.0400  154.9800 C.3       4 GLY6        0.0000 
     47 CA         53.8500  -42.9000  153.9400 C.3       4 GLY6        0.0000 
     48 CA         52.9000  -43.5200  154.9100 C.3       4 GLY6        0.0000 
     49 CA         53.8600  -44.6600  155.1200 C.3       4 GLY6        0.0000 
     50 CA         52.9100  -45.2800  156.1000 C.3       4 GLY6        0.0000 
     51 CA         53.5400  -41.0100  154.8500 C.3       4 GLY6        0.0000 
     52 CA         53.5500  -42.7700  156.0300 C.3       4 GLY6        0.0000 
     53 CA         57.3600  -42.0100  153.3200 C.3       4 GLY6        0.0000 
     54 CA         53.5600  -44.5300  157.2200 C.3       4 GLY6        0.0000 
     55 CA         56.4200  -44.4000  155.4800 C.3       4 GLY6        0.0000 
     56 CA         55.4700  -45.0300  156.4500 C.3       4 GLY6        0.0000 
     57 CA         56.1000  -40.7500  155.2100 C.3       4 GLY6        0.0000 
     58 CA         54.1900  -42.0100  157.1500 C.3       4 GLY6        0.0000 
     59 CA         53.2400  -42.6400  158.1300 C.3       4 GLY6        0.0000 
     60 CA         57.0700  -43.6400  156.6000 C.3       4 GLY6        0.0000 
     61 CA         59.3400  -45.0200  160.2300 C.3       4 GLY6        0.0000 
     62 DU         52.5500  -44.4100  151.7000 H         5 CUB7        0.0000 
     63 DU         53.5200  -45.5400  151.9000 H         5 CUB7        0.0000 
     64 DU         53.2000  -43.6500  152.8200 H         5 CUB7        0.0000 
     65 DU         54.5000  -42.1400  155.0600 H         5 CUB7        0.0000 
     66 DU         54.5100  -43.9000  156.2400 H         5 CUB7        0.0000 
     67 DU         55.1500  -41.3800  156.1800 H         5 CUB7        0.0000 
     68 DU         56.1100  -42.5100  156.3900 H         5 CUB7        0.0000 
     69 DU         55.1600  -43.1400  157.3600 H         5 CUB7        0.0000 
     70 DU         54.2100  -43.7700  158.3400 H         5 CUB7        0.0000 
     71 DU         54.8400  -41.2500  158.2800 H         5 CUB7        0.0000 
     72 DU         56.7600  -41.7500  157.5100 H         5 CUB7        0.0000 
     73 DU         58.3700  -42.1300  158.8400 H         5 CUB7        0.0000 
     74 DU         59.9800  -42.5000  160.1700 H         5 CUB7        0.0000 
@<TRIPOS>BOND
@<TRIPOS>SUBSTRUCTURE
     1 ALA2        1 GROUP   
     2 LYS4       16 GROUP   
     3 PHE5       17 GROUP   
     4 GLY6       37 GROUP   
     5 CUB7       62 GROUP   
@<TRIPOS>SET

