#    Name: 6tge_12_H4M
#    Modification time : Fri May 22 19:34:51 2020

@<TRIPOS>MOLECULE
6tge_12_H4M
   45    49     1     0     0
SMALL
NO_CHARGES


@<TRIPOS>ATOM
      1 N1         78.2450  -36.5250   77.7520 N.2       1 H4M302      0.0000 
      2 C2         77.7330  -37.5140   76.9860 C.2       1 H4M302      0.0000 
      3 NA2        76.4340  -37.7790   77.0530 N.pl3     1 H4M302      0.0000 
      4 N3         78.5310  -38.2430   76.1470 N.am      1 H4M302      0.0000 
      5 C4         79.8860  -37.9670   76.0810 C.2       1 H4M302      0.0000 
      6 OH4        80.5830  -38.6090   75.3340 O.2       1 H4M302      0.0000 
      7 C4A        80.4430  -36.9070   76.9080 C.2       1 H4M302      0.0000 
      8 N5         81.8130  -36.5480   76.8910 N.3       1 H4M302      0.0000 
      9 C6         82.3340  -35.8970   78.0760 C.3       1 H4M302      0.0000 
     10 C7         81.4100  -34.8050   78.5130 C.3       1 H4M302      0.0000 
     11 C7M        81.8530  -34.0640   79.7750 C.3       1 H4M302      0.0000 
     12 N8         80.0190  -35.1420   78.5860 N.pl3     1 H4M302      0.0000 
     13 C8A        79.5730  -36.1930   77.7350 C.2       1 H4M302      0.0000 
     14 C9         83.7630  -35.5040   77.6580 C.3       1 H4M302      0.0000 
     15 C9M        84.7380  -36.4920   78.3410 C.3       1 H4M302      0.0000 
     16 C10        82.6560  -36.6130   75.9870 C.3       1 H4M302      0.0000 
     17 N10        83.6810  -35.5850   76.2070 N.3       1 H4M302      0.0000 
     18 C11        86.8420  -35.6430   73.4660 C.ar      1 H4M302      0.0000 
     19 C12        87.1370  -35.5180   74.8230 C.ar      1 H4M302      0.0000 
     20 C13        86.1190  -35.4830   75.7840 C.ar      1 H4M302      0.0000 
     21 C14        84.7870  -35.5780   75.3830 C.ar      1 H4M302      0.0000 
     22 C15        84.5100  -35.7240   74.0150 C.ar      1 H4M302      0.0000 
     23 C16        85.5210  -35.7560   73.0650 C.ar      1 H4M302      0.0000 
     24 CX1        87.8570  -35.6950   72.5110 C.3       1 H4M302      0.0000 
     25 CX2        88.2590  -34.3350   71.9330 C.3       1 H4M302      0.0000 
     26 CX3        88.9730  -34.6160   70.6050 C.3       1 H4M302      0.0000 
     27 CX4        90.0830  -33.6160   70.2770 C.3       1 H4M302      0.0000 
     28 CX5        89.4910  -32.4250   69.5200 C.3       1 H4M302      0.0000 
     29 OX2        87.1080  -33.5270   71.6930 O.3       1 H4M302      0.0000 
     30 OX3        89.5830  -35.9140   70.6650 O.3       1 H4M302      0.0000 
     31 OX4        90.6960  -33.1600   71.4820 O.3       1 H4M302      0.0000 
     32 OX5        89.8330  -32.5010   68.1320 O.3       1 H4M302      0.0000 
     33 O5J        90.1780  -27.9710   64.9960 O.3       1 H4M302      0.0000 
     34 C5J        89.1060  -28.8910   65.2300 C.3       1 H4M302      0.0000 
     35 C4J        89.6830  -30.2420   65.6720 C.3       1 H4M302      0.0000 
     36 O4J        89.3860  -30.4540   67.0630 O.3       1 H4M302      0.0000 
     37 C3J        89.0470  -31.3730   64.8860 C.3       1 H4M302      0.0000 
     38 O3J        89.9210  -31.7710   63.8210 O.3       1 H4M302      0.0000 
     39 C2J        88.9170  -32.4960   65.8940 C.3       1 H4M302      0.0000 
     40 O2J        90.0250  -33.4000   65.7800 O.3       1 H4M302      0.0000 
     41 C1J        88.9330  -31.8070   67.2490 C.3       1 H4M302      0.0000 
     42 PA         90.7770  -27.1290   66.2660 P.3       1 H4M302      0.0000 
     43 O1A        89.6420  -26.6670   67.1500 O.3       1 H4M302      0.0000 
     44 O2A        91.7040  -28.0170   67.0620 O.co2     1 H4M302      0.0000 
     45 O3A        91.6180  -25.8040   65.7010 O.co2     1 H4M302      0.0000 
@<TRIPOS>BOND
     1    1    2 2    
     2    1   13 1    
     3    2    3 1    
     4    2    4 1    
     5    4    5 am   
     6    5    6 2    
     7    5    7 1    
     8    7    8 1    
     9    7   13 2    
    10    8    9 1    
    11    8   16 1    
    12    9   10 1    
    13    9   14 1    
    14   10   11 1    
    15   10   12 1    
    16   12   13 1    
    17   14   15 1    
    18   14   17 1    
    19   16   17 1    
    20   17   21 1    
    21   18   19 ar   
    22   18   23 ar   
    23   18   24 1    
    24   19   20 ar   
    25   20   21 ar   
    26   21   22 ar   
    27   22   23 ar   
    28   24   25 1    
    29   25   26 1    
    30   25   29 1    
    31   26   27 1    
    32   26   30 1    
    33   27   28 1    
    34   27   31 1    
    35   28   32 1    
    36   32   41 1    
    37   33   34 1    
    38   33   42 1    
    39   34   35 1    
    40   35   36 1    
    41   35   37 1    
    42   36   41 1    
    43   37   38 1    
    44   37   39 1    
    45   39   40 1    
    46   39   41 1    
    47   42   43 1    
    48   42   44 ar   
    49   42   45 ar   
@<TRIPOS>SUBSTRUCTURE
     1 H4M302      1 GROUP   
@<TRIPOS>SET

