#    Name: 6tge_7_H4M
#    Modification time : Fri May 22 19:34:19 2020

@<TRIPOS>MOLECULE
6tge_7_H4M
   45    49     1     0     0
SMALL
NO_CHARGES


@<TRIPOS>ATOM
      1 N1         92.9500  -38.0030  153.1330 N.2       1 H4M302      0.0000 
      2 C2         93.4670  -39.1720  152.6890 C.2       1 H4M302      0.0000 
      3 NA2        93.1640  -40.2960  153.3290 N.pl3     1 H4M302      0.0000 
      4 N3         94.2480  -39.1960  151.5810 N.am      1 H4M302      0.0000 
      5 C4         94.5360  -38.0180  150.9320 C.2       1 H4M302      0.0000 
      6 OH4        95.2530  -38.0450  149.9950 O.2       1 H4M302      0.0000 
      7 C4A        94.0110  -36.7620  151.3880 C.2       1 H4M302      0.0000 
      8 N5         94.2950  -35.5370  150.7430 N.3       1 H4M302      0.0000 
      9 C6         94.0490  -34.3540  151.5210 C.3       1 H4M302      0.0000 
     10 C7         92.8580  -34.4220  152.4000 C.3       1 H4M302      0.0000 
     11 C7M        92.5460  -33.2480  153.3260 C.3       1 H4M302      0.0000 
     12 N8         92.6420  -35.6500  153.0930 N.pl3     1 H4M302      0.0000 
     13 C8A        93.2250  -36.8080  152.5250 C.2       1 H4M302      0.0000 
     14 C9         93.9810  -33.2800  150.4370 C.3       1 H4M302      0.0000 
     15 C9M        94.6920  -31.9780  150.9050 C.3       1 H4M302      0.0000 
     16 C10        94.7710  -35.3020  149.6190 C.3       1 H4M302      0.0000 
     17 N10        94.6570  -33.8640  149.3020 N.3       1 H4M302      0.0000 
     18 C11        94.0460  -32.6480  145.3490 C.ar      1 H4M302      0.0000 
     19 C12        93.7030  -31.7920  146.3970 C.ar      1 H4M302      0.0000 
     20 C13        93.9170  -32.1620  147.7290 C.ar      1 H4M302      0.0000 
     21 C14        94.4590  -33.4110  148.0290 C.ar      1 H4M302      0.0000 
     22 C15        94.8120  -34.2630  146.9670 C.ar      1 H4M302      0.0000 
     23 C16        94.6010  -33.8850  145.6460 C.ar      1 H4M302      0.0000 
     24 CX1        93.8730  -32.3120  144.0010 C.3       1 H4M302      0.0000 
     25 CX2        92.5650  -31.5750  143.7330 C.3       1 H4M302      0.0000 
     26 CX3        92.2630  -31.4260  142.2400 C.3       1 H4M302      0.0000 
     27 CX4        92.0740  -29.9510  141.8780 C.3       1 H4M302      0.0000 
     28 CX5        91.1420  -29.8190  140.6640 C.3       1 H4M302      0.0000 
     29 OX2        91.4850  -32.3390  144.2760 O.3       1 H4M302      0.0000 
     30 OX3        93.3220  -31.9490  141.4390 O.3       1 H4M302      0.0000 
     31 OX4        91.4760  -29.2160  142.9570 O.3       1 H4M302      0.0000 
     32 OX5        89.9170  -29.1930  141.0850 O.3       1 H4M302      0.0000 
     33 O5J        88.5810  -27.6590  136.5200 O.3       1 H4M302      0.0000 
     34 C5J        89.1350  -26.8130  137.5430 C.3       1 H4M302      0.0000 
     35 C4J        89.0530  -27.5420  138.8870 C.3       1 H4M302      0.0000 
     36 O4J        90.2480  -27.3290  139.6680 O.3       1 H4M302      0.0000 
     37 C3J        87.9430  -26.9990  139.7810 C.3       1 H4M302      0.0000 
     38 O3J        86.7290  -27.7300  139.5660 O.3       1 H4M302      0.0000 
     39 C2J        88.4660  -27.2350  141.1960 C.3       1 H4M302      0.0000 
     40 O2J        87.6500  -28.2070  141.8700 O.3       1 H4M302      0.0000 
     41 C1J        89.8860  -27.7540  140.9970 C.3       1 H4M302      0.0000 
     42 PA         89.5400  -28.7820  135.7850 P.3       1 H4M302      0.0000 
     43 O1A        88.9480  -29.1070  134.4220 O.3       1 H4M302      0.0000 
     44 O2A        90.9440  -28.2320  135.6020 O.co2     1 H4M302      0.0000 
     45 O3A        89.5960  -30.1710  136.7230 O.co2     1 H4M302      0.0000 
@<TRIPOS>BOND
     1    1    2 2    
     2    1   13 1    
     3    2    3 1    
     4    2    4 1    
     5    4    5 am   
     6    5    6 2    
     7    5    7 1    
     8    7    8 1    
     9    7   13 2    
    10    8    9 1    
    11    8   16 1    
    12    9   10 1    
    13    9   14 1    
    14   10   11 1    
    15   10   12 1    
    16   12   13 1    
    17   14   15 1    
    18   14   17 1    
    19   16   17 1    
    20   17   21 1    
    21   18   19 ar   
    22   18   23 ar   
    23   18   24 1    
    24   19   20 ar   
    25   20   21 ar   
    26   21   22 ar   
    27   22   23 ar   
    28   24   25 1    
    29   25   26 1    
    30   25   29 1    
    31   26   27 1    
    32   26   30 1    
    33   27   28 1    
    34   27   31 1    
    35   28   32 1    
    36   32   41 1    
    37   33   34 1    
    38   33   42 1    
    39   34   35 1    
    40   35   36 1    
    41   35   37 1    
    42   36   41 1    
    43   37   38 1    
    44   37   39 1    
    45   39   40 1    
    46   39   41 1    
    47   42   43 1    
    48   42   44 ar   
    49   42   45 ar   
@<TRIPOS>SUBSTRUCTURE
     1 H4M302      1 GROUP   
@<TRIPOS>SET

