#    Name: 6tge_21_H4M
#    Modification time : Fri May 22 19:35:18 2020

@<TRIPOS>MOLECULE
6tge_21_H4M
   45    49     1     0     0
SMALL
NO_CHARGES


@<TRIPOS>ATOM
      1 N1         42.5410   42.2640  117.7580 N.2       1 H4M302      0.0000 
      2 C2         41.3350   42.0910  118.3520 C.2       1 H4M302      0.0000 
      3 NA2        40.5660   41.0740  117.9780 N.pl3     1 H4M302      0.0000 
      4 N3         40.8880   42.9420  119.3290 N.am      1 H4M302      0.0000 
      5 C4         41.6840   44.0070  119.7210 C.2       1 H4M302      0.0000 
      6 OH4        41.3080   44.7640  120.5820 O.2       1 H4M302      0.0000 
      7 C4A        42.9650   44.1960  119.0750 C.2       1 H4M302      0.0000 
      8 N5         43.8330   45.2400  119.4410 N.3       1 H4M302      0.0000 
      9 C6         44.7930   45.6960  118.4620 C.3       1 H4M302      0.0000 
     10 C7         45.4780   44.5150  117.8520 C.3       1 H4M302      0.0000 
     11 C7M        46.4930   44.9340  116.7900 C.3       1 H4M302      0.0000 
     12 N8         44.6340   43.4360  117.4210 N.pl3     1 H4M302      0.0000 
     13 C8A        43.3820   43.2940  118.0970 C.2       1 H4M302      0.0000 
     14 C9         45.6030   46.7130  119.2820 C.3       1 H4M302      0.0000 
     15 C9M        45.0060   48.1210  119.0390 C.3       1 H4M302      0.0000 
     16 C10        44.0080   45.7680  120.5370 C.3       1 H4M302      0.0000 
     17 N10        45.4170   46.1680  120.6190 N.3       1 H4M302      0.0000 
     18 C11        46.1490   48.1860  124.1740 C.ar      1 H4M302      0.0000 
     19 C12        46.7820   48.6490  123.0160 C.ar      1 H4M302      0.0000 
     20 C13        46.5800   48.0060  121.7910 C.ar      1 H4M302      0.0000 
     21 C14        45.7420   46.8940  121.7380 C.ar      1 H4M302      0.0000 
     22 C15        45.1160   46.4500  122.9100 C.ar      1 H4M302      0.0000 
     23 C16        45.3160   47.0840  124.1170 C.ar      1 H4M302      0.0000 
     24 CX1        46.3290   48.7990  125.4070 C.3       1 H4M302      0.0000 
     25 CX2        47.5630   48.2140  126.0940 C.3       1 H4M302      0.0000 
     26 CX3        47.3260   48.1130  127.6050 C.3       1 H4M302      0.0000 
     27 CX4        47.6270   49.4710  128.2480 C.3       1 H4M302      0.0000 
     28 CX5        47.3590   49.4030  129.7540 C.3       1 H4M302      0.0000 
     29 OX2        47.8380   46.9100  125.5730 O.3       1 H4M302      0.0000 
     30 OX3        45.9770   47.7390  127.8940 O.3       1 H4M302      0.0000 
     31 OX4        48.9990   49.8150  128.0230 O.3       1 H4M302      0.0000 
     32 OX5        48.4510   50.0190  130.4440 O.3       1 H4M302      0.0000 
     33 O5J        52.0830   51.4880  133.7040 O.3       1 H4M302      0.0000 
     34 C5J        50.8100   52.1000  133.4670 C.3       1 H4M302      0.0000 
     35 C4J        50.1670   51.4560  132.2330 C.3       1 H4M302      0.0000 
     36 O4J        48.9250   50.8230  132.6010 O.3       1 H4M302      0.0000 
     37 C3J        49.8250   52.5000  131.1750 C.3       1 H4M302      0.0000 
     38 O3J        50.4950   52.1680  129.9490 O.3       1 H4M302      0.0000 
     39 C2J        48.3230   52.3780  130.9830 C.3       1 H4M302      0.0000 
     40 O2J        47.9700   52.5280  129.6050 O.3       1 H4M302      0.0000 
     41 C1J        48.0650   50.9590  131.4580 C.3       1 H4M302      0.0000 
     42 PA         53.4350   52.3240  133.3110 P.3       1 H4M302      0.0000 
     43 O1A        53.6420   53.4530  134.2940 O.3       1 H4M302      0.0000 
     44 O2A        54.6260   51.3970  133.3500 O.co2     1 H4M302      0.0000 
     45 O3A        53.2680   52.9410  131.7710 O.co2     1 H4M302      0.0000 
@<TRIPOS>BOND
     1    1    2 2    
     2    1   13 1    
     3    2    3 1    
     4    2    4 1    
     5    4    5 am   
     6    5    6 2    
     7    5    7 1    
     8    7    8 1    
     9    7   13 2    
    10    8    9 1    
    11    8   16 1    
    12    9   10 1    
    13    9   14 1    
    14   10   11 1    
    15   10   12 1    
    16   12   13 1    
    17   14   15 1    
    18   14   17 1    
    19   16   17 1    
    20   17   21 1    
    21   18   19 ar   
    22   18   23 ar   
    23   18   24 1    
    24   19   20 ar   
    25   20   21 ar   
    26   21   22 ar   
    27   22   23 ar   
    28   24   25 1    
    29   25   26 1    
    30   25   29 1    
    31   26   27 1    
    32   26   30 1    
    33   27   28 1    
    34   27   31 1    
    35   28   32 1    
    36   32   41 1    
    37   33   34 1    
    38   33   42 1    
    39   34   35 1    
    40   35   36 1    
    41   35   37 1    
    42   36   41 1    
    43   37   38 1    
    44   37   39 1    
    45   39   40 1    
    46   39   41 1    
    47   42   43 1    
    48   42   44 ar   
    49   42   45 ar   
@<TRIPOS>SUBSTRUCTURE
     1 H4M302      1 GROUP   
@<TRIPOS>SET

