#    Name: 6tge_26_NAP
#    Modification time : Fri May 22 19:35:56 2020

@<TRIPOS>MOLECULE
6tge_26_NAP
   48    52     1     0     1
SMALL
NO_CHARGES


@<TRIPOS>ATOM
      1 PA         42.5020  -43.4500   78.5070 P.3       1 NAP301      0.0000 
      2 O1A        43.8530  -43.8110   78.7190 O.co2     1 NAP301      0.0000 
      3 O2A        42.2050  -42.1600   79.0530 O.co2     1 NAP301      0.0000 
      4 O5B        41.6200  -44.5690   79.1950 O.3       1 NAP301      0.0000 
      5 C5B        40.2830  -44.5110   78.9710 C.3       1 NAP301      0.0000 
      6 C4B        39.4820  -45.2380   80.0270 C.3       1 NAP301      0.0000 
      7 O4B        39.7720  -46.6000   80.0920 O.3       1 NAP301      0.0000 
      8 C3B        39.6840  -44.7580   81.4320 C.3       1 NAP301      0.0000 
      9 O3B        39.0430  -43.5310   81.7160 O.3       1 NAP301      0.0000 
     10 C2B        39.0850  -45.9130   82.1890 C.3       1 NAP301      0.0000 
     11 O2B        37.7190  -45.6440   82.4170 O.3       1 NAP301      0.0000 
     12 C1B        39.2610  -47.1100   81.2710 C.3       1 NAP301      0.0000 
     13 N9A        40.1650  -48.0720   81.8990 N.pl3     1 NAP301      0.0000 
     14 C8A        41.3920  -47.9440   82.3350 C.2       1 NAP301      0.0000 
     15 N7A        41.8330  -49.0810   82.8230 N.2       1 NAP301      0.0000 
     16 C5A        40.9090  -49.9500   82.7140 C.ar      1 NAP301      0.0000 
     17 C6A        40.7880  -51.3420   83.0650 C.ar      1 NAP301      0.0000 
     18 N6A        41.6520  -52.1520   83.6270 N.pl3     1 NAP301      0.0000 
     19 N1A        39.6660  -51.9460   82.8070 N.ar      1 NAP301      0.0000 
     20 C2A        38.6560  -51.3100   82.2380 C.ar      1 NAP301      0.0000 
     21 N3A        38.7120  -50.0290   81.8960 N.ar      1 NAP301      0.0000 
     22 C4A        39.7950  -49.3130   82.1090 C.ar      1 NAP301      0.0000 
     23 O3         42.1970  -43.5330   76.9810 O.3       1 NAP301      0.0000 
     24 PN         41.8020  -42.4480   75.8720 P.3       1 NAP301      0.0000 
     25 O1N        40.4900  -41.9290   76.0940 O.co2     1 NAP301      0.0000 
     26 O2N        42.7950  -41.3490   75.8340 O.co2     1 NAP301      0.0000 
     27 O5D        41.8590  -43.2140   74.5320 O.3       1 NAP301      0.0000 
     28 C5D        41.1260  -44.3700   74.4520 C.3       1 NAP301      0.0000 
     29 C4D        41.8040  -45.3840   73.5390 C.3       1 NAP301      0.0000 
     30 O4D        41.9800  -44.8590   72.2440 O.3       1 NAP301      0.0000 
     31 C3D        43.1840  -45.7690   74.0340 C.3       1 NAP301      0.0000 
     32 O3D        43.3840  -47.1530   73.8710 O.3       1 NAP301      0.0000 
     33 C2D        44.0990  -45.0110   73.1310 C.3       1 NAP301      0.0000 
     34 O2D        45.3500  -45.6710   72.9960 O.3       1 NAP301      0.0000 
     35 C1D        43.3480  -45.0600   71.8340 C.3       1 NAP301      0.0000 
     36 N1N        43.6310  -44.1090   70.8320 N.pl3     1 NAP301      0.0000 
     37 C2N        43.4580  -44.4800   69.5410 C.ar      1 NAP301      0.0000 
     38 C3N        43.6740  -43.6010   68.4880 C.ar      1 NAP301      0.0000 
     39 C7N        43.3430  -44.0320   67.0440 C.2       1 NAP301      0.0000 
     40 O7N        43.5220  -43.2770   66.1410 O.2       1 NAP301      0.0000 
     41 N7N        42.7730  -45.3540   66.8100 N.am      1 NAP301      0.0000 
     42 C4N        44.0900  -42.2990   68.7780 C.ar      1 NAP301      0.0000 
     43 C5N        44.1550  -41.9120   70.1170 C.ar      1 NAP301      0.0000 
     44 C6N        43.9330  -42.8190   71.1270 C.ar      1 NAP301      0.0000 
     45 P2B        37.0560  -45.8630   83.8400 P.3       1 NAP301      0.0000 
     46 O1X        37.9950  -45.5970   84.8390 O.co2     1 NAP301      0.0000 
     47 O2X        35.9310  -44.9690   83.9380 O.co2     1 NAP301      0.0000 
     48 O3X        36.5290  -47.2360   83.9320 O.co2     1 NAP301      0.0000 
@<TRIPOS>BOND
     1    1    2 ar   
     2    1    3 ar   
     3    1    4 1    
     4    1   23 1    
     5    4    5 1    
     6    5    6 1    
     7    6    7 1    
     8    6    8 1    
     9    7   12 1    
    10    8    9 1    
    11    8   10 1    
    12   10   11 1    
    13   10   12 1    
    14   11   45 1    
    15   12   13 1    
    16   13   14 1    
    17   13   22 1    
    18   14   15 2    
    19   15   16 1    
    20   16   17 ar   
    21   16   22 ar   
    22   17   18 1    
    23   17   19 ar   
    24   19   20 ar   
    25   20   21 ar   
    26   21   22 ar   
    27   23   24 1    
    28   24   25 ar   
    29   24   26 ar   
    30   24   27 1    
    31   27   28 1    
    32   28   29 1    
    33   29   30 1    
    34   29   31 1    
    35   30   35 1    
    36   31   32 1    
    37   31   33 1    
    38   33   34 1    
    39   33   35 1    
    40   35   36 1    
    41   36   37 ar   
    42   36   44 ar   
    43   37   38 ar   
    44   38   39 1    
    45   38   42 ar   
    46   39   40 2    
    47   39   41 am   
    48   42   43 ar   
    49   43   44 ar   
    50   45   46 ar   
    51   45   47 ar   
    52   45   48 ar   
@<TRIPOS>SUBSTRUCTURE
     1 NAP301      1 GROUP   
@<TRIPOS>SET
ATOM$ORANGE STATIC     ATOMS   COLORGROUP SYSTEM 
42 5 5 6 6 8 8 10 10 12 12 14 14 16 16 17 17 20 \
20 22 22 28 28 29 29 31 31 33 33 35 35 37 37 38 38 39 \
39 42 42 43 43 44 44 

