#    Name: 6tge_11_H4M_CAVITY_N1_4
#    Modification time : Fri May 22 19:34:45 2020

@<TRIPOS>MOLECULE
6tge_11_H4M_CAVITY_N1_4
   76     0     4     0     0
SMALL
NO_CHARGES


@<TRIPOS>ATOM
      1 N          54.1000   -6.6400   69.0800 N.am      1 ALA2        0.0000 
      2 N          54.7400   -5.8800   70.2000 N.am      1 ALA2        0.0000 
      3 O          56.3300   -2.7300   69.1600 O.2       1 ALA2        0.0000 
      4 N          55.3800   -3.3600   70.1300 N.am      1 ALA2        0.0000 
      5 N          56.3400   -4.4900   70.3400 N.am      1 ALA2        0.0000 
      6 N          56.3500   -6.2500   71.5300 N.am      1 ALA2        0.0000 
      7 N          55.4000   -6.8800   72.5000 N.am      1 ALA2        0.0000 
      8 N          56.0300   -2.6000   71.2600 N.am      1 ALA2        0.0000 
      9 N          57.9500   -4.8700   71.6700 N.am      1 ALA2        0.0000 
     10 N          59.2800   -8.6300   77.4600 N.am      1 ALA2        0.0000 
     11 N          60.2400   -9.7700   77.6700 N.am      1 ALA2        0.0000 
     12 CZ         53.1300   -5.5000   68.8700 C.ar      2 PHE5        0.0000 
     13 CZ         52.1800   -6.1300   69.8400 C.ar      2 PHE5        0.0000 
     14 CZ         52.8300   -5.3800   70.9600 C.ar      2 PHE5        0.0000 
     15 CZ         53.7900   -6.5100   71.1700 C.ar      2 PHE5        0.0000 
     16 CZ         52.5300   -5.2500   73.0600 C.ar      2 PHE5        0.0000 
     17 CZ         51.5800   -5.8800   74.0300 C.ar      2 PHE5        0.0000 
     18 CZ         54.4400   -5.7500   72.2900 C.ar      2 PHE5        0.0000 
     19 CZ         53.4900   -6.3800   73.2700 C.ar      2 PHE5        0.0000 
     20 CZ         52.2300   -5.1200   75.1500 C.ar      2 PHE5        0.0000 
     21 CZ         54.1400   -5.6200   74.3900 C.ar      2 PHE5        0.0000 
     22 CZ         53.1900   -6.2500   75.3600 C.ar      2 PHE5        0.0000 
     23 CZ         52.2400   -6.8800   76.3400 C.ar      2 PHE5        0.0000 
     24 CZ         54.1500   -7.3800   75.5700 C.ar      2 PHE5        0.0000 
     25 CZ         53.2000   -8.0100   76.5500 C.ar      2 PHE5        0.0000 
     26 CZ         52.2500   -8.6400   77.5200 C.ar      2 PHE5        0.0000 
     27 CZ         55.1100   -8.5100   75.7800 C.ar      2 PHE5        0.0000 
     28 CZ         54.1600   -9.1400   76.7600 C.ar      2 PHE5        0.0000 
     29 CZ         53.2100   -9.7700   77.7300 C.ar      2 PHE5        0.0000 
     30 CZ         56.0700   -9.6500   75.9900 C.ar      2 PHE5        0.0000 
     31 CZ         55.1200  -10.2700   76.9600 C.ar      2 PHE5        0.0000 
     32 CZ         57.6700   -8.2600   76.1400 C.ar      2 PHE5        0.0000 
     33 CZ         58.6300   -9.3900   76.3400 C.ar      2 PHE5        0.0000 
     34 CZ         57.6800  -10.0200   77.3200 C.ar      2 PHE5        0.0000 
     35 CZ         59.6000  -10.5200   76.5500 C.ar      2 PHE5        0.0000 
     36 CZ         58.6500  -11.1500   77.5300 C.ar      2 PHE5        0.0000 
     37 CZ         60.5600  -11.6600   76.7600 C.ar      2 PHE5        0.0000 
     38 CA         56.0000   -5.3800   67.1300 C.3       3 GLY6        0.0000 
     39 CA         55.0500   -6.0100   68.1000 C.3       3 GLY6        0.0000 
     40 CA         56.0100   -7.1400   68.3100 C.3       3 GLY6        0.0000 
     41 CA         56.6500   -4.6200   68.2500 C.3       3 GLY6        0.0000 
     42 CA         55.7000   -5.2500   69.2200 C.3       3 GLY6        0.0000 
     43 CA         54.4200   -2.2300   69.9300 C.3       3 GLY6        0.0000 
     44 CA         53.4700   -2.8600   70.9000 C.3       3 GLY6        0.0000 
     45 CA         54.4300   -3.9900   71.1100 C.3       3 GLY6        0.0000 
     46 CA         53.4800   -4.6200   72.0800 C.3       3 GLY6        0.0000 
     47 CA         57.3100   -5.6200   70.5500 C.3       3 GLY6        0.0000 
     48 CA         55.0800   -3.2300   72.2300 C.3       3 GLY6        0.0000 
     49 CA         53.1800   -4.4900   74.1800 C.3       3 GLY6        0.0000 
     50 CA         56.9900   -3.7400   71.4600 C.3       3 GLY6        0.0000 
     51 CA         56.0400   -4.3600   72.4400 C.3       3 GLY6        0.0000 
     52 CA         55.0900   -4.9900   73.4100 C.3       3 GLY6        0.0000 
     53 CA         55.1000   -6.7500   74.6000 C.3       3 GLY6        0.0000 
     54 CA         56.0600   -7.8900   74.8100 C.3       3 GLY6        0.0000 
     55 CA         53.8300   -3.7300   75.3000 C.3       3 GLY6        0.0000 
     56 CA         52.8700   -4.3600   76.2800 C.3       3 GLY6        0.0000 
     57 CA         52.9000   -7.8800   78.6400 C.3       3 GLY6        0.0000 
     58 CA         51.9400   -8.5100   79.6200 C.3       3 GLY6        0.0000 
     59 CA         59.6100  -12.2800   77.7400 C.3       3 GLY6        0.0000 
     60 DU         53.7800   -4.7500   69.9900 H         4 CUB7        0.0000 
     61 DU         55.3900   -5.1200   71.3200 H         4 CUB7        0.0000 
     62 DU         57.0000   -5.5000   72.6500 H         4 CUB7        0.0000 
     63 DU         56.0500   -6.1200   73.6200 H         4 CUB7        0.0000 
     64 DU         54.7900   -4.8600   75.5100 H         4 CUB7        0.0000 
     65 DU         53.8400   -5.4900   76.4800 H         4 CUB7        0.0000 
     66 DU         55.7500   -6.0000   75.7200 H         4 CUB7        0.0000 
     67 DU         54.8000   -6.6300   76.6900 H         4 CUB7        0.0000 
     68 DU         53.8500   -7.2500   77.6700 H         4 CUB7        0.0000 
     69 DU         56.7100   -7.1300   75.9300 H         4 CUB7        0.0000 
     70 DU         55.7600   -7.7600   76.9000 H         4 CUB7        0.0000 
     71 DU         54.8100   -8.3900   77.8800 H         4 CUB7        0.0000 
     72 DU         53.8600   -9.0100   78.8500 H         4 CUB7        0.0000 
     73 DU         56.7200   -8.8900   77.1100 H         4 CUB7        0.0000 
     74 DU         55.7700   -9.5200   78.0800 H         4 CUB7        0.0000 
     75 DU         54.8200  -10.1500   79.0600 H         4 CUB7        0.0000 
     76 DU         58.3200   -7.5000   77.2600 H         4 CUB7        0.0000 
@<TRIPOS>BOND
@<TRIPOS>SUBSTRUCTURE
     1 ALA2        1 GROUP   
     2 PHE5       12 GROUP   
     3 GLY6       38 GROUP   
     4 CUB7       60 GROUP   
@<TRIPOS>SET

