#    Name: 6tge_19_H4M
#    Modification time : Fri May 22 19:35:10 2020

@<TRIPOS>MOLECULE
6tge_19_H4M
   45    49     1     0     0
SMALL
NO_CHARGES


@<TRIPOS>ATOM
      1 N1         26.5520   16.5510  114.6080 N.2       1 H4M302      0.0000 
      2 C2         27.2930   15.4850  114.9790 C.2       1 H4M302      0.0000 
      3 NA2        28.5480   15.3660  114.5560 N.pl3     1 H4M302      0.0000 
      4 N3         26.7750   14.5170  115.7880 N.am      1 H4M302      0.0000 
      5 C4         25.4710   14.6280  116.2340 C.2       1 H4M302      0.0000 
      6 OH4        25.0200   13.7700  116.9370 O.2       1 H4M302      0.0000 
      7 C4A        24.6650   15.7640  115.8450 C.2       1 H4M302      0.0000 
      8 N5         23.3370   15.8970  116.2900 N.3       1 H4M302      0.0000 
      9 C6         22.5220   16.7890  115.5190 C.3       1 H4M302      0.0000 
     10 C7         23.2150   18.0270  115.0500 C.3       1 H4M302      0.0000 
     11 C7M        22.4000   18.9140  114.1050 C.3       1 H4M302      0.0000 
     12 N8         24.5490   17.8710  114.5630 N.pl3     1 H4M302      0.0000 
     13 C8A        25.2530   16.7250  115.0180 C.2       1 H4M302      0.0000 
     14 C9         21.3490   17.0360  116.4700 C.3       1 H4M302      0.0000 
     15 C9M        20.0190   17.0410  115.6810 C.3       1 H4M302      0.0000 
     16 C10        22.7470   15.3800  117.2540 C.3       1 H4M302      0.0000 
     17 N10        21.3930   15.9170  117.3950 N.3       1 H4M302      0.0000 
     18 C11        19.7320   16.2440  121.2080 C.ar      1 H4M302      0.0000 
     19 C12        19.2560   17.0460  120.1760 C.ar      1 H4M302      0.0000 
     20 C13        19.7920   16.9630  118.8950 C.ar      1 H4M302      0.0000 
     21 C14        20.8190   16.0650  118.6380 C.ar      1 H4M302      0.0000 
     22 C15        21.2830   15.2460  119.6780 C.ar      1 H4M302      0.0000 
     23 C16        20.7470   15.3340  120.9520 C.ar      1 H4M302      0.0000 
     24 CX1        19.2030   16.3010  122.4930 C.3       1 H4M302      0.0000 
     25 CX2        18.9490   17.7350  122.9620 C.3       1 H4M302      0.0000 
     26 CX3        17.9570   17.6770  124.1280 C.3       1 H4M302      0.0000 
     27 CX4        18.6590   17.2030  125.4040 C.3       1 H4M302      0.0000 
     28 CX5        17.8420   17.7280  126.5830 C.3       1 H4M302      0.0000 
     29 OX2        20.1700   18.3290  123.4020 O.3       1 H4M302      0.0000 
     30 OX3        17.3850   18.9790  124.3300 O.3       1 H4M302      0.0000 
     31 OX4        18.7130   15.7740  125.4200 O.3       1 H4M302      0.0000 
     32 OX5        18.3540   17.2210  127.8150 O.3       1 H4M302      0.0000 
     33 O5J        15.8930   16.7830  131.7250 O.3       1 H4M302      0.0000 
     34 C5J        17.2550   16.6300  132.1600 C.3       1 H4M302      0.0000 
     35 C4J        18.2450   16.7630  130.9940 C.3       1 H4M302      0.0000 
     36 O4J        17.6880   16.1570  129.8090 O.3       1 H4M302      0.0000 
     37 C3J        18.5070   18.2300  130.6700 C.3       1 H4M302      0.0000 
     38 O3J        19.8230   18.3620  130.1110 O.3       1 H4M302      0.0000 
     39 C2J        17.4360   18.5270  129.6410 C.3       1 H4M302      0.0000 
     40 O2J        17.8110   19.6140  128.7900 O.3       1 H4M302      0.0000 
     41 C1J        17.3750   17.2130  128.8740 C.3       1 H4M302      0.0000 
     42 PA         14.7080   16.3310  132.7710 P.3       1 H4M302      0.0000 
     43 O1A        15.0080   14.9380  133.2910 O.3       1 H4M302      0.0000 
     44 O2A        14.6640   17.3030  133.9300 O.co2     1 H4M302      0.0000 
     45 O3A        13.2330   16.3330  131.9820 O.co2     1 H4M302      0.0000 
@<TRIPOS>BOND
     1    1    2 2    
     2    1   13 1    
     3    2    3 1    
     4    2    4 1    
     5    4    5 am   
     6    5    6 2    
     7    5    7 1    
     8    7    8 1    
     9    7   13 2    
    10    8    9 1    
    11    8   16 1    
    12    9   10 1    
    13    9   14 1    
    14   10   11 1    
    15   10   12 1    
    16   12   13 1    
    17   14   15 1    
    18   14   17 1    
    19   16   17 1    
    20   17   21 1    
    21   18   19 ar   
    22   18   23 ar   
    23   18   24 1    
    24   19   20 ar   
    25   20   21 ar   
    26   21   22 ar   
    27   22   23 ar   
    28   24   25 1    
    29   25   26 1    
    30   25   29 1    
    31   26   27 1    
    32   26   30 1    
    33   27   28 1    
    34   27   31 1    
    35   28   32 1    
    36   32   41 1    
    37   33   34 1    
    38   33   42 1    
    39   34   35 1    
    40   35   36 1    
    41   35   37 1    
    42   36   41 1    
    43   37   38 1    
    44   37   39 1    
    45   39   40 1    
    46   39   41 1    
    47   42   43 1    
    48   42   44 ar   
    49   42   45 ar   
@<TRIPOS>SUBSTRUCTURE
     1 H4M302      1 GROUP   
@<TRIPOS>SET

