#    Name: 6tge_11_H4M
#    Modification time : Fri May 22 19:34:44 2020

@<TRIPOS>MOLECULE
6tge_11_H4M
   45    49     1     0     0
SMALL
NO_CHARGES


@<TRIPOS>ATOM
      1 N1         59.4570  -12.0220   77.9640 N.2       1 H4M302      0.0000 
      2 C2         60.7760  -11.9570   77.7090 C.2       1 H4M302      0.0000 
      3 NA2        61.5650  -12.9800   77.9970 N.pl3     1 H4M302      0.0000 
      4 N3         61.3240  -10.8500   77.1490 N.am      1 H4M302      0.0000 
      5 C4         60.5300   -9.7740   76.8290 C.2       1 H4M302      0.0000 
      6 OH4        61.0710   -8.8070   76.3500 O.2       1 H4M302      0.0000 
      7 C4A        59.1080   -9.8240   77.1200 C.2       1 H4M302      0.0000 
      8 N5         58.2150   -8.7800   76.8030 N.3       1 H4M302      0.0000 
      9 C6         57.0180   -8.7190   77.5980 C.3       1 H4M302      0.0000 
     10 C7         56.3550  -10.0620   77.6420 C.3       1 H4M302      0.0000 
     11 C7M        55.0210  -10.1400   78.3860 C.3       1 H4M302      0.0000 
     12 N8         57.2110  -11.1590   77.9920 N.pl3     1 H4M302      0.0000 
     13 C8A        58.5950  -11.0000   77.6760 C.2       1 H4M302      0.0000 
     14 C9         56.2110   -7.6110   76.9360 C.3       1 H4M302      0.0000 
     15 C9M        55.9520   -6.4830   77.9670 C.3       1 H4M302      0.0000 
     16 C10        58.2460   -7.9530   75.8790 C.3       1 H4M302      0.0000 
     17 N10        57.0630   -7.0840   75.8810 N.3       1 H4M302      0.0000 
     18 C11        55.4080   -5.8940   72.2260 C.ar      1 H4M302      0.0000 
     19 C12        54.6060   -5.8990   73.3710 C.ar      1 H4M302      0.0000 
     20 C13        55.1350   -6.2920   74.6030 C.ar      1 H4M302      0.0000 
     21 C14        56.4650   -6.6900   74.6990 C.ar      1 H4M302      0.0000 
     22 C15        57.2620   -6.6710   73.5400 C.ar      1 H4M302      0.0000 
     23 C16        56.7360   -6.2910   72.3150 C.ar      1 H4M302      0.0000 
     24 CX1        54.8960   -5.5160   70.9810 C.3       1 H4M302      0.0000 
     25 CX2        54.7990   -3.9920   70.8550 C.3       1 H4M302      0.0000 
     26 CX3        56.0650   -3.4160   70.2190 C.3       1 H4M302      0.0000 
     27 CX4        55.8200   -2.6130   68.9380 C.3       1 H4M302      0.0000 
     28 CX5        56.2890   -3.4150   67.7100 C.3       1 H4M302      0.0000 
     29 OX2        53.6670   -3.6480   70.0500 O.3       1 H4M302      0.0000 
     30 OX3        56.6220   -2.5250   71.1880 O.3       1 H4M302      0.0000 
     31 OX4        54.4310   -2.2890   68.8190 O.3       1 H4M302      0.0000 
     32 OX5        55.8980   -2.6840   66.5360 O.3       1 H4M302      0.0000 
     33 O5J        59.0040   -1.1650   61.8610 O.3       1 H4M302      0.0000 
     34 C5J        58.5940   -1.8350   63.0570 C.3       1 H4M302      0.0000 
     35 C4J        57.5150   -1.0390   63.7970 C.3       1 H4M302      0.0000 
     36 O4J        56.5780   -1.9780   64.3690 O.3       1 H4M302      0.0000 
     37 C3J        58.1120   -0.2410   64.9490 C.3       1 H4M302      0.0000 
     38 O3J        57.8160    1.1550   64.7890 O.3       1 H4M302      0.0000 
     39 C2J        57.4130   -0.8000   66.1780 C.3       1 H4M302      0.0000 
     40 O2J        56.2600   -0.0040   66.4900 O.3       1 H4M302      0.0000 
     41 C1J        56.9850   -2.1910   65.7360 C.3       1 H4M302      0.0000 
     42 PA         59.2400   -2.0650   60.5120 P.3       1 H4M302      0.0000 
     43 O1A        60.5920   -1.7380   59.9210 O.3       1 H4M302      0.0000 
     44 O2A        59.2010   -3.5330   60.8660 O.co2     1 H4M302      0.0000 
     45 O3A        58.0400   -1.7340   59.4030 O.co2     1 H4M302      0.0000 
@<TRIPOS>BOND
     1    1    2 2    
     2    1   13 1    
     3    2    3 1    
     4    2    4 1    
     5    4    5 am   
     6    5    6 2    
     7    5    7 1    
     8    7    8 1    
     9    7   13 2    
    10    8    9 1    
    11    8   16 1    
    12    9   10 1    
    13    9   14 1    
    14   10   11 1    
    15   10   12 1    
    16   12   13 1    
    17   14   15 1    
    18   14   17 1    
    19   16   17 1    
    20   17   21 1    
    21   18   19 ar   
    22   18   23 ar   
    23   18   24 1    
    24   19   20 ar   
    25   20   21 ar   
    26   21   22 ar   
    27   22   23 ar   
    28   24   25 1    
    29   25   26 1    
    30   25   29 1    
    31   26   27 1    
    32   26   30 1    
    33   27   28 1    
    34   27   31 1    
    35   28   32 1    
    36   32   41 1    
    37   33   34 1    
    38   33   42 1    
    39   34   35 1    
    40   35   36 1    
    41   35   37 1    
    42   36   41 1    
    43   37   38 1    
    44   37   39 1    
    45   39   40 1    
    46   39   41 1    
    47   42   43 1    
    48   42   44 ar   
    49   42   45 ar   
@<TRIPOS>SUBSTRUCTURE
     1 H4M302      1 GROUP   
@<TRIPOS>SET

