#    Name: 6tge_20_NAP
#    Modification time : Fri May 22 19:36:20 2020

@<TRIPOS>MOLECULE
6tge_20_NAP
   48    52     1     0     1
SMALL
NO_CHARGES


@<TRIPOS>ATOM
      1 PA         31.6980  -65.7860  111.4060 P.3       1 NAP301      0.0000 
      2 O1A        30.5570  -65.0640  110.9880 O.co2     1 NAP301      0.0000 
      3 O2A        32.8970  -65.2060  110.9060 O.co2     1 NAP301      0.0000 
      4 O5B        31.5660  -67.2680  110.8940 O.3       1 NAP301      0.0000 
      5 C5B        32.4900  -68.1750  111.3170 C.3       1 NAP301      0.0000 
      6 C4B        32.6030  -69.3290  110.3560 C.3       1 NAP301      0.0000 
      7 O4B        31.4290  -70.0690  110.3230 O.3       1 NAP301      0.0000 
      8 C3B        32.8600  -68.9600  108.9230 C.3       1 NAP301      0.0000 
      9 O3B        34.1910  -68.5600  108.6820 O.3       1 NAP301      0.0000 
     10 C2B        32.5010  -70.2460  108.2370 C.3       1 NAP301      0.0000 
     11 O2B        33.6540  -71.0480  108.1210 O.3       1 NAP301      0.0000 
     12 C1B        31.4620  -70.8450  109.1790 C.3       1 NAP301      0.0000 
     13 N9A        30.1540  -70.8540  108.5350 N.pl3     1 NAP301      0.0000 
     14 C8A        29.3680  -69.9080  108.0760 C.2       1 NAP301      0.0000 
     15 N7A        28.2630  -70.4300  107.5790 N.2       1 NAP301      0.0000 
     16 C5A        28.3260  -71.6970  107.7140 C.ar      1 NAP301      0.0000 
     17 C6A        27.4670  -72.8020  107.3830 C.ar      1 NAP301      0.0000 
     18 N6A        26.2900  -72.8120  106.8120 N.pl3     1 NAP301      0.0000 
     19 N1A        27.8600  -74.0080  107.6790 N.ar      1 NAP301      0.0000 
     20 C2A        29.0170  -74.2290  108.2670 C.ar      1 NAP301      0.0000 
     21 N3A        29.8430  -73.2500  108.5940 N.ar      1 NAP301      0.0000 
     22 C4A        29.5550  -71.9950  108.3430 C.ar      1 NAP301      0.0000 
     23 O3         31.6660  -65.8380  112.9710 O.3       1 NAP301      0.0000 
     24 PN         32.5330  -65.0310  114.0390 P.3       1 NAP301      0.0000 
     25 O1N        33.8730  -65.5060  114.0780 O.co2     1 NAP301      0.0000 
     26 O2N        32.4790  -63.5670  113.7290 O.co2     1 NAP301      0.0000 
     27 O5D        31.8440  -65.2750  115.3970 O.3       1 NAP301      0.0000 
     28 C5D        31.6200  -66.5810  115.7760 C.3       1 NAP301      0.0000 
     29 C4D        30.4750  -66.6330  116.7780 C.3       1 NAP301      0.0000 
     30 O4D        30.7860  -65.8150  117.8820 O.3       1 NAP301      0.0000 
     31 C3D        29.1970  -66.1100  116.1620 C.3       1 NAP301      0.0000 
     32 O3D        28.1190  -66.9590  116.4620 O.3       1 NAP301      0.0000 
     33 C2D        28.9990  -64.7870  116.8120 C.3       1 NAP301      0.0000 
     34 O2D        27.6160  -64.4860  117.0170 O.3       1 NAP301      0.0000 
     35 C1D        29.6650  -64.9630  118.1430 C.3       1 NAP301      0.0000 
     36 N1N        30.1510  -63.7770  118.7360 N.pl3     1 NAP301      0.0000 
     37 C2N        29.6830  -63.4190  119.9550 C.ar      1 NAP301      0.0000 
     38 C3N        30.1010  -62.2550  120.5850 C.ar      1 NAP301      0.0000 
     39 C7N        29.5850  -61.9300  122.0050 C.2       1 NAP301      0.0000 
     40 O7N        30.0180  -60.9960  122.6060 O.2       1 NAP301      0.0000 
     41 N7N        28.5680  -62.7740  122.6140 N.am      1 NAP301      0.0000 
     42 C4N        30.9490  -61.3910  119.8990 C.ar      1 NAP301      0.0000 
     43 C5N        31.3870  -61.7500  118.6250 C.ar      1 NAP301      0.0000 
     44 C6N        30.9910  -62.9420  118.0620 C.ar      1 NAP301      0.0000 
     45 P2B        33.9740  -71.8490  106.7830 P.3       1 NAP301      0.0000 
     46 O1X        33.5280  -71.1640  105.6510 O.co2     1 NAP301      0.0000 
     47 O2X        35.3790  -72.0530  106.6880 O.co2     1 NAP301      0.0000 
     48 O3X        33.3600  -73.1950  106.8480 O.co2     1 NAP301      0.0000 
@<TRIPOS>BOND
     1    1    2 ar   
     2    1    3 ar   
     3    1    4 1    
     4    1   23 1    
     5    4    5 1    
     6    5    6 1    
     7    6    7 1    
     8    6    8 1    
     9    7   12 1    
    10    8    9 1    
    11    8   10 1    
    12   10   11 1    
    13   10   12 1    
    14   11   45 1    
    15   12   13 1    
    16   13   14 1    
    17   13   22 1    
    18   14   15 2    
    19   15   16 1    
    20   16   17 ar   
    21   16   22 ar   
    22   17   18 1    
    23   17   19 ar   
    24   19   20 ar   
    25   20   21 ar   
    26   21   22 ar   
    27   23   24 1    
    28   24   25 ar   
    29   24   26 ar   
    30   24   27 1    
    31   27   28 1    
    32   28   29 1    
    33   29   30 1    
    34   29   31 1    
    35   30   35 1    
    36   31   32 1    
    37   31   33 1    
    38   33   34 1    
    39   33   35 1    
    40   35   36 1    
    41   36   37 ar   
    42   36   44 ar   
    43   37   38 ar   
    44   38   39 1    
    45   38   42 ar   
    46   39   40 2    
    47   39   41 am   
    48   42   43 ar   
    49   43   44 ar   
    50   45   46 ar   
    51   45   47 ar   
    52   45   48 ar   
@<TRIPOS>SUBSTRUCTURE
     1 NAP301      1 GROUP   
@<TRIPOS>SET
ATOM$ORANGE STATIC     ATOMS   COLORGROUP SYSTEM 
42 5 5 6 6 8 8 10 10 12 12 14 14 16 16 17 17 20 \
20 22 22 28 28 29 29 31 31 33 33 35 35 37 37 38 38 39 \
39 42 42 43 43 44 44 

