#    Name: 6tge_24_NAP_CAVITY_N1_12
#    Modification time : Fri May 22 19:36:12 2020

@<TRIPOS>MOLECULE
6tge_24_NAP_CAVITY_N1_12
   69     0     5     0     0
SMALL
NO_CHARGES


@<TRIPOS>ATOM
      1 OG        108.4800   49.3700   35.9200 O.3       1 SER1        0.0000 
      2 OG        109.1200   50.1300   37.0400 O.3       1 SER1        0.0000 
      3 N         105.2700   48.3600   34.4500 N.am      2 ALA2        0.0000 
      4 N         107.1800   47.8600   33.6800 N.am      2 ALA2        0.0000 
      5 N         106.8700   49.7500   34.5900 N.am      2 ALA2        0.0000 
      6 N         105.9100   49.1200   35.5700 N.am      2 ALA2        0.0000 
      7 N         111.6400   49.3700   32.0900 N.am      2 ALA2        0.0000 
      8 N         110.6900   48.7400   33.0600 N.am      2 ALA2        0.0000 
      9 N         110.7000   46.9800   34.2400 N.am      2 ALA2        0.0000 
     10 N         110.3900   48.8700   35.1600 N.am      2 ALA2        0.0000 
     11 N         111.3500   47.7400   35.3600 N.am      2 ALA2        0.0000 
     12 N         111.0400   49.6300   36.2800 N.am      2 ALA2        0.0000 
     13 N         112.0000   48.4900   36.4900 N.am      2 ALA2        0.0000 
     14 N         109.1500   46.6100   39.4100 N.am      2 ALA2        0.0000 
     15 N         112.6400   51.0100   36.4200 N.am      2 ALA2        0.0000 
     16 N         111.6800   50.3800   37.4000 N.am      2 ALA2        0.0000 
     17 N         111.7000   48.6200   38.5800 N.am      2 ALA2        0.0000 
     18 N         109.7900   47.3700   40.5300 N.am      2 ALA2        0.0000 
     19 N         110.7600   46.2300   40.7400 N.am      2 ALA2        0.0000 
     20 CZ        106.2300   47.2300   34.6600 C.ar      3 PHE5        0.0000 
     21 CZ        107.1900   46.1000   34.8600 C.ar      3 PHE5        0.0000 
     22 CZ        108.1500   44.9700   35.0700 C.ar      3 PHE5        0.0000 
     23 CZ        106.8800   47.9900   35.7800 C.ar      3 PHE5        0.0000 
     24 CZ        107.8400   46.8500   35.9800 C.ar      3 PHE5        0.0000 
     25 CZ        108.8000   45.7200   36.1900 C.ar      3 PHE5        0.0000 
     26 CZ        110.7100   45.2200   35.4300 C.ar      3 PHE5        0.0000 
     27 CZ        107.5200   48.7400   36.9000 C.ar      3 PHE5        0.0000 
     28 CZ        108.4900   47.6100   37.1100 C.ar      3 PHE5        0.0000 
     29 CZ        110.4100   45.3500   37.5200 C.ar      3 PHE5        0.0000 
     30 CZ        109.1300   48.3700   38.2300 C.ar      3 PHE5        0.0000 
     31 CZ        108.1800   47.7400   39.2000 C.ar      3 PHE5        0.0000 
     32 CZ        111.0600   46.1100   38.6400 C.ar      3 PHE5        0.0000 
     33 CA        108.4500   44.8400   32.9800 C.3       4 GLY6        0.0000 
     34 CA        107.5000   44.2100   33.9500 C.3       4 GLY6        0.0000 
     35 CA        110.0500   46.2200   33.1200 C.3       4 GLY6        0.0000 
     36 CA        110.0700   44.4600   34.3100 C.3       4 GLY6        0.0000 
     37 CA        110.6800   50.5000   31.8800 C.3       4 GLY6        0.0000 
     38 CA        109.7300   49.8700   32.8500 C.3       4 GLY6        0.0000 
     39 CA        110.3800   50.6300   33.9700 C.3       4 GLY6        0.0000 
     40 CA        109.4300   50.0000   34.9500 C.3       4 GLY6        0.0000 
     41 CA        109.4500   46.4800   37.3100 C.3       4 GLY6        0.0000 
     42 CA        111.3600   45.9800   36.5500 C.3       4 GLY6        0.0000 
     43 CA        111.0300   51.3900   35.0900 C.3       4 GLY6        0.0000 
     44 CA        110.0700   50.7600   36.0700 C.3       4 GLY6        0.0000 
     45 CA        108.1700   49.5000   38.0200 C.3       4 GLY6        0.0000 
     46 CA        111.0500   47.8700   37.4600 C.3       4 GLY6        0.0000 
     47 CA        110.1000   47.2400   38.4400 C.3       4 GLY6        0.0000 
     48 CA        112.0100   46.7300   37.6700 C.3       4 GLY6        0.0000 
     49 CA        111.6700   52.1400   36.2100 C.3       4 GLY6        0.0000 
     50 CA        110.7200   51.5200   37.1900 C.3       4 GLY6        0.0000 
     51 CA        109.7700   50.8900   38.1600 C.3       4 GLY6        0.0000 
     52 CA        110.7300   49.7600   38.3700 C.3       4 GLY6        0.0000 
     53 CA        109.7800   49.1300   39.3500 C.3       4 GLY6        0.0000 
     54 CA        108.8300   48.5000   40.3200 C.3       4 GLY6        0.0000 
     55 CA        110.7400   47.9900   39.5600 C.3       4 GLY6        0.0000 
     56 CA        112.6600   47.4900   38.7900 C.3       4 GLY6        0.0000 
     57 CA        111.7100   46.8600   39.7600 C.3       4 GLY6        0.0000 
     58 DU        105.5800   46.4700   33.5300 H         5 CUB7        0.0000 
     59 DU        106.5400   45.3400   33.7400 H         5 CUB7        0.0000 
     60 DU        110.0400   47.9800   31.9400 H         5 CUB7        0.0000 
     61 DU        109.1000   45.5900   34.1000 H         5 CUB7        0.0000 
     62 DU        108.7800   49.2400   33.8300 H         5 CUB7        0.0000 
     63 DU        107.8300   48.6200   34.8000 H         5 CUB7        0.0000 
     64 DU        109.7400   48.1100   34.0400 H         5 CUB7        0.0000 
     65 DU        108.7900   47.4800   35.0100 H         5 CUB7        0.0000 
     66 DU        109.7500   46.3500   35.2200 H         5 CUB7        0.0000 
     67 DU        109.4400   48.2400   36.1300 H         5 CUB7        0.0000 
     68 DU        110.4000   47.1100   36.3400 H         5 CUB7        0.0000 
     69 DU        110.0900   49.0000   37.2500 H         5 CUB7        0.0000 
@<TRIPOS>BOND
@<TRIPOS>SUBSTRUCTURE
     1 SER1        1 GROUP   
     2 ALA2        3 GROUP   
     3 PHE5       20 GROUP   
     4 GLY6       33 GROUP   
     5 CUB7       58 GROUP   
@<TRIPOS>SET

