#    Name: 6tge_15_H4M_CAVITY_N1_6
#    Modification time : Fri May 22 19:35:01 2020

@<TRIPOS>MOLECULE
6tge_15_H4M_CAVITY_N1_6
   79     0     4     0     0
SMALL
NO_CHARGES


@<TRIPOS>ATOM
      1 N         114.8600   20.2100  150.3000 N.am      1 ALA2        0.0000 
      2 N         113.9100   19.5800  151.2700 N.am      1 ALA2        0.0000 
      3 O         116.7900   16.1900  151.9000 O.2       1 ALA2        0.0000 
      4 N         114.8900   14.9300  153.8500 N.am      1 ALA2        0.0000 
      5 N         116.4600   21.6000  150.4400 N.am      1 ALA2        0.0000 
      6 N         115.5100   20.9700  151.4200 N.am      1 ALA2        0.0000 
      7 N         114.5600   20.3400  152.3900 N.am      1 ALA2        0.0000 
      8 N         115.5200   19.2100  152.6000 N.am      1 ALA2        0.0000 
      9 N         114.5700   18.5800  153.5700 N.am      1 ALA2        0.0000 
     10 N         112.6600   17.3200  155.5200 N.am      1 ALA2        0.0000 
     11 N         115.5300   17.4500  153.7800 N.am      1 ALA2        0.0000 
     12 N         114.5800   16.8200  154.7600 N.am      1 ALA2        0.0000 
     13 CZ        112.9800   15.4300  154.6100 C.ar      2 PHE5        0.0000 
     14 CZ        112.0300   14.8000  155.5900 C.ar      2 PHE5        0.0000 
     15 CZ        111.7100   16.6900  156.5000 C.ar      2 PHE5        0.0000 
     16 CZ        110.7600   16.0600  157.4700 C.ar      2 PHE5        0.0000 
     17 CZ        112.6700   15.5600  156.7100 C.ar      2 PHE5        0.0000 
     18 CZ        111.7200   14.9300  157.6800 C.ar      2 PHE5        0.0000 
     19 CZ        116.1500   21.7200  152.5400 C.ar      2 PHE5        0.0000 
     20 CZ        110.4500   17.9500  158.3900 C.ar      2 PHE5        0.0000 
     21 CZ        116.1700   19.9600  153.7200 C.ar      2 PHE5        0.0000 
     22 CZ        111.4100   16.8200  158.5900 C.ar      2 PHE5        0.0000 
     23 CZ        111.1000   18.7100  159.5100 C.ar      2 PHE5        0.0000 
     24 CZ        113.9600   18.8300  157.7700 C.ar      2 PHE5        0.0000 
     25 CZ        113.0100   18.2100  158.7400 C.ar      2 PHE5        0.0000 
     26 CZ        112.0600   17.5800  159.7200 C.ar      2 PHE5        0.0000 
     27 CZ        115.8700   18.3300  157.0000 C.ar      2 PHE5        0.0000 
     28 CZ        114.9200   17.7000  157.9700 C.ar      2 PHE5        0.0000 
     29 CZ        111.7400   19.4700  160.6300 C.ar      2 PHE5        0.0000 
     30 CZ        114.6100   19.5900  158.8900 C.ar      2 PHE5        0.0000 
     31 CZ        113.6600   18.9600  159.8600 C.ar      2 PHE5        0.0000 
     32 CZ        116.5200   19.0900  158.1200 C.ar      2 PHE5        0.0000 
     33 CA        115.1700   18.3200  149.3800 C.3       3 GLY6        0.0000 
     34 CA        115.8100   20.8400  149.3200 C.3       3 GLY6        0.0000 
     35 CA        115.8200   19.0800  150.5000 C.3       3 GLY6        0.0000 
     36 CA        114.8700   18.4500  151.4800 C.3       3 GLY6        0.0000 
     37 CA        115.8300   17.3200  151.6900 C.3       3 GLY6        0.0000 
     38 CA        114.8800   16.6900  152.6600 C.3       3 GLY6        0.0000 
     39 CA        113.9300   16.0600  153.6400 C.3       3 GLY6        0.0000 
     40 CA        117.7400   16.8100  150.9200 C.3       3 GLY6        0.0000 
     41 CA        115.8400   15.5600  152.8700 C.3       3 GLY6        0.0000 
     42 CA        113.9400   14.3000  154.8200 C.3       3 GLY6        0.0000 
     43 CA        117.4400   16.9400  153.0200 C.3       3 GLY6        0.0000 
     44 CA        116.4900   16.3100  153.9900 C.3       3 GLY6        0.0000 
     45 CA        115.5400   15.6900  154.9700 C.3       3 GLY6        0.0000 
     46 CA        117.4500   15.1800  154.2000 C.3       3 GLY6        0.0000 
     47 CA        116.5000   14.5500  155.1800 C.3       3 GLY6        0.0000 
     48 CA        111.4000   18.5800  157.4100 C.3       3 GLY6        0.0000 
     49 CA        113.3100   18.0800  156.6500 C.3       3 GLY6        0.0000 
     50 CA        112.3600   17.4500  157.6200 C.3       3 GLY6        0.0000 
     51 CA        117.1300   18.8300  153.9300 C.3       3 GLY6        0.0000 
     52 CA        116.1800   18.2000  154.9000 C.3       3 GLY6        0.0000 
     53 CA        115.2200   17.5700  155.8800 C.3       3 GLY6        0.0000 
     54 CA        116.1900   16.4400  156.0900 C.3       3 GLY6        0.0000 
     55 CA        117.1500   15.3100  156.3000 C.3       3 GLY6        0.0000 
     56 CA        110.1400   18.0800  160.4800 C.3       3 GLY6        0.0000 
     57 CA        116.8200   18.9600  156.0300 C.3       3 GLY6        0.0000 
     58 CA        116.8300   17.2000  157.2100 C.3       3 GLY6        0.0000 
     59 CA        117.8000   16.0700  157.4200 C.3       3 GLY6        0.0000 
     60 CA        116.8500   15.4400  158.3900 C.3       3 GLY6        0.0000 
     61 CA        115.8900   14.8100  159.3700 C.3       3 GLY6        0.0000 
     62 DU        116.7700   19.7100  149.5300 H         4 CUB7        0.0000 
     63 DU        116.7800   17.9500  150.7100 H         4 CUB7        0.0000 
     64 DU        116.4700   19.8400  151.6300 H         4 CUB7        0.0000 
     65 DU        117.4300   18.7000  151.8300 H         4 CUB7        0.0000 
     66 DU        116.4800   18.0700  152.8100 H         4 CUB7        0.0000 
     67 DU        113.6300   16.1900  155.7300 H         4 CUB7        0.0000 
     68 DU        114.5900   15.0600  155.9400 H         4 CUB7        0.0000 
     69 DU        114.2700   16.9500  156.8500 H         4 CUB7        0.0000 
     70 DU        113.3200   16.3200  157.8300 H         4 CUB7        0.0000 
     71 DU        112.3700   15.6900  158.8000 H         4 CUB7        0.0000 
     72 DU        115.2400   15.8100  157.0600 H         4 CUB7        0.0000 
     73 DU        116.2000   14.6800  157.2700 H         4 CUB7        0.0000 
     74 DU        113.9700   17.0700  158.9500 H         4 CUB7        0.0000 
     75 DU        115.8800   16.5700  158.1800 H         4 CUB7        0.0000 
     76 DU        114.9300   15.9400  159.1600 H         4 CUB7        0.0000 
     77 DU        113.9800   15.3100  160.1300 H         4 CUB7        0.0000 
     78 DU        114.9400   14.1800  160.3400 H         4 CUB7        0.0000 
     79 DU        115.5700   18.4600  159.1000 H         4 CUB7        0.0000 
@<TRIPOS>BOND
@<TRIPOS>SUBSTRUCTURE
     1 ALA2        1 GROUP   
     2 PHE5       13 GROUP   
     3 GLY6       33 GROUP   
     4 CUB7       62 GROUP   
@<TRIPOS>SET

