#    Name: 6tge_24_NAP
#    Modification time : Fri May 22 19:36:11 2020

@<TRIPOS>MOLECULE
6tge_24_NAP
   48    52     1     0     1
SMALL
NO_CHARGES


@<TRIPOS>ATOM
      1 PA        108.6280   48.8210   25.7760 P.3       1 NAP301      0.0000 
      2 O1A       108.3280   47.4430   25.9540 O.co2     1 NAP301      0.0000 
      3 O2A       107.4950   49.5150   25.2710 O.co2     1 NAP301      0.0000 
      4 O5B       109.8520   48.9410   24.8030 O.3       1 NAP301      0.0000 
      5 C5B       110.5660   50.0980   24.8130 C.3       1 NAP301      0.0000 
      6 C4B       111.3320   50.2320   23.5250 C.3       1 NAP301      0.0000 
      7 O4B       112.4090   49.3370   23.4730 O.3       1 NAP301      0.0000 
      8 C3B       110.5660   49.9520   22.2640 C.3       1 NAP301      0.0000 
      9 O3B       109.6550   50.9750   21.8940 O.3       1 NAP301      0.0000 
     10 C2B       111.7010   49.7790   21.2990 C.3       1 NAP301      0.0000 
     11 O2B       112.0350   51.0220   20.7230 O.3       1 NAP301      0.0000 
     12 C1B       112.8480   49.2920   22.1620 C.3       1 NAP301      0.0000 
     13 N9A       113.2300   47.9410   21.7890 N.pl3     1 NAP301      0.0000 
     14 C8A       112.5580   46.8150   21.7110 C.2       1 NAP301      0.0000 
     15 N7A       113.3540   45.8310   21.3230 N.2       1 NAP301      0.0000 
     16 C5A       114.5230   46.3190   21.1590 C.ar      1 NAP301      0.0000 
     17 C6A       115.7870   45.7770   20.7540 C.ar      1 NAP301      0.0000 
     18 N6A       116.0910   44.5580   20.4280 N.pl3     1 NAP301      0.0000 
     19 N1A       116.8170   46.5710   20.6790 N.ar      1 NAP301      0.0000 
     20 C2A       116.7160   47.8570   20.9700 C.ar      1 NAP301      0.0000 
     21 N3A       115.5770   48.4140   21.3500 N.ar      1 NAP301      0.0000 
     22 C4A       114.4730   47.7020   21.4520 C.ar      1 NAP301      0.0000 
     23 O3        109.1320   49.4180   27.1440 O.3       1 NAP301      0.0000 
     24 PN        108.4820   50.4800   28.1570 P.3       1 NAP301      0.0000 
     25 O1N       108.6140   51.8030   27.6170 O.co2     1 NAP301      0.0000 
     26 O2N       107.0670   50.0870   28.4580 O.co2     1 NAP301      0.0000 
     27 O5D       109.3420   50.3490   29.4390 O.3       1 NAP301      0.0000 
     28 C5D       110.7040   50.5470   29.3110 C.3       1 NAP301      0.0000 
     29 C4D       111.4890   49.7620   30.3400 C.3       1 NAP301      0.0000 
     30 O4D       111.1450   50.1270   31.6560 O.3       1 NAP301      0.0000 
     31 C3D       111.1970   48.2790   30.2420 C.3       1 NAP301      0.0000 
     32 O3D       112.3910   47.5700   30.4010 O.3       1 NAP301      0.0000 
     33 C2D       110.2830   48.0330   31.3940 C.3       1 NAP301      0.0000 
     34 O2D       110.3160   46.6760   31.8240 O.3       1 NAP301      0.0000 
     35 C1D       110.8570   48.9530   32.4310 C.3       1 NAP301      0.0000 
     36 N1N       110.0640   49.3750   33.5150 N.pl3     1 NAP301      0.0000 
     37 C2N       110.6810   49.7240   34.6770 C.ar      1 NAP301      0.0000 
     38 C3N       109.9700   50.2030   35.7700 C.ar      1 NAP301      0.0000 
     39 C7N       110.6750   50.5580   37.1020 C.2       1 NAP301      0.0000 
     40 O7N       110.0460   51.0140   38.0040 O.2       1 NAP301      0.0000 
     41 N7N       112.1100   50.3520   37.2580 N.am      1 NAP301      0.0000 
     42 C4N       108.5810   50.2640   35.6520 C.ar      1 NAP301      0.0000 
     43 C5N       108.0150   50.1380   34.3890 C.ar      1 NAP301      0.0000 
     44 C6N       108.7520   49.6770   33.3370 C.ar      1 NAP301      0.0000 
     45 P2B       112.3280   51.1790   19.1660 P.3       1 NAP301      0.0000 
     46 O1X       111.5570   50.1990   18.4840 O.co2     1 NAP301      0.0000 
     47 O2X       111.9300   52.5230   18.8060 O.co2     1 NAP301      0.0000 
     48 O3X       113.7690   50.9660   18.9420 O.co2     1 NAP301      0.0000 
@<TRIPOS>BOND
     1    1    2 ar   
     2    1    3 ar   
     3    1    4 1    
     4    1   23 1    
     5    4    5 1    
     6    5    6 1    
     7    6    7 1    
     8    6    8 1    
     9    7   12 1    
    10    8    9 1    
    11    8   10 1    
    12   10   11 1    
    13   10   12 1    
    14   11   45 1    
    15   12   13 1    
    16   13   14 1    
    17   13   22 1    
    18   14   15 2    
    19   15   16 1    
    20   16   17 ar   
    21   16   22 ar   
    22   17   18 1    
    23   17   19 ar   
    24   19   20 ar   
    25   20   21 ar   
    26   21   22 ar   
    27   23   24 1    
    28   24   25 ar   
    29   24   26 ar   
    30   24   27 1    
    31   27   28 1    
    32   28   29 1    
    33   29   30 1    
    34   29   31 1    
    35   30   35 1    
    36   31   32 1    
    37   31   33 1    
    38   33   34 1    
    39   33   35 1    
    40   35   36 1    
    41   36   37 ar   
    42   36   44 ar   
    43   37   38 ar   
    44   38   39 1    
    45   38   42 ar   
    46   39   40 2    
    47   39   41 am   
    48   42   43 ar   
    49   43   44 ar   
    50   45   46 ar   
    51   45   47 ar   
    52   45   48 ar   
@<TRIPOS>SUBSTRUCTURE
     1 NAP301      1 GROUP   
@<TRIPOS>SET
ATOM$ORANGE STATIC     ATOMS   COLORGROUP SYSTEM 
42 5 5 6 6 8 8 10 10 12 12 14 14 16 16 17 17 20 \
20 22 22 28 28 29 29 31 31 33 33 35 35 37 37 38 38 39 \
39 42 42 43 43 44 44 

