#    Name: 6tge_24_H4M
#    Modification time : Fri May 22 19:35:33 2020

@<TRIPOS>MOLECULE
6tge_24_H4M
   45    49     1     0     0
SMALL
NO_CHARGES


@<TRIPOS>ATOM
      1 N1         29.4100  -55.5620  118.3110 N.2       1 H4M302      0.0000 
      2 C2         30.6040  -55.3430  118.9120 C.2       1 H4M302      0.0000 
      3 NA2        31.3560  -54.3280  118.5150 N.pl3     1 H4M302      0.0000 
      4 N3         31.0580  -56.1340  119.9280 N.am      1 H4M302      0.0000 
      5 C4         30.2980  -57.2070  120.3560 C.2       1 H4M302      0.0000 
      6 OH4        30.7090  -57.9090  121.2550 O.2       1 H4M302      0.0000 
      7 C4A        29.0150  -57.4460  119.7190 C.2       1 H4M302      0.0000 
      8 N5         28.1940  -58.5220  120.1000 N.3       1 H4M302      0.0000 
      9 C6         27.3370  -58.9790  119.0410 C.3       1 H4M302      0.0000 
     10 C7         26.5310  -57.8600  118.4620 C.3       1 H4M302      0.0000 
     11 C7M        25.4690  -58.2910  117.4520 C.3       1 H4M302      0.0000 
     12 N8         27.3440  -56.7720  117.9990 N.pl3     1 H4M302      0.0000 
     13 C8A        28.5910  -56.5970  118.6830 C.2       1 H4M302      0.0000 
     14 C9         26.5950  -60.1460  119.6630 C.3       1 H4M302      0.0000 
     15 C9M        26.9350  -61.4150  118.8390 C.3       1 H4M302      0.0000 
     16 C10        28.0630  -59.1400  121.1690 C.3       1 H4M302      0.0000 
     17 N10        27.1250  -60.2580  121.0020 N.3       1 H4M302      0.0000 
     18 C11        24.2980  -61.0700  123.9210 C.ar      1 H4M302      0.0000 
     19 C12        24.6480  -62.0630  123.0060 C.ar      1 H4M302      0.0000 
     20 C13        25.5920  -61.7950  122.0200 C.ar      1 H4M302      0.0000 
     21 C14        26.1770  -60.5360  121.9510 C.ar      1 H4M302      0.0000 
     22 C15        25.8150  -59.5550  122.8820 C.ar      1 H4M302      0.0000 
     23 C16        24.8880  -59.8260  123.8640 C.ar      1 H4M302      0.0000 
     24 CX1        23.3620  -61.2880  124.9150 C.3       1 H4M302      0.0000 
     25 CX2        22.1340  -61.9110  124.2640 C.3       1 H4M302      0.0000 
     26 CX3        20.8960  -61.5990  125.1060 C.3       1 H4M302      0.0000 
     27 CX4        19.8630  -62.7340  125.1470 C.3       1 H4M302      0.0000 
     28 CX5        19.9220  -63.6820  123.9460 C.3       1 H4M302      0.0000 
     29 OX2        21.9020  -61.3810  122.9520 O.3       1 H4M302      0.0000 
     30 OX3        21.3110  -61.3050  126.4520 O.3       1 H4M302      0.0000 
     31 OX4        20.0550  -63.4750  126.3620 O.3       1 H4M302      0.0000 
     32 OX5        18.6250  -63.6900  123.3400 O.3       1 H4M302      0.0000 
     33 O5J        13.8560  -65.7990  121.4160 O.3       1 H4M302      0.0000 
     34 C5J        14.6920  -65.8510  122.5750 C.3       1 H4M302      0.0000 
     35 C4J        15.9040  -64.9360  122.3910 C.3       1 H4M302      0.0000 
     36 O4J        16.8580  -65.2290  123.4250 O.3       1 H4M302      0.0000 
     37 C3J        16.6000  -65.2160  121.0720 C.3       1 H4M302      0.0000 
     38 O3J        16.1640  -64.2780  120.0790 O.3       1 H4M302      0.0000 
     39 C2J        18.0710  -65.0000  121.3720 C.3       1 H4M302      0.0000 
     40 O2J        18.5200  -63.7540  120.8170 O.3       1 H4M302      0.0000 
     41 C1J        18.1700  -64.9770  122.8900 C.3       1 H4M302      0.0000 
     42 PA         12.2860  -66.2340  121.5830 P.3       1 H4M302      0.0000 
     43 O1A        11.4680  -65.0220  121.9640 O.3       1 H4M302      0.0000 
     44 O2A        11.7760  -66.7990  120.2790 O.co2     1 H4M302      0.0000 
     45 O3A        12.1630  -67.3920  122.7770 O.co2     1 H4M302      0.0000 
@<TRIPOS>BOND
     1    1    2 2    
     2    1   13 1    
     3    2    3 1    
     4    2    4 1    
     5    4    5 am   
     6    5    6 2    
     7    5    7 1    
     8    7    8 1    
     9    7   13 2    
    10    8    9 1    
    11    8   16 1    
    12    9   10 1    
    13    9   14 1    
    14   10   11 1    
    15   10   12 1    
    16   12   13 1    
    17   14   15 1    
    18   14   17 1    
    19   16   17 1    
    20   17   21 1    
    21   18   19 ar   
    22   18   23 ar   
    23   18   24 1    
    24   19   20 ar   
    25   20   21 ar   
    26   21   22 ar   
    27   22   23 ar   
    28   24   25 1    
    29   25   26 1    
    30   25   29 1    
    31   26   27 1    
    32   26   30 1    
    33   27   28 1    
    34   27   31 1    
    35   28   32 1    
    36   32   41 1    
    37   33   34 1    
    38   33   42 1    
    39   34   35 1    
    40   35   36 1    
    41   35   37 1    
    42   36   41 1    
    43   37   38 1    
    44   37   39 1    
    45   39   40 1    
    46   39   41 1    
    47   42   43 1    
    48   42   44 ar   
    49   42   45 ar   
@<TRIPOS>SUBSTRUCTURE
     1 H4M302      1 GROUP   
@<TRIPOS>SET

