#    Name: 6tge_23_NAP
#    Modification time : Fri May 22 19:36:15 2020

@<TRIPOS>MOLECULE
6tge_23_NAP
   48    52     1     0     1
SMALL
NO_CHARGES


@<TRIPOS>ATOM
      1 PA         22.5150   14.5970  106.1480 P.3       1 NAP301      0.0000 
      2 O1A        22.8190   15.9700  106.2790 O.co2     1 NAP301      0.0000 
      3 O2A        23.6590   13.8620  105.7100 O.co2     1 NAP301      0.0000 
      4 O5B        21.3510   14.4480  105.1000 O.3       1 NAP301      0.0000 
      5 C5B        20.7430   13.2360  104.9690 C.3       1 NAP301      0.0000 
      6 C4B        20.0280   13.0850  103.6510 C.3       1 NAP301      0.0000 
      7 O4B        18.9520   13.9540  103.5670 O.3       1 NAP301      0.0000 
      8 C3B        20.8280   13.3660  102.4160 C.3       1 NAP301      0.0000 
      9 O3B        21.7270   12.3280  102.0870 O.3       1 NAP301      0.0000 
     10 C2B        19.7240   13.5390  101.4160 C.3       1 NAP301      0.0000 
     11 O2B        19.4180   12.3030  100.8100 O.3       1 NAP301      0.0000 
     12 C1B        18.5470   14.0200  102.2520 C.3       1 NAP301      0.0000 
     13 N9A        18.2030   15.3800  101.8670 N.pl3     1 NAP301      0.0000 
     14 C8A        18.8980   16.4910  101.8380 C.2       1 NAP301      0.0000 
     15 N7A        18.1540   17.4850  101.4080 N.2       1 NAP301      0.0000 
     16 C5A        16.9870   17.0340  101.1600 C.ar      1 NAP301      0.0000 
     17 C6A        15.7580   17.6110  100.6760 C.ar      1 NAP301      0.0000 
     18 N6A        15.4700   18.8410  100.3390 N.pl3     1 NAP301      0.0000 
     19 N1A        14.7220   16.8360  100.5370 N.ar      1 NAP301      0.0000 
     20 C2A        14.7880   15.5480  100.8230 C.ar      1 NAP301      0.0000 
     21 N3A        15.8900   14.9630  101.2670 N.ar      1 NAP301      0.0000 
     22 C4A        16.9960   15.6480  101.4500 C.ar      1 NAP301      0.0000 
     23 O3         22.0000   14.1010  107.5390 O.3       1 NAP301      0.0000 
     24 PN         22.5880   12.9930  108.5320 P.3       1 NAP301      0.0000 
     25 O1N        22.5480   11.7100  107.9380 O.co2     1 NAP301      0.0000 
     26 O2N        23.9790   13.3070  108.9490 O.co2     1 NAP301      0.0000 
     27 O5D        21.6540   13.0330  109.7730 O.3       1 NAP301      0.0000 
     28 C5D        20.3130   12.8780  109.5310 C.3       1 NAP301      0.0000 
     29 C4D        19.4530   13.7020  110.4820 C.3       1 NAP301      0.0000 
     30 O4D        19.7100   13.3010  111.8060 O.3       1 NAP301      0.0000 
     31 C3D        19.7700   15.1810  110.4030 C.3       1 NAP301      0.0000 
     32 O3D        18.5890   15.9380  110.4590 O.3       1 NAP301      0.0000 
     33 C2D        20.5980   15.4170  111.6200 C.3       1 NAP301      0.0000 
     34 O2D        20.5060   16.7630  112.0690 O.3       1 NAP301      0.0000 
     35 C1D        19.9410   14.4770  112.5900 C.3       1 NAP301      0.0000 
     36 N1N        20.6690   14.0980  113.7240 N.pl3     1 NAP301      0.0000 
     37 C2N        19.9840   13.8380  114.8560 C.ar      1 NAP301      0.0000 
     38 C3N        20.6410   13.4910  116.0220 C.ar      1 NAP301      0.0000 
     39 C7N        19.8240   13.0810  117.2550 C.2       1 NAP301      0.0000 
     40 O7N        18.6310   13.1360  117.2250 O.2       1 NAP301      0.0000 
     41 N7N        20.5270   12.6010  118.4270 N.am      1 NAP301      0.0000 
     42 C4N        22.0210   13.3110  115.9950 C.ar      1 NAP301      0.0000 
     43 C5N        22.6760   13.4090  114.7710 C.ar      1 NAP301      0.0000 
     44 C6N        21.9980   13.8270  113.6560 C.ar      1 NAP301      0.0000 
     45 P2B        19.3000   12.1750   99.2280 P.3       1 NAP301      0.0000 
     46 O1X        17.9720   12.4050   98.8500 O.co2     1 NAP301      0.0000 
     47 O2X        20.1300   13.1540   98.5680 O.co2     1 NAP301      0.0000 
     48 O3X        19.7050   10.8140   98.8420 O.co2     1 NAP301      0.0000 
@<TRIPOS>BOND
     1    1    2 ar   
     2    1    3 ar   
     3    1    4 1    
     4    1   23 1    
     5    4    5 1    
     6    5    6 1    
     7    6    7 1    
     8    6    8 1    
     9    7   12 1    
    10    8    9 1    
    11    8   10 1    
    12   10   11 1    
    13   10   12 1    
    14   11   45 1    
    15   12   13 1    
    16   13   14 1    
    17   13   22 1    
    18   14   15 2    
    19   15   16 1    
    20   16   17 ar   
    21   16   22 ar   
    22   17   18 1    
    23   17   19 ar   
    24   19   20 ar   
    25   20   21 ar   
    26   21   22 ar   
    27   23   24 1    
    28   24   25 ar   
    29   24   26 ar   
    30   24   27 1    
    31   27   28 1    
    32   28   29 1    
    33   29   30 1    
    34   29   31 1    
    35   30   35 1    
    36   31   32 1    
    37   31   33 1    
    38   33   34 1    
    39   33   35 1    
    40   35   36 1    
    41   36   37 ar   
    42   36   44 ar   
    43   37   38 ar   
    44   38   39 1    
    45   38   42 ar   
    46   39   40 2    
    47   39   41 am   
    48   42   43 ar   
    49   43   44 ar   
    50   45   46 ar   
    51   45   47 ar   
    52   45   48 ar   
@<TRIPOS>SUBSTRUCTURE
     1 NAP301      1 GROUP   
@<TRIPOS>SET
ATOM$ORANGE STATIC     ATOMS   COLORGROUP SYSTEM 
42 5 5 6 6 8 8 10 10 12 12 14 14 16 16 17 17 20 \
20 22 22 28 28 29 29 31 31 33 33 35 35 37 37 38 38 39 \
39 42 42 43 43 44 44 

