#    Name: 6nw6_1_SAM
#    Modification time : Fri May 22 19:29:32 2020

@<TRIPOS>MOLECULE
6nw6_1_SAM
   27    29     1     0     0
SMALL
NO_CHARGES


@<TRIPOS>ATOM
      1 N         -24.4310  -19.8620    7.1860 N.4       1 SAM301      0.0000 
      2 CA        -23.2500  -20.7260    7.2150 C.3       1 SAM301      0.0000 
      3 C         -22.6860  -20.9160    5.8040 C.2       1 SAM301      0.0000 
      4 O         -21.4710  -20.9380    5.5980 O.co2     1 SAM301      0.0000 
      5 OXT       -23.4300  -21.0360    4.8300 O.co2     1 SAM301      0.0000 
      6 CB        -23.5730  -22.0560    7.9060 C.3       1 SAM301      0.0000 
      7 CG        -22.4300  -22.8020    8.5850 C.3       1 SAM301      0.0000 
      8 SD        -22.4320  -22.8060   10.4060 S.3       1 SAM301      0.0000 
      9 CE        -22.0850  -24.5510   10.7540 C.3       1 SAM301      0.0000 
     10 C5'       -24.1550  -22.6950   10.9750 C.3       1 SAM301      0.0000 
     11 C4'       -24.5500  -21.3620   11.6180 C.3       1 SAM301      0.0000 
     12 O4'       -23.7490  -20.9850   12.7530 O.3       1 SAM301      0.0000 
     13 C3'       -24.4390  -20.2220   10.6220 C.3       1 SAM301      0.0000 
     14 O3'       -25.5880  -20.1320    9.7910 O.3       1 SAM301      0.0000 
     15 C2'       -24.2790  -19.0150   11.5090 C.3       1 SAM301      0.0000 
     16 O2'       -25.5560  -18.6030   11.9920 O.3       1 SAM301      0.0000 
     17 C1'       -23.5150  -19.5850   12.6930 C.3       1 SAM301      0.0000 
     18 N9        -22.0510  -19.3350   12.6290 N.pl3     1 SAM301      0.0000 
     19 C8        -21.0610  -20.2940   12.5480 C.2       1 SAM301      0.0000 
     20 N7        -19.8520  -19.6860   12.5440 N.2       1 SAM301      0.0000 
     21 C5        -20.0500  -18.3380   12.6410 C.ar      1 SAM301      0.0000 
     22 C6        -19.1850  -17.2510   12.6940 C.ar      1 SAM301      0.0000 
     23 N6        -17.8520  -17.4040   12.6450 N.pl3     1 SAM301      0.0000 
     24 N1        -19.7120  -15.9830   12.8020 N.ar      1 SAM301      0.0000 
     25 C2        -21.0790  -15.7760   12.8430 C.ar      1 SAM301      0.0000 
     26 N3        -21.9420  -16.8540   12.8090 N.ar      1 SAM301      0.0000 
     27 C4        -21.4330  -18.1130   12.7070 C.ar      1 SAM301      0.0000 
@<TRIPOS>BOND
     1    1    2 1    
     2    2    3 1    
     3    2    6 1    
     4    3    4 ar   
     5    3    5 ar   
     6    6    7 1    
     7    7    8 1    
     8    8    9 1    
     9    8   10 1    
    10   10   11 1    
    11   11   12 1    
    12   11   13 1    
    13   12   17 1    
    14   13   14 1    
    15   13   15 1    
    16   15   16 1    
    17   15   17 1    
    18   17   18 1    
    19   18   19 1    
    20   18   27 1    
    21   19   20 2    
    22   20   21 1    
    23   21   22 ar   
    24   21   27 ar   
    25   22   23 1    
    26   22   24 ar   
    27   24   25 ar   
    28   25   26 ar   
    29   26   27 ar   
@<TRIPOS>SUBSTRUCTURE
     1 SAM301      1 GROUP   
@<TRIPOS>SET

