#    Name: 6nw6_2_SAM
#    Modification time : Fri May 22 19:29:38 2020

@<TRIPOS>MOLECULE
6nw6_2_SAM
   27    29     1     0     0
SMALL
NO_CHARGES


@<TRIPOS>ATOM
      1 N          -8.7330   -8.5280   29.9740 N.4       1 SAM301      0.0000 
      2 CA         -9.0880   -7.3080   29.2480 C.3       1 SAM301      0.0000 
      3 C          -7.8250   -6.4790   29.0000 C.2       1 SAM301      0.0000 
      4 O          -7.7840   -5.6090   28.1280 O.co2     1 SAM301      0.0000 
      5 OXT        -6.8010   -6.6790   29.6570 O.co2     1 SAM301      0.0000 
      6 CB        -10.2050   -6.5480   29.9780 C.3       1 SAM301      0.0000 
      7 CG        -11.1640   -5.6840   29.1630 C.3       1 SAM301      0.0000 
      8 SD        -12.8280   -6.3340   28.7990 S.3       1 SAM301      0.0000 
      9 CE        -13.8530   -4.8720   29.1030 C.3       1 SAM301      0.0000 
     10 C5'       -13.3730   -7.4120   30.1510 C.3       1 SAM301      0.0000 
     11 C4'       -13.3200   -8.9230   29.8770 C.3       1 SAM301      0.0000 
     12 O4'       -14.1740   -9.3660   28.8100 O.3       1 SAM301      0.0000 
     13 C3'       -11.9280   -9.4000   29.5040 C.3       1 SAM301      0.0000 
     14 O3'       -11.0970   -9.5680   30.6480 O.3       1 SAM301      0.0000 
     15 C2'       -12.1880  -10.6920   28.7740 C.3       1 SAM301      0.0000 
     16 O2'       -12.4130  -11.7550   29.6920 O.3       1 SAM301      0.0000 
     17 C1'       -13.4970  -10.3750   28.0730 C.3       1 SAM301      0.0000 
     18 N9        -13.3290   -9.8960   26.6810 N.pl3     1 SAM301      0.0000 
     19 C8        -13.6750   -8.6690   26.1720 C.2       1 SAM301      0.0000 
     20 N7        -13.4110   -8.6460   24.8460 N.2       1 SAM301      0.0000 
     21 C5        -12.9230   -9.8560   24.4850 C.ar      1 SAM301      0.0000 
     22 C6        -12.5030  -10.3870   23.2630 C.ar      1 SAM301      0.0000 
     23 N6        -12.5270   -9.6690   22.1330 N.pl3     1 SAM301      0.0000 
     24 N1        -12.0430  -11.6850   23.2330 N.ar      1 SAM301      0.0000 
     25 C2        -12.0020  -12.4580   24.3750 C.ar      1 SAM301      0.0000 
     26 N3        -12.4340  -11.9260   25.5800 N.ar      1 SAM301      0.0000 
     27 C4        -12.8850  -10.6550   25.6240 C.ar      1 SAM301      0.0000 
@<TRIPOS>BOND
     1    1    2 1    
     2    2    3 1    
     3    2    6 1    
     4    3    4 ar   
     5    3    5 ar   
     6    6    7 1    
     7    7    8 1    
     8    8    9 1    
     9    8   10 1    
    10   10   11 1    
    11   11   12 1    
    12   11   13 1    
    13   12   17 1    
    14   13   14 1    
    15   13   15 1    
    16   15   16 1    
    17   15   17 1    
    18   17   18 1    
    19   18   19 1    
    20   18   27 1    
    21   19   20 2    
    22   20   21 1    
    23   21   22 ar   
    24   21   27 ar   
    25   22   23 1    
    26   22   24 ar   
    27   24   25 ar   
    28   25   26 ar   
    29   26   27 ar   
@<TRIPOS>SUBSTRUCTURE
     1 SAM301      1 GROUP   
@<TRIPOS>SET

