#    Name: 6ps2_2_CLR
#    Modification time : Fri May 22 19:34:33 2020

@<TRIPOS>MOLECULE
6ps2_2_CLR
   28    31     1     0     0
SMALL
NO_CHARGES


@<TRIPOS>ATOM
      1 C1        -11.2680    9.9730   30.3000 C.3       1 CLR1202     0.0000 
      2 C2        -11.0950    9.8800   28.7720 C.3       1 CLR1202     0.0000 
      3 C3         -9.6400    9.7240   28.3220 C.3       1 CLR1202     0.0000 
      4 C4         -9.0340    8.5020   29.0000 C.3       1 CLR1202     0.0000 
      5 C5         -9.1330    8.7040   30.4980 C.2       1 CLR1202     0.0000 
      6 C6         -7.9690    8.6910   31.1810 C.2       1 CLR1202     0.0000 
      7 C7         -7.8440    9.2480   32.5820 C.3       1 CLR1202     0.0000 
      8 C8         -9.1180    8.9540   33.3790 C.3       1 CLR1202     0.0000 
      9 C9        -10.3110    9.5470   32.5920 C.3       1 CLR1202     0.0000 
     10 C10       -10.5010    8.9430   31.1660 C.3       1 CLR1202     0.0000 
     11 C11       -11.6070    9.5290   33.4500 C.3       1 CLR1202     0.0000 
     12 C12       -11.4510   10.0580   34.8910 C.3       1 CLR1202     0.0000 
     13 C13       -10.3210    9.3730   35.6790 C.3       1 CLR1202     0.0000 
     14 C14        -9.0770    9.5470   34.7950 C.3       1 CLR1202     0.0000 
     15 C15        -7.9170    9.1680   35.7000 C.3       1 CLR1202     0.0000 
     16 C16        -8.3470    9.7500   37.0460 C.3       1 CLR1202     0.0000 
     17 C17        -9.8230   10.1690   36.9220 C.3       1 CLR1202     0.0000 
     18 C18       -10.7070    7.9020   35.9900 C.3       1 CLR1202     0.0000 
     19 C19       -11.2880    7.6190   31.2070 C.3       1 CLR1202     0.0000 
     20 C20       -10.5900   10.1110   38.2720 C.3       1 CLR1202     0.0000 
     21 C21       -12.0540   10.5610   38.2120 C.3       1 CLR1202     0.0000 
     22 C22        -9.9120   10.9790   39.3410 C.3       1 CLR1202     0.0000 
     23 C23        -9.7370   10.2540   40.6750 C.3       1 CLR1202     0.0000 
     24 C24       -10.1780   11.1590   41.8190 C.3       1 CLR1202     0.0000 
     25 C25        -9.8570   10.5500   43.1780 C.3       1 CLR1202     0.0000 
     26 C26        -9.0360   11.5110   44.0380 C.3       1 CLR1202     0.0000 
     27 C27       -11.1380   10.1230   43.8850 C.3       1 CLR1202     0.0000 
     28 O1         -9.5890    9.5540   26.9010 O.3       1 CLR1202     0.0000 
@<TRIPOS>BOND
     1    1    2 1    
     2    1   10 1    
     3    2    3 1    
     4    3    4 1    
     5    3   28 1    
     6    4    5 1    
     7    5    6 2    
     8    5   10 1    
     9    6    7 1    
    10    7    8 1    
    11    8    9 1    
    12    8   14 1    
    13    9   10 1    
    14    9   11 1    
    15   10   19 1    
    16   11   12 1    
    17   12   13 1    
    18   13   14 1    
    19   13   17 1    
    20   13   18 1    
    21   14   15 1    
    22   15   16 1    
    23   16   17 1    
    24   17   20 1    
    25   20   21 1    
    26   20   22 1    
    27   22   23 1    
    28   23   24 1    
    29   24   25 1    
    30   25   26 1    
    31   25   27 1    
@<TRIPOS>SUBSTRUCTURE
     1 CLR1202     1 GROUP   
@<TRIPOS>SET

