#    Name: 6ps2_1_JTZ
#    Modification time : Fri May 22 19:34:28 2020

@<TRIPOS>MOLECULE
6ps2_1_JTZ
   18    18     1     0     0
SMALL
NO_CHARGES


@<TRIPOS>ATOM
      1 C1          2.7780    8.4290   53.5200 C.3       1 JTZ1201     0.0000 
      2 N1          2.5980    7.0820   51.5260 N.4       1 JTZ1201     0.0000 
      3 O1          3.5140    6.6900   48.9030 O.3       1 JTZ1201     0.0000 
      4 C2          2.1520    7.1490   52.9640 C.3       1 JTZ1201     0.0000 
      5 O2          2.5870    3.2690   49.4120 O.3       1 JTZ1201     0.0000 
      6 C3          0.6150    7.1510   53.0420 C.3       1 JTZ1201     0.0000 
      7 C4          2.1040    5.9130   50.7120 C.3       1 JTZ1201     0.0000 
      8 C5          3.1360    5.5370   49.6450 C.3       1 JTZ1201     0.0000 
      9 C6          2.4930    4.5160   48.7200 C.3       1 JTZ1201     0.0000 
     10 C7          1.7110    2.2070   49.1170 C.ar      1 JTZ1201     0.0000 
     11 C8          1.1230    1.9470   47.8480 C.ar      1 JTZ1201     0.0000 
     12 C9          0.3480    0.7990   47.6580 C.ar      1 JTZ1201     0.0000 
     13 C10         0.1100   -0.0750   48.7240 C.ar      1 JTZ1201     0.0000 
     14 C11         0.6800    0.1770   49.9840 C.ar      1 JTZ1201     0.0000 
     15 C12         1.5070    1.3020   50.2000 C.ar      1 JTZ1201     0.0000 
     16 C13         2.0600    1.5790   51.5890 C.3       1 JTZ1201     0.0000 
     17 C14         3.0620    0.6050   52.1180 C.2       1 JTZ1201     0.0000 
     18 C15         2.7380   -0.3560   52.9910 C.2       1 JTZ1201     0.0000 
@<TRIPOS>BOND
     1    1    4 1    
     2    2    4 1    
     3    2    7 1    
     4    3    8 1    
     5    4    6 1    
     6    5    9 1    
     7    5   10 1    
     8    7    8 1    
     9    8    9 1    
    10   10   11 ar   
    11   10   15 ar   
    12   11   12 ar   
    13   12   13 ar   
    14   13   14 ar   
    15   14   15 ar   
    16   15   16 1    
    17   16   17 1    
    18   17   18 2    
@<TRIPOS>SUBSTRUCTURE
     1 JTZ1201     1 GROUP   
@<TRIPOS>SET

