#    Name: 6ps2_1_JTZ_CAVITY_N1_4
#    Modification time : Fri May 22 19:34:29 2020

@<TRIPOS>MOLECULE
6ps2_1_JTZ_CAVITY_N1_4
   70     0     6     0     0
SMALL
NO_CHARGES


@<TRIPOS>ATOM
      1 OG          1.9400    0.5800   50.9600 O.3       1 SER1        0.0000 
      2 OG          0.5500    1.1000   51.2100 O.3       1 SER1        0.0000 
      3 OG          1.5000   -0.8000   51.3500 O.3       1 SER1        0.0000 
      4 OG          1.8600   -0.5100   52.7800 O.3       1 SER1        0.0000 
      5 OG          4.3000   10.2400   53.1200 O.3       1 SER1        0.0000 
      6 N           2.2500    5.5200   51.4500 N.am      2 ALA2        0.0000 
      7 O           3.6900    0.3600   52.1400 O.2       2 ALA2        0.0000 
      8 N           3.0500    7.1900   52.4800 N.am      2 ALA2        0.0000 
      9 N           3.8600    8.8600   53.5200 N.am      2 ALA2        0.0000 
     10 N           3.4200    7.4800   53.9100 N.am      2 ALA2        0.0000 
     11 N           5.6100    8.6300   54.6900 N.am      2 ALA2        0.0000 
     12 N           4.2300    9.1500   54.9400 N.am      2 ALA2        0.0000 
     13 N           3.2100    9.9600   56.6200 N.am      2 ALA2        0.0000 
     14 O           4.1500    8.0600   56.7600 O.2       2 ALA2        0.0000 
     15 O           2.7700    8.5800   57.0100 O.2       2 ALA2        0.0000 
     16 NZ          1.5100    4.9400   48.6000 N.4       3 LYS4        0.0000 
     17 NZ          1.8800    5.2300   50.0300 N.4       3 LYS4        0.0000 
     18 NZ          2.6900    6.9000   51.0600 N.4       3 LYS4        0.0000 
     19 NZ          0.8600    6.0400   51.7000 N.4       3 LYS4        0.0000 
     20 NZ          1.6700    7.7100   52.7300 N.4       3 LYS4        0.0000 
     21 NZ          0.2800    8.2200   52.9900 N.4       3 LYS4        0.0000 
     22 CZ          2.0900    2.7600   47.3200 C.ar      4 PHE5        0.0000 
     23 CZ          1.6500    1.3800   47.7200 C.ar      4 PHE5        0.0000 
     24 CZ          1.2100    0.0000   48.1100 C.ar      4 PHE5        0.0000 
     25 CZ          2.4600    3.0500   48.7500 C.ar      4 PHE5        0.0000 
     26 CZ          2.0200    1.6700   49.1400 C.ar      4 PHE5        0.0000 
     27 CZ          1.5700    0.2900   49.5400 C.ar      4 PHE5        0.0000 
     28 CZ          3.2700    4.7200   49.7800 C.ar      4 PHE5        0.0000 
     29 CZ          2.8200    3.3400   50.1700 C.ar      4 PHE5        0.0000 
     30 CZ          3.7700    1.4400   50.3200 C.ar      4 PHE5        0.0000 
     31 CZ          2.3800    1.9600   50.5700 C.ar      4 PHE5        0.0000 
     32 CZ          3.3300    0.0700   50.7100 C.ar      4 PHE5        0.0000 
     33 CZ          3.6300    5.0100   51.2000 C.ar      4 PHE5        0.0000 
     34 CZ          3.1900    3.6300   51.6000 C.ar      4 PHE5        0.0000 
     35 CZ          1.8000    4.1400   51.8500 C.ar      4 PHE5        0.0000 
     36 CZ          0.4200    4.6600   52.1000 C.ar      4 PHE5        0.0000 
     37 CZ          4.1300    1.7300   51.7400 C.ar      4 PHE5        0.0000 
     38 CZ          2.7500    2.2500   51.9900 C.ar      4 PHE5        0.0000 
     39 CZ          2.3100    0.8700   52.3900 C.ar      4 PHE5        0.0000 
     40 CZ          0.9200    1.3900   52.6400 C.ar      4 PHE5        0.0000 
     41 CZ          0.4800    0.0100   53.0300 C.ar      4 PHE5        0.0000 
     42 CZ          4.0000    5.3000   52.6300 C.ar      4 PHE5        0.0000 
     43 CZ          2.6100    5.8100   52.8800 C.ar      4 PHE5        0.0000 
     44 CZ          1.2300    6.3300   53.1300 C.ar      4 PHE5        0.0000 
     45 CZ          2.6700    1.1600   53.8100 C.ar      4 PHE5        0.0000 
     46 CZ          2.4800    9.3800   53.7700 C.ar      4 PHE5        0.0000 
     47 CZ          0.6500    8.5100   54.4100 C.ar      4 PHE5        0.0000 
     48 CZ          2.9800    6.1000   54.3000 C.ar      4 PHE5        0.0000 
     49 CZ          1.5900    6.6200   54.5500 C.ar      4 PHE5        0.0000 
     50 CZ          0.2100    7.1400   54.8100 C.ar      4 PHE5        0.0000 
     51 CZ          4.6700   10.5300   54.5500 C.ar      4 PHE5        0.0000 
     52 CZ          2.8400    9.6700   55.1900 C.ar      4 PHE5        0.0000 
     53 CZ          1.0100    8.8000   55.8400 C.ar      4 PHE5        0.0000 
     54 CA          0.7100    3.2700   47.5700 C.3       5 GLY6        0.0000 
     55 CA          0.2600    1.8900   47.9700 C.3       5 GLY6        0.0000 
     56 CA         -0.1800    0.5200   48.3600 C.3       5 GLY6        0.0000 
     57 CA          2.9000    4.4300   48.3500 C.3       5 GLY6        0.0000 
     58 CA          1.0700    3.5600   49.0000 C.3       5 GLY6        0.0000 
     59 CA          0.6300    2.1900   49.3900 C.3       5 GLY6        0.0000 
     60 CA          0.1900    0.8100   49.7900 C.3       5 GLY6        0.0000 
     61 CA          0.4900    5.7500   50.2800 C.3       5 GLY6        0.0000 
     62 CA          1.4400    3.8500   50.4200 C.3       5 GLY6        0.0000 
     63 CA          1.0000    2.4800   50.8200 C.3       5 GLY6        0.0000 
     64 CA         -0.1600    6.8500   53.3800 C.3       5 GLY6        0.0000 
     65 CA          2.2300   -0.2200   54.2100 C.3       5 GLY6        0.0000 
     66 CA          2.0300    8.0000   54.1600 C.3       5 GLY6        0.0000 
     67 CA          6.0600   10.0100   54.3000 C.3       5 GLY6        0.0000 
     68 CA          3.7900    7.7700   55.3400 C.3       5 GLY6        0.0000 
     69 CA          2.4000    8.2900   55.5900 C.3       5 GLY6        0.0000 
     70 DU          4.5900    9.4400   56.3700 H         6 CUB7        0.0000 
@<TRIPOS>BOND
@<TRIPOS>SUBSTRUCTURE
     1 SER1        1 GROUP   
     2 ALA2        6 GROUP   
     3 LYS4       16 GROUP   
     4 PHE5       22 GROUP   
     5 GLY6       54 GROUP   
     6 CUB7       70 GROUP   
@<TRIPOS>SET

