#    Name: 5x06_4_ADP
#    Modification time : Fri May 22 19:17:20 2020

@<TRIPOS>MOLECULE
5x06_4_ADP
   27    29     1     0     1
SMALL
NO_CHARGES


@<TRIPOS>ATOM
      1 PB        -70.3540  -86.2540  -19.9810 P.3       1 ADP1001     0.0000 
      2 O1B       -70.5070  -86.0200  -21.4640 O.co2     1 ADP1001     0.0000 
      3 O2B       -69.6550  -85.1410  -19.2400 O.co2     1 ADP1001     0.0000 
      4 O3B       -71.5960  -86.7640  -19.2910 O.co2     1 ADP1001     0.0000 
      5 PA        -69.7920  -88.9500  -20.3240 P.3       1 ADP1001     0.0000 
      6 O1A       -70.3740  -88.8210  -21.7080 O.co2     1 ADP1001     0.0000 
      7 O2A       -70.5900  -89.5690  -19.2010 O.co2     1 ADP1001     0.0000 
      8 O3A       -69.3210  -87.4820  -19.8740 O.3       1 ADP1001     0.0000 
      9 O5'       -68.4060  -89.7430  -20.4800 O.3       1 ADP1001     0.0000 
     10 C5'       -67.9330  -89.9630  -21.8020 C.3       1 ADP1001     0.0000 
     11 C4'       -68.0690  -91.4260  -22.1900 C.3       1 ADP1001     0.0000 
     12 O4'       -68.5610  -91.4720  -23.5300 O.3       1 ADP1001     0.0000 
     13 C3'       -66.7240  -92.1260  -22.1570 C.3       1 ADP1001     0.0000 
     14 O3'       -66.8530  -93.4030  -21.5270 O.3       1 ADP1001     0.0000 
     15 C2'       -66.3380  -92.3130  -23.6070 C.3       1 ADP1001     0.0000 
     16 O2'       -65.9830  -93.6770  -23.8400 O.3       1 ADP1001     0.0000 
     17 C1'       -67.5590  -91.9430  -24.4330 C.3       1 ADP1001     0.0000 
     18 N9        -67.2070  -90.8480  -25.3720 N.pl3     1 ADP1001     0.0000 
     19 C8        -67.7990  -89.6390  -25.4140 C.2       1 ADP1001     0.0000 
     20 N7        -67.2580  -88.8600  -26.3850 N.2       1 ADP1001     0.0000 
     21 C5        -66.2940  -89.5780  -26.9880 C.ar      1 ADP1001     0.0000 
     22 C6        -65.3310  -89.3530  -28.0910 C.ar      1 ADP1001     0.0000 
     23 N6        -65.2940  -88.1750  -28.7620 N.pl3     1 ADP1001     0.0000 
     24 N1        -64.4940  -90.3640  -28.4100 N.ar      1 ADP1001     0.0000 
     25 C2        -64.5240  -91.5390  -27.7530 C.ar      1 ADP1001     0.0000 
     26 N3        -65.3680  -91.8110  -26.7420 N.ar      1 ADP1001     0.0000 
     27 C4        -66.2660  -90.8890  -26.3200 C.ar      1 ADP1001     0.0000 
@<TRIPOS>BOND
     1    1    2 ar   
     2    1    3 ar   
     3    1    4 ar   
     4    1    8 1    
     5    5    6 ar   
     6    5    7 ar   
     7    5    8 1    
     8    5    9 1    
     9    9   10 1    
    10   10   11 1    
    11   11   12 1    
    12   11   13 1    
    13   12   17 1    
    14   13   14 1    
    15   13   15 1    
    16   15   16 1    
    17   15   17 1    
    18   17   18 1    
    19   18   19 1    
    20   18   27 1    
    21   19   20 2    
    22   20   21 1    
    23   21   22 ar   
    24   21   27 ar   
    25   22   23 1    
    26   22   24 ar   
    27   24   25 ar   
    28   25   26 ar   
    29   26   27 ar   
@<TRIPOS>SUBSTRUCTURE
     1 ADP1001     1 GROUP   
@<TRIPOS>SET
ATOM$ORANGE STATIC     ATOMS   COLORGROUP SYSTEM 
20 10 10 11 11 13 13 15 15 17 17 19 19 21 21 22 22 25 \
25 27 27 

