#    Name: 5x06_2_ADP
#    Modification time : Fri May 22 19:16:57 2020

@<TRIPOS>MOLECULE
5x06_2_ADP
   27    29     1     0     1
SMALL
NO_CHARGES


@<TRIPOS>ATOM
      1 PB        -46.8800  -51.8730  -33.5670 P.3       1 ADP1001     0.0000 
      2 O1B       -45.4920  -51.2860  -33.4800 O.co2     1 ADP1001     0.0000 
      3 O2B       -46.9450  -53.3420  -33.2340 O.co2     1 ADP1001     0.0000 
      4 O3B       -47.9450  -51.0160  -32.9240 O.co2     1 ADP1001     0.0000 
      5 PA        -46.9740  -50.5350  -36.0210 P.3       1 ADP1001     0.0000 
      6 O1A       -45.4860  -50.2780  -36.0290 O.co2     1 ADP1001     0.0000 
      7 O2A       -47.9320  -49.4550  -35.5790 O.co2     1 ADP1001     0.0000 
      8 O3A       -47.2450  -51.8480  -35.1340 O.3       1 ADP1001     0.0000 
      9 O5'       -47.3850  -51.0200  -37.4980 O.3       1 ADP1001     0.0000 
     10 C5'       -46.5990  -50.5660  -38.5960 C.3       1 ADP1001     0.0000 
     11 C4'       -47.4060  -50.5850  -39.8850 C.3       1 ADP1001     0.0000 
     12 O4'       -47.2460  -51.8380  -40.5470 O.3       1 ADP1001     0.0000 
     13 C3'       -48.8890  -50.3870  -39.6240 C.3       1 ADP1001     0.0000 
     14 O3'       -49.3100  -49.1200  -40.1350 O.3       1 ADP1001     0.0000 
     15 C2'       -49.5860  -51.4960  -40.3810 C.3       1 ADP1001     0.0000 
     16 O2'       -50.5060  -50.9290  -41.3150 O.3       1 ADP1001     0.0000 
     17 C1'       -48.4890  -52.2460  -41.1170 C.3       1 ADP1001     0.0000 
     18 N9        -48.6590  -53.7070  -40.9400 N.pl3     1 ADP1001     0.0000 
     19 C8        -48.1060  -54.4480  -39.9630 C.2       1 ADP1001     0.0000 
     20 N7        -48.4550  -55.7540  -40.0860 N.2       1 ADP1001     0.0000 
     21 C5        -49.2500  -55.8600  -41.1670 C.ar      1 ADP1001     0.0000 
     22 C6        -49.9680  -56.9530  -41.8610 C.ar      1 ADP1001     0.0000 
     23 N6        -49.9010  -58.2300  -41.4110 N.pl3     1 ADP1001     0.0000 
     24 N1        -50.6860  -56.6340  -42.9610 N.ar      1 ADP1001     0.0000 
     25 C2        -50.7580  -55.3700  -43.4180 C.ar      1 ADP1001     0.0000 
     26 N3        -50.1350  -54.3300  -42.8370 N.ar      1 ADP1001     0.0000 
     27 C4        -49.3800  -54.5070  -41.7280 C.ar      1 ADP1001     0.0000 
@<TRIPOS>BOND
     1    1    2 ar   
     2    1    3 ar   
     3    1    4 ar   
     4    1    8 1    
     5    5    6 ar   
     6    5    7 ar   
     7    5    8 1    
     8    5    9 1    
     9    9   10 1    
    10   10   11 1    
    11   11   12 1    
    12   11   13 1    
    13   12   17 1    
    14   13   14 1    
    15   13   15 1    
    16   15   16 1    
    17   15   17 1    
    18   17   18 1    
    19   18   19 1    
    20   18   27 1    
    21   19   20 2    
    22   20   21 1    
    23   21   22 ar   
    24   21   27 ar   
    25   22   23 1    
    26   22   24 ar   
    27   24   25 ar   
    28   25   26 ar   
    29   26   27 ar   
@<TRIPOS>SUBSTRUCTURE
     1 ADP1001     1 GROUP   
@<TRIPOS>SET
ATOM$ORANGE STATIC     ATOMS   COLORGROUP SYSTEM 
20 10 10 11 11 13 13 15 15 17 17 19 19 21 21 22 22 25 \
25 27 27 

