#    Name: 5x06_3_ADP
#    Modification time : Fri May 22 19:17:08 2020

@<TRIPOS>MOLECULE
5x06_3_ADP
   27    29     1     0     1
SMALL
NO_CHARGES


@<TRIPOS>ATOM
      1 PB        -55.2730  -48.6050   51.3730 P.3       1 ADP1001     0.0000 
      2 O1B       -55.6510  -49.6900   50.3940 O.co2     1 ADP1001     0.0000 
      3 O2B       -55.8240  -47.2380   51.0530 O.co2     1 ADP1001     0.0000 
      4 O3B       -53.8140  -48.6030   51.7590 O.co2     1 ADP1001     0.0000 
      5 PA        -55.6770  -50.3020   53.5740 P.3       1 ADP1001     0.0000 
      6 O1A       -56.1570  -51.5250   52.8290 O.co2     1 ADP1001     0.0000 
      7 O2A       -54.2300  -50.1720   53.9820 O.co2     1 ADP1001     0.0000 
      8 O3A       -56.0620  -48.9970   52.7190 O.3       1 ADP1001     0.0000 
      9 O5'       -56.5850  -50.0830   54.8840 O.3       1 ADP1001     0.0000 
     10 C5'       -55.9920  -49.5350   56.0600 C.3       1 ADP1001     0.0000 
     11 C4'       -56.9340  -49.6620   57.2500 C.3       1 ADP1001     0.0000 
     12 O4'       -56.8650  -48.4800   58.0540 O.3       1 ADP1001     0.0000 
     13 C3'       -58.3830  -49.8300   56.8280 C.3       1 ADP1001     0.0000 
     14 O3'       -58.7970  -51.1840   57.0280 O.3       1 ADP1001     0.0000 
     15 C2'       -59.1790  -48.9060   57.7260 C.3       1 ADP1001     0.0000 
     16 O2'       -59.9810  -49.6750   58.6270 O.3       1 ADP1001     0.0000 
     17 C1'       -58.1630  -48.0920   58.5110 C.3       1 ADP1001     0.0000 
     18 N9        -58.3820  -46.6510   58.2290 N.pl3     1 ADP1001     0.0000 
     19 C8        -57.5680  -45.8650   57.5000 C.2       1 ADP1001     0.0000 
     20 N7        -58.0450  -44.5960   57.4270 N.2       1 ADP1001     0.0000 
     21 C5        -59.1940  -44.5560   58.1250 C.ar      1 ADP1001     0.0000 
     22 C6        -60.2080  -43.5250   58.4520 C.ar      1 ADP1001     0.0000 
     23 N6        -60.0830  -42.2510   58.0050 N.pl3     1 ADP1001     0.0000 
     24 N1        -61.2610  -43.8990   59.2110 N.ar      1 ADP1001     0.0000 
     25 C2        -61.3960  -45.1600   59.6590 C.ar      1 ADP1001     0.0000 
     26 N3        -60.5170  -46.1450   59.4010 N.ar      1 ADP1001     0.0000 
     27 C4        -59.4120  -45.9110   58.6530 C.ar      1 ADP1001     0.0000 
@<TRIPOS>BOND
     1    1    2 ar   
     2    1    3 ar   
     3    1    4 ar   
     4    1    8 1    
     5    5    6 ar   
     6    5    7 ar   
     7    5    8 1    
     8    5    9 1    
     9    9   10 1    
    10   10   11 1    
    11   11   12 1    
    12   11   13 1    
    13   12   17 1    
    14   13   14 1    
    15   13   15 1    
    16   15   16 1    
    17   15   17 1    
    18   17   18 1    
    19   18   19 1    
    20   18   27 1    
    21   19   20 2    
    22   20   21 1    
    23   21   22 ar   
    24   21   27 ar   
    25   22   23 1    
    26   22   24 ar   
    27   24   25 ar   
    28   25   26 ar   
    29   26   27 ar   
@<TRIPOS>SUBSTRUCTURE
     1 ADP1001     1 GROUP   
@<TRIPOS>SET
ATOM$ORANGE STATIC     ATOMS   COLORGROUP SYSTEM 
20 10 10 11 11 13 13 15 15 17 17 19 19 21 21 22 22 25 \
25 27 27 

