#    Name: 5x06_1_ADP
#    Modification time : Fri May 22 19:16:46 2020

@<TRIPOS>MOLECULE
5x06_1_ADP
   27    29     1     0     1
SMALL
NO_CHARGES


@<TRIPOS>ATOM
      1 PB        -79.5350  -18.1020   31.6400 P.3       1 ADP1001     0.0000 
      2 O1B       -78.7980  -18.4650   30.3730 O.co2     1 ADP1001     0.0000 
      3 O2B       -79.3970  -19.0910   32.7690 O.co2     1 ADP1001     0.0000 
      4 O3B       -80.9510  -17.6360   31.4060 O.co2     1 ADP1001     0.0000 
      5 PA        -79.0750  -15.3410   31.5890 P.3       1 ADP1001     0.0000 
      6 O1A       -78.5610  -15.2670   30.1710 O.co2     1 ADP1001     0.0000 
      7 O2A       -80.5180  -15.0250   31.9060 O.co2     1 ADP1001     0.0000 
      8 O3A       -78.7570  -16.8030   32.1810 O.3       1 ADP1001     0.0000 
      9 O5'       -78.1740  -14.4040   32.5320 O.3       1 ADP1001     0.0000 
     10 C5'       -78.7070  -14.0740   33.8100 C.3       1 ADP1001     0.0000 
     11 C4'       -78.4930  -12.6110   34.1710 C.3       1 ADP1001     0.0000 
     12 O4'       -78.9780  -12.4280   35.5010 O.3       1 ADP1001     0.0000 
     13 C3'       -77.0300  -12.2070   34.1440 C.3       1 ADP1001     0.0000 
     14 O3'       -76.8610  -11.0550   33.3160 O.3       1 ADP1001     0.0000 
     15 C2'       -76.6710  -11.8510   35.5700 C.3       1 ADP1001     0.0000 
     16 O2'       -76.2370  -10.4900   35.6310 O.3       1 ADP1001     0.0000 
     17 C1'       -77.9360  -12.0290   36.3910 C.3       1 ADP1001     0.0000 
     18 N9        -77.7010  -13.1140   37.3740 N.pl3     1 ADP1001     0.0000 
     19 C8        -78.1960  -14.3640   37.2960 C.2       1 ADP1001     0.0000 
     20 N7        -77.7950  -15.1180   38.3510 N.2       1 ADP1001     0.0000 
     21 C5        -77.0230  -14.3390   39.1300 C.ar      1 ADP1001     0.0000 
     22 C6        -76.2770  -14.5090   40.3970 C.ar      1 ADP1001     0.0000 
     23 N6        -76.2810  -15.6930   41.0570 N.pl3     1 ADP1001     0.0000 
     24 N1        -75.5970  -13.4420   40.8710 N.ar      1 ADP1001     0.0000 
     25 C2        -75.5880  -12.2620   40.2240 C.ar      1 ADP1001     0.0000 
     26 N3        -76.2400  -12.0390   39.0700 N.ar      1 ADP1001     0.0000 
     27 C4        -76.9650  -13.0200   38.4830 C.ar      1 ADP1001     0.0000 
@<TRIPOS>BOND
     1    1    2 ar   
     2    1    3 ar   
     3    1    4 ar   
     4    1    8 1    
     5    5    6 ar   
     6    5    7 ar   
     7    5    8 1    
     8    5    9 1    
     9    9   10 1    
    10   10   11 1    
    11   11   12 1    
    12   11   13 1    
    13   12   17 1    
    14   13   14 1    
    15   13   15 1    
    16   15   16 1    
    17   15   17 1    
    18   17   18 1    
    19   18   19 1    
    20   18   27 1    
    21   19   20 2    
    22   20   21 1    
    23   21   22 ar   
    24   21   27 ar   
    25   22   23 1    
    26   22   24 ar   
    27   24   25 ar   
    28   25   26 ar   
    29   26   27 ar   
@<TRIPOS>SUBSTRUCTURE
     1 ADP1001     1 GROUP   
@<TRIPOS>SET
ATOM$ORANGE STATIC     ATOMS   COLORGROUP SYSTEM 
20 10 10 11 11 13 13 15 15 17 17 19 19 21 21 22 22 25 \
25 27 27 

