#    Name: 6ieg_1_ATP
#    Modification time : Fri May 22 19:27:23 2020

@<TRIPOS>MOLECULE
6ieg_1_ATP
   31    33     1     0     1
SMALL
NO_CHARGES


@<TRIPOS>ATOM
      1 PG         88.1220   18.7530  486.4890 P.3       1 ATP1101     0.0000 
      2 O1G        87.1980   18.9700  485.3430 O.co2     1 ATP1101     0.0000 
      3 O2G        89.4930   18.9010  485.9330 O.co2     1 ATP1101     0.0000 
      4 O3G        87.9770   17.4540  487.2240 O.co2     1 ATP1101     0.0000 
      5 PB         86.8590   20.0290  488.8620 P.3       1 ATP1101     0.0000 
      6 O1B        85.4360   20.0370  488.4970 O.co2     1 ATP1101     0.0000 
      7 O2B        87.2570   19.0340  489.8870 O.co2     1 ATP1101     0.0000 
      8 O3B        87.8390   19.9350  487.5870 O.3       1 ATP1101     0.0000 
      9 PA         87.4490   22.7350  488.8570 P.3       1 ATP1101     0.0000 
     10 O1A        86.4040   22.9440  487.9050 O.co2     1 ATP1101     0.0000 
     11 O2A        88.8340   23.0570  488.5110 O.co2     1 ATP1101     0.0000 
     12 O3A        87.1900   21.3900  489.5980 O.3       1 ATP1101     0.0000 
     13 O5'        87.0470   23.7550  489.9140 O.3       1 ATP1101     0.0000 
     14 C5'        87.3290   25.0840  489.5100 C.3       1 ATP1101     0.0000 
     15 C4'        86.2460   25.8560  488.7320 C.3       1 ATP1101     0.0000 
     16 O4'        85.6980   26.9370  489.4650 O.3       1 ATP1101     0.0000 
     17 C3'        86.9490   26.6380  487.6760 C.3       1 ATP1101     0.0000 
     18 O3'        86.0130   27.4950  487.1050 O.3       1 ATP1101     0.0000 
     19 C2'        87.6880   27.6430  488.4510 C.3       1 ATP1101     0.0000 
     20 O2'        87.9400   28.6740  487.5340 O.3       1 ATP1101     0.0000 
     21 C1'        86.5310   28.0620  489.2720 C.3       1 ATP1101     0.0000 
     22 N9         86.9330   28.5600  490.5650 N.pl3     1 ATP1101     0.0000 
     23 C8         88.0830   29.0400  490.9780 C.2       1 ATP1101     0.0000 
     24 N7         87.9980   29.4170  492.2620 N.2       1 ATP1101     0.0000 
     25 C5         86.7430   29.1630  492.6400 C.ar      1 ATP1101     0.0000 
     26 C6         85.9200   29.3070  493.8470 C.ar      1 ATP1101     0.0000 
     27 N6         86.4380   29.8200  494.9690 N.pl3     1 ATP1101     0.0000 
     28 N1         84.6300   28.9140  493.7930 N.ar      1 ATP1101     0.0000 
     29 C2         84.0600   28.4140  492.6920 C.ar      1 ATP1101     0.0000 
     30 N3         84.7530   28.2510  491.5670 N.ar      1 ATP1101     0.0000 
     31 C4         86.0510   28.6090  491.5030 C.ar      1 ATP1101     0.0000 
@<TRIPOS>BOND
     1    1    2 ar   
     2    1    3 ar   
     3    1    4 ar   
     4    1    8 1    
     5    5    6 ar   
     6    5    7 ar   
     7    5    8 1    
     8    5   12 1    
     9    9   10 ar   
    10    9   11 ar   
    11    9   12 1    
    12    9   13 1    
    13   13   14 1    
    14   14   15 1    
    15   15   16 1    
    16   15   17 1    
    17   16   21 1    
    18   17   18 1    
    19   17   19 1    
    20   19   20 1    
    21   19   21 1    
    22   21   22 1    
    23   22   23 1    
    24   22   31 1    
    25   23   24 2    
    26   24   25 1    
    27   25   26 ar   
    28   25   31 ar   
    29   26   27 1    
    30   26   28 ar   
    31   28   29 ar   
    32   29   30 ar   
    33   30   31 ar   
@<TRIPOS>SUBSTRUCTURE
     1 ATP1101     1 GROUP   
@<TRIPOS>SET
ATOM$ORANGE STATIC     ATOMS   COLORGROUP SYSTEM 
20 14 14 15 15 17 17 19 19 21 21 23 23 25 25 26 26 29 \
29 31 31 

