#    Name: 6c1g_5_ADP
#    Modification time : Fri May 22 19:32:24 2020

@<TRIPOS>MOLECULE
6c1g_5_ADP
   27    29     1     0     1
SMALL
NO_CHARGES


@<TRIPOS>ATOM
      1 PB        269.2380  245.8900  195.3610 P.3       1 ADP401      0.0000 
      2 O1B       269.0000  246.7530  194.1480 O.co2     1 ADP401      0.0000 
      3 O2B       269.7300  246.6270  196.5800 O.co2     1 ADP401      0.0000 
      4 O3B       269.9600  244.6010  195.0560 O.co2     1 ADP401      0.0000 
      5 PA        267.2650  243.9230  195.5900 P.3       1 ADP401      0.0000 
      6 O1A       267.2570  243.5360  194.1330 O.co2     1 ADP401      0.0000 
      7 O2A       267.9940  243.0940  196.6130 O.co2     1 ADP401      0.0000 
      8 O3A       267.7450  245.4480  195.7410 O.3       1 ADP401      0.0000 
      9 O5'       265.7520  244.0750  196.0680 O.3       1 ADP401      0.0000 
     10 C5'       265.3600  243.4940  197.2970 C.3       1 ADP401      0.0000 
     11 C4'       264.3480  244.4460  197.9070 C.3       1 ADP401      0.0000 
     12 O4'       263.0450  243.8910  197.7660 O.3       1 ADP401      0.0000 
     13 C3'       264.6040  244.6780  199.3820 C.3       1 ADP401      0.0000 
     14 O3'       265.0270  246.0220  199.6050 O.3       1 ADP401      0.0000 
     15 C2'       263.2760  244.4620  200.0610 C.3       1 ADP401      0.0000 
     16 O2'       262.7940  245.7120  200.5530 O.3       1 ADP401      0.0000 
     17 C1'       262.3390  243.9230  199.0010 C.3       1 ADP401      0.0000 
     18 N9        261.9850  242.5290  199.3330 N.pl3     1 ADP401      0.0000 
     19 C8        262.8390  241.5930  199.7800 C.2       1 ADP401      0.0000 
     20 N7        262.2030  240.4150  199.9850 N.2       1 ADP401      0.0000 
     21 C5        260.9150  240.5960  199.6600 C.ar      1 ADP401      0.0000 
     22 C6        259.7010  239.7620  199.6490 C.ar      1 ADP401      0.0000 
     23 N6        259.7580  238.4650  200.0340 N.pl3     1 ADP401      0.0000 
     24 N1        258.5490  240.3360  199.2420 N.ar      1 ADP401      0.0000 
     25 C2        258.4930  241.6230  198.8600 C.ar      1 ADP401      0.0000 
     26 N3        259.5570  242.4400  198.8490 N.ar      1 ADP401      0.0000 
     27 C4        260.7720  241.9920  199.2360 C.ar      1 ADP401      0.0000 
@<TRIPOS>BOND
     1    1    2 ar   
     2    1    3 ar   
     3    1    4 ar   
     4    1    8 1    
     5    5    6 ar   
     6    5    7 ar   
     7    5    8 1    
     8    5    9 1    
     9    9   10 1    
    10   10   11 1    
    11   11   12 1    
    12   11   13 1    
    13   12   17 1    
    14   13   14 1    
    15   13   15 1    
    16   15   16 1    
    17   15   17 1    
    18   17   18 1    
    19   18   19 1    
    20   18   27 1    
    21   19   20 2    
    22   20   21 1    
    23   21   22 ar   
    24   21   27 ar   
    25   22   23 1    
    26   22   24 ar   
    27   24   25 ar   
    28   25   26 ar   
    29   26   27 ar   
@<TRIPOS>SUBSTRUCTURE
     1 ADP401      1 GROUP   
@<TRIPOS>SET
ATOM$ORANGE STATIC     ATOMS   COLORGROUP SYSTEM 
20 10 10 11 11 13 13 15 15 17 17 19 19 21 21 22 22 25 \
25 27 27 

