#    Name: 6c1g_1_ADP
#    Modification time : Fri May 22 19:31:55 2020

@<TRIPOS>MOLECULE
6c1g_1_ADP
   27    29     1     0     1
SMALL
NO_CHARGES


@<TRIPOS>ATOM
      1 PB        276.6700  258.1100  305.4760 P.3       1 ADP401      0.0000 
      2 O1B       275.8770  258.3740  304.2240 O.co2     1 ADP401      0.0000 
      3 O2B       276.2530  258.9290  306.6710 O.co2     1 ADP401      0.0000 
      4 O3B       278.1550  258.0280  305.2410 O.co2     1 ADP401      0.0000 
      5 PA        277.2670  255.3910  305.8840 P.3       1 ADP401      0.0000 
      6 O1A       277.5910  254.9990  304.4690 O.co2     1 ADP401      0.0000 
      7 O2A       278.3500  255.6720  306.8870 O.co2     1 ADP401      0.0000 
      8 O3A       276.2310  256.6160  305.8540 O.3       1 ADP401      0.0000 
      9 O5'       276.3180  254.2880  306.5330 O.3       1 ADP401      0.0000 
     10 C5'       276.1310  254.3480  307.9370 C.3       1 ADP401      0.0000 
     11 C4'       274.7620  253.7830  308.2480 C.3       1 ADP401      0.0000 
     12 O4'       274.7640  252.3960  307.9430 O.3       1 ADP401      0.0000 
     13 C3'       274.4170  253.9140  309.7120 C.3       1 ADP401      0.0000 
     14 O3'       273.2710  254.7370  309.8160 O.3       1 ADP401      0.0000 
     15 C2'       274.0160  252.5430  310.1840 C.3       1 ADP401      0.0000 
     16 O2'       272.6620  252.5520  310.6330 O.3       1 ADP401      0.0000 
     17 C1'       274.0870  251.6700  308.9620 C.3       1 ADP401      0.0000 
     18 N9        274.8500  250.4650  309.3230 N.pl3     1 ADP401      0.0000 
     19 C8        276.1230  250.3990  309.7430 C.2       1 ADP401      0.0000 
     20 N7        276.4860  249.1170  309.9840 N.2       1 ADP401      0.0000 
     21 C5        275.4210  248.3510  309.7200 C.ar      1 ADP401      0.0000 
     22 C6        275.1130  246.9130  309.7670 C.ar      1 ADP401      0.0000 
     23 N6        276.0350  246.0050  310.1530 N.pl3     1 ADP401      0.0000 
     24 N1        273.8740  246.5430  309.4060 N.ar      1 ADP401      0.0000 
     25 C2        272.9550  247.4400  309.0170 C.ar      1 ADP401      0.0000 
     26 N3        273.1530  248.7560  308.9540 N.ar      1 ADP401      0.0000 
     27 C4        274.3510  249.2510  309.2900 C.ar      1 ADP401      0.0000 
@<TRIPOS>BOND
     1    1    2 ar   
     2    1    3 ar   
     3    1    4 ar   
     4    1    8 1    
     5    5    6 ar   
     6    5    7 ar   
     7    5    8 1    
     8    5    9 1    
     9    9   10 1    
    10   10   11 1    
    11   11   12 1    
    12   11   13 1    
    13   12   17 1    
    14   13   14 1    
    15   13   15 1    
    16   15   16 1    
    17   15   17 1    
    18   17   18 1    
    19   18   19 1    
    20   18   27 1    
    21   19   20 2    
    22   20   21 1    
    23   21   22 ar   
    24   21   27 ar   
    25   22   23 1    
    26   22   24 ar   
    27   24   25 ar   
    28   25   26 ar   
    29   26   27 ar   
@<TRIPOS>SUBSTRUCTURE
     1 ADP401      1 GROUP   
@<TRIPOS>SET
ATOM$ORANGE STATIC     ATOMS   COLORGROUP SYSTEM 
20 10 10 11 11 13 13 15 15 17 17 19 19 21 21 22 22 25 \
25 27 27 

