#    Name: 6c1g_4_ADP
#    Modification time : Fri May 22 19:32:18 2020

@<TRIPOS>MOLECULE
6c1g_4_ADP
   27    29     1     0     1
SMALL
NO_CHARGES


@<TRIPOS>ATOM
      1 PB        247.5840  271.9380  222.9380 P.3       1 ADP401      0.0000 
      2 O1B       248.1110  271.2450  221.7080 O.co2     1 ADP401      0.0000 
      3 O2B       246.9280  271.0430  223.9620 O.co2     1 ADP401      0.0000 
      4 O3B       246.8420  273.2100  222.6250 O.co2     1 ADP401      0.0000 
      5 PA        249.4440  273.9290  223.4630 P.3       1 ADP401      0.0000 
      6 O1A       249.6660  274.1980  221.9990 O.co2     1 ADP401      0.0000 
      7 O2A       248.5530  274.8190  224.2820 O.co2     1 ADP401      0.0000 
      8 O3A       248.9420  272.4180  223.6360 O.3       1 ADP401      0.0000 
      9 O5'       250.8600  273.8220  224.1940 O.3       1 ADP401      0.0000 
     10 C5'       250.9580  274.2080  225.5530 C.3       1 ADP401      0.0000 
     11 C4'       252.2490  273.6150  226.0800 C.3       1 ADP401      0.0000 
     12 O4'       253.3210  274.4330  225.6320 O.3       1 ADP401      0.0000 
     13 C3'       252.2980  273.5940  227.5940 C.3       1 ADP401      0.0000 
     14 O3'       252.1050  272.2650  228.0740 O.3       1 ADP401      0.0000 
     15 C2'       253.6830  274.0770  227.9550 C.3       1 ADP401      0.0000 
     16 O2'       254.5080  272.9640  228.3030 O.3       1 ADP401      0.0000 
     17 C1'       254.2180  274.7270  226.6960 C.3       1 ADP401      0.0000 
     18 N9        254.2600  276.1930  226.8880 N.pl3     1 ADP401      0.0000 
     19 C8        253.2020  276.9870  227.1340 C.2       1 ADP401      0.0000 
     20 N7        253.5770  278.2830  227.2600 N.2       1 ADP401      0.0000 
     21 C5        254.9070  278.3270  227.0890 C.ar      1 ADP401      0.0000 
     22 C6        255.9390  279.3810  227.1020 C.ar      1 ADP401      0.0000 
     23 N6        255.6050  280.6720  227.3210 N.pl3     1 ADP401      0.0000 
     24 N1        257.2160  279.0070  226.8880 N.ar      1 ADP401      0.0000 
     25 C2        257.5480  277.7230  226.6740 C.ar      1 ADP401      0.0000 
     26 N3        256.6670  276.7130  226.6510 N.ar      1 ADP401      0.0000 
     27 C4        255.3540  276.9490  226.8520 C.ar      1 ADP401      0.0000 
@<TRIPOS>BOND
     1    1    2 ar   
     2    1    3 ar   
     3    1    4 ar   
     4    1    8 1    
     5    5    6 ar   
     6    5    7 ar   
     7    5    8 1    
     8    5    9 1    
     9    9   10 1    
    10   10   11 1    
    11   11   12 1    
    12   11   13 1    
    13   12   17 1    
    14   13   14 1    
    15   13   15 1    
    16   15   16 1    
    17   15   17 1    
    18   17   18 1    
    19   18   19 1    
    20   18   27 1    
    21   19   20 2    
    22   20   21 1    
    23   21   22 ar   
    24   21   27 ar   
    25   22   23 1    
    26   22   24 ar   
    27   24   25 ar   
    28   25   26 ar   
    29   26   27 ar   
@<TRIPOS>SUBSTRUCTURE
     1 ADP401      1 GROUP   
@<TRIPOS>SET
ATOM$ORANGE STATIC     ATOMS   COLORGROUP SYSTEM 
20 10 10 11 11 13 13 15 15 17 17 19 19 21 21 22 22 25 \
25 27 27 

