#    Name: 6c1g_6_ADP
#    Modification time : Fri May 22 19:32:37 2020

@<TRIPOS>MOLECULE
6c1g_6_ADP
   27    29     1     0     1
SMALL
NO_CHARGES


@<TRIPOS>ATOM
      1 PB        194.4310  288.5550  253.4220 P.3       1 ADP802      0.0000 
      2 O1B       194.6300  287.7070  252.1920 O.co2     1 ADP802      0.0000 
      3 O2B       194.0220  287.7900  254.6550 O.co2     1 ADP802      0.0000 
      4 O3B       195.4990  289.5970  253.6500 O.co2     1 ADP802      0.0000 
      5 PA        192.3310  290.1940  254.1900 P.3       1 ADP802      0.0000 
      6 O1A       191.4670  289.1890  254.9110 O.co2     1 ADP802      0.0000 
      7 O2A       193.3250  291.0340  254.9520 O.co2     1 ADP802      0.0000 
      8 O3A       193.1300  289.4080  253.0450 O.3       1 ADP802      0.0000 
      9 O5'       191.4140  291.1710  253.2980 O.3       1 ADP802      0.0000 
     10 C5'       191.3600  292.5670  253.5810 C.3       1 ADP802      0.0000 
     11 C4'       190.4470  293.2830  252.5930 C.3       1 ADP802      0.0000 
     12 O4'       189.7760  292.3590  251.7320 O.3       1 ADP802      0.0000 
     13 C3'       189.3900  294.0540  253.3560 C.3       1 ADP802      0.0000 
     14 O3'       189.5040  295.4420  253.0380 O.3       1 ADP802      0.0000 
     15 C2'       188.0600  293.5040  252.8880 C.3       1 ADP802      0.0000 
     16 O2'       187.2060  294.5610  252.4470 O.3       1 ADP802      0.0000 
     17 C1'       188.3650  292.5790  251.7280 C.3       1 ADP802      0.0000 
     18 N9        187.6930  291.2810  251.9540 N.pl3     1 ADP802      0.0000 
     19 C8        188.3370  290.1170  252.1030 C.2       1 ADP802      0.0000 
     20 N7        187.4790  289.0860  252.2890 N.2       1 ADP802      0.0000 
     21 C5        186.2400  289.5970  252.2590 C.ar      1 ADP802      0.0000 
     22 C6        184.8700  289.0570  252.3940 C.ar      1 ADP802      0.0000 
     23 N6        184.6570  287.7370  252.6000 N.pl3     1 ADP802      0.0000 
     24 N1        183.8390  289.9220  252.3030 N.ar      1 ADP802      0.0000 
     25 C2        184.0420  291.2350  252.0980 C.ar      1 ADP802      0.0000 
     26 N3        185.2590  291.7940  251.9650 N.ar      1 ADP802      0.0000 
     27 C4        186.3820  291.0430  252.0330 C.ar      1 ADP802      0.0000 
@<TRIPOS>BOND
     1    1    2 ar   
     2    1    3 ar   
     3    1    4 ar   
     4    1    8 1    
     5    5    6 ar   
     6    5    7 ar   
     7    5    8 1    
     8    5    9 1    
     9    9   10 1    
    10   10   11 1    
    11   11   12 1    
    12   11   13 1    
    13   12   17 1    
    14   13   14 1    
    15   13   15 1    
    16   15   16 1    
    17   15   17 1    
    18   17   18 1    
    19   18   19 1    
    20   18   27 1    
    21   19   20 2    
    22   20   21 1    
    23   21   22 ar   
    24   21   27 ar   
    25   22   23 1    
    26   22   24 ar   
    27   24   25 ar   
    28   25   26 ar   
    29   26   27 ar   
@<TRIPOS>SUBSTRUCTURE
     1 ADP802      1 GROUP   
@<TRIPOS>SET
ATOM$ORANGE STATIC     ATOMS   COLORGROUP SYSTEM 
20 10 10 11 11 13 13 15 15 17 17 19 19 21 21 22 22 25 \
25 27 27 

