#    Name: 6c1g_2_ADP
#    Modification time : Fri May 22 19:32:05 2020

@<TRIPOS>MOLECULE
6c1g_2_ADP
   27    29     1     0     1
SMALL
NO_CHARGES


@<TRIPOS>ATOM
      1 PB        243.1170  265.4280  277.7330 P.3       1 ADP401      0.0000 
      2 O1B       243.3520  264.8480  276.3780 O.co2     1 ADP401      0.0000 
      3 O2B       243.2240  264.3730  278.7800 O.co2     1 ADP401      0.0000 
      4 O3B       241.7750  266.1480  277.4390 O.co2     1 ADP401      0.0000 
      5 PA        244.2780  267.8980  278.1360 P.3       1 ADP401      0.0000 
      6 O1A       244.4220  268.4060  276.8100 O.co2     1 ADP401      0.0000 
      7 O2A       243.0970  268.3360  278.9050 O.co2     1 ADP401      0.0000 
      8 O3A       244.3230  266.4340  278.0220 O.3       1 ADP401      0.0000 
      9 O5'       245.5610  268.2270  279.0210 O.3       1 ADP401      0.0000 
     10 C5'       245.5760  268.1950  280.4220 C.3       1 ADP401      0.0000 
     11 C4'       246.9780  268.5570  280.9830 C.3       1 ADP401      0.0000 
     12 O4'       247.5530  269.8220  280.5360 O.3       1 ADP401      0.0000 
     13 C3'       246.7980  268.7220  282.4600 C.3       1 ADP401      0.0000 
     14 O3'       246.7130  267.5070  283.1290 O.3       1 ADP401      0.0000 
     15 C2'       247.9610  269.5600  282.9170 C.3       1 ADP401      0.0000 
     16 O2'       249.1550  268.8030  283.0360 O.3       1 ADP401      0.0000 
     17 C1'       248.2020  270.4380  281.7040 C.3       1 ADP401      0.0000 
     18 N9        247.6340  271.7440  281.8910 N.pl3     1 ADP401      0.0000 
     19 C8        246.2810  272.0160  281.9510 C.2       1 ADP401      0.0000 
     20 N7        246.0040  273.2640  282.2160 N.2       1 ADP401      0.0000 
     21 C5        247.2500  273.9320  282.1830 C.ar      1 ADP401      0.0000 
     22 C6        247.6060  275.2860  282.2960 C.ar      1 ADP401      0.0000 
     23 N6        246.8000  276.3100  282.6690 N.pl3     1 ADP401      0.0000 
     24 N1        248.9310  275.6170  282.0410 N.ar      1 ADP401      0.0000 
     25 C2        249.7850  274.6060  281.9580 C.ar      1 ADP401      0.0000 
     26 N3        249.5720  273.3180  281.9270 N.ar      1 ADP401      0.0000 
     27 C4        248.2460  272.9980  281.9760 C.ar      1 ADP401      0.0000 
@<TRIPOS>BOND
     1    1    2 ar   
     2    1    3 ar   
     3    1    4 ar   
     4    1    8 1    
     5    5    6 ar   
     6    5    7 ar   
     7    5    8 1    
     8    5    9 1    
     9    9   10 1    
    10   10   11 1    
    11   11   12 1    
    12   11   13 1    
    13   12   17 1    
    14   13   14 1    
    15   13   15 1    
    16   15   16 1    
    17   15   17 1    
    18   17   18 1    
    19   18   19 1    
    20   18   27 1    
    21   19   20 2    
    22   20   21 1    
    23   21   22 ar   
    24   21   27 ar   
    25   22   23 1    
    26   22   24 ar   
    27   24   25 ar   
    28   25   26 ar   
    29   26   27 ar   
@<TRIPOS>SUBSTRUCTURE
     1 ADP401      1 GROUP   
@<TRIPOS>SET
ATOM$ORANGE STATIC     ATOMS   COLORGROUP SYSTEM 
20 10 10 11 11 13 13 15 15 17 17 19 19 21 21 22 22 25 \
25 27 27 

