#    Name: 6c1g_3_ADP
#    Modification time : Fri May 22 19:32:12 2020

@<TRIPOS>MOLECULE
6c1g_3_ADP
   27    29     1     0     1
SMALL
NO_CHARGES


@<TRIPOS>ATOM
      1 PB        274.6380  251.1750  250.7270 P.3       1 ADP401      0.0000 
      2 O1B       274.0140  251.5720  249.4140 O.co2     1 ADP401      0.0000 
      3 O2B       274.8030  252.3000  251.7170 O.co2     1 ADP401      0.0000 
      4 O3B       275.8340  250.2740  250.5750 O.co2     1 ADP401      0.0000 
      5 PA        273.4460  248.6840  251.0480 P.3       1 ADP401      0.0000 
      6 O1A       273.3070  248.5080  249.5610 O.co2     1 ADP401      0.0000 
      7 O2A       274.5290  247.9830  251.8110 O.co2     1 ADP401      0.0000 
      8 O3A       273.5050  250.2490  251.3770 O.3       1 ADP401      0.0000 
      9 O5'       272.0520  248.3400  251.7360 O.3       1 ADP401      0.0000 
     10 C5'       272.0020  248.1390  253.1370 C.3       1 ADP401      0.0000 
     11 C4'       270.5560  248.3070  253.5590 C.3       1 ADP401      0.0000 
     12 O4'       269.7990  247.2270  253.0340 O.3       1 ADP401      0.0000 
     13 C3'       270.4060  248.2680  255.0600 C.3       1 ADP401      0.0000 
     14 O3'       270.1340  249.5820  255.5410 O.3       1 ADP401      0.0000 
     15 C2'       269.2090  247.3970  255.3170 C.3       1 ADP401      0.0000 
     16 O2'       268.1120  248.2480  255.6290 O.3       1 ADP401      0.0000 
     17 C1'       268.9100  246.7060  254.0110 C.3       1 ADP401      0.0000 
     18 N9        269.1850  245.2690  254.1930 N.pl3     1 ADP401      0.0000 
     19 C8        270.3980  244.7100  254.3050 C.2       1 ADP401      0.0000 
     20 N7        270.3040  243.3690  254.4670 N.2       1 ADP401      0.0000 
     21 C5        269.0030  243.0610  254.4600 C.ar      1 ADP401      0.0000 
     22 C6        268.2070  241.8290  254.5880 C.ar      1 ADP401      0.0000 
     23 N6        268.7920  240.6230  254.7590 N.pl3     1 ADP401      0.0000 
     24 N1        266.8690  241.9480  254.5270 N.ar      1 ADP401      0.0000 
     25 C2        266.2700  243.1380  254.3590 C.ar      1 ADP401      0.0000 
     26 N3        266.9290  244.2950  254.2400 N.ar      1 ADP401      0.0000 
     27 C4        268.2720  244.3160  254.2830 C.ar      1 ADP401      0.0000 
@<TRIPOS>BOND
     1    1    2 ar   
     2    1    3 ar   
     3    1    4 ar   
     4    1    8 1    
     5    5    6 ar   
     6    5    7 ar   
     7    5    8 1    
     8    5    9 1    
     9    9   10 1    
    10   10   11 1    
    11   11   12 1    
    12   11   13 1    
    13   12   17 1    
    14   13   14 1    
    15   13   15 1    
    16   15   16 1    
    17   15   17 1    
    18   17   18 1    
    19   18   19 1    
    20   18   27 1    
    21   19   20 2    
    22   20   21 1    
    23   21   22 ar   
    24   21   27 ar   
    25   22   23 1    
    26   22   24 ar   
    27   24   25 ar   
    28   25   26 ar   
    29   26   27 ar   
@<TRIPOS>SUBSTRUCTURE
     1 ADP401      1 GROUP   
@<TRIPOS>SET
ATOM$ORANGE STATIC     ATOMS   COLORGROUP SYSTEM 
20 10 10 11 11 13 13 15 15 17 17 19 19 21 21 22 22 25 \
25 27 27 

