#    Name: 6q45_2_ATP
#    Modification time : Fri May 22 19:30:34 2020

@<TRIPOS>MOLECULE
6q45_2_ATP
   31    33     1     0     1
SMALL
NO_CHARGES


@<TRIPOS>ATOM
      1 PG         11.3280   -8.7710   81.3040 P.3       1 ATP600      0.0000 
      2 O1G        11.2650   -7.6580   80.2830 O.co2     1 ATP600      0.0000 
      3 O2G        10.5770  -10.0220   80.9030 O.co2     1 ATP600      0.0000 
      4 O3G        12.7170   -9.0380   81.8370 O.co2     1 ATP600      0.0000 
      5 PB         11.0160   -7.0370   83.5330 P.3       1 ATP600      0.0000 
      6 O1B        11.1130   -5.7750   82.7210 O.co2     1 ATP600      0.0000 
      7 O2B        12.2000   -7.5320   84.3210 O.co2     1 ATP600      0.0000 
      8 O3B        10.4860   -8.2150   82.5660 O.3       1 ATP600      0.0000 
      9 PA          8.4650   -6.1530   84.0820 P.3       1 ATP600      0.0000 
     10 O1A         8.1840   -6.6420   82.6820 O.co2     1 ATP600      0.0000 
     11 O2A         8.6160   -4.6740   84.3460 O.co2     1 ATP600      0.0000 
     12 O3A         9.8170   -6.8570   84.5830 O.3       1 ATP600      0.0000 
     13 O5'         7.3260   -6.7590   85.0510 O.3       1 ATP600      0.0000 
     14 C5'         6.8720   -8.1050   84.9040 C.3       1 ATP600      0.0000 
     15 C4'         5.4380   -8.2400   85.4000 C.3       1 ATP600      0.0000 
     16 O4'         5.3510   -7.8410   86.7690 O.3       1 ATP600      0.0000 
     17 C3'         4.4730   -7.3750   84.6010 C.3       1 ATP600      0.0000 
     18 O3'         3.4960   -8.1840   83.9390 O.3       1 ATP600      0.0000 
     19 C2'         3.8190   -6.4440   85.6030 C.3       1 ATP600      0.0000 
     20 O2'         2.3890   -6.4490   85.4880 O.3       1 ATP600      0.0000 
     21 C1'         4.2710   -6.9310   86.9750 C.3       1 ATP600      0.0000 
     22 N9          4.7240   -5.7830   87.7920 N.pl3     1 ATP600      0.0000 
     23 C8          5.8490   -5.0810   87.5740 C.2       1 ATP600      0.0000 
     24 N7          5.9840   -4.0850   88.4850 N.2       1 ATP600      0.0000 
     25 C5          4.9270   -4.1420   89.3080 C.ar      1 ATP600      0.0000 
     26 C6          4.4600   -3.3740   90.4870 C.ar      1 ATP600      0.0000 
     27 N6          5.1820   -2.3270   90.9650 N.pl3     1 ATP600      0.0000 
     28 N1          3.2960   -3.7650   91.0610 N.ar      1 ATP600      0.0000 
     29 C2          2.5750   -4.8070   90.5890 C.ar      1 ATP600      0.0000 
     30 N3          2.9500   -5.5400   89.5200 N.ar      1 ATP600      0.0000 
     31 C4          4.0940   -5.2640   88.8480 C.ar      1 ATP600      0.0000 
@<TRIPOS>BOND
     1    1    2 ar   
     2    1    3 ar   
     3    1    4 ar   
     4    1    8 1    
     5    5    6 ar   
     6    5    7 ar   
     7    5    8 1    
     8    5   12 1    
     9    9   10 ar   
    10    9   11 ar   
    11    9   12 1    
    12    9   13 1    
    13   13   14 1    
    14   14   15 1    
    15   15   16 1    
    16   15   17 1    
    17   16   21 1    
    18   17   18 1    
    19   17   19 1    
    20   19   20 1    
    21   19   21 1    
    22   21   22 1    
    23   22   23 1    
    24   22   31 1    
    25   23   24 2    
    26   24   25 1    
    27   25   26 ar   
    28   25   31 ar   
    29   26   27 1    
    30   26   28 ar   
    31   28   29 ar   
    32   29   30 ar   
    33   30   31 ar   
@<TRIPOS>SUBSTRUCTURE
     1 ATP600      1 GROUP   
@<TRIPOS>SET
ATOM$ORANGE STATIC     ATOMS   COLORGROUP SYSTEM 
20 14 14 15 15 17 17 19 19 21 21 23 23 25 25 26 26 29 \
29 31 31 

