#    Name: 6q45_9_ADP
#    Modification time : Fri May 22 19:32:43 2020

@<TRIPOS>MOLECULE
6q45_9_ADP
   27    29     1     0     1
SMALL
NO_CHARGES


@<TRIPOS>ATOM
      1 PB         -4.1100   25.5590   20.9280 P.3       1 ADP600      0.0000 
      2 O1B        -4.6040   25.5090   19.5050 O.co2     1 ADP600      0.0000 
      3 O2B        -4.8990   26.4790   21.8180 O.co2     1 ADP600      0.0000 
      4 O3B        -3.8470   24.2030   21.5300 O.co2     1 ADP600      0.0000 
      5 PA         -1.7070   26.6560   21.9980 P.3       1 ADP600      0.0000 
      6 O1A        -1.9270   28.1240   22.2710 O.co2     1 ADP600      0.0000 
      7 O2A        -1.8500   25.6550   23.1150 O.co2     1 ADP600      0.0000 
      8 O3A        -2.6560   26.2360   20.7630 O.3       1 ADP600      0.0000 
      9 O5'        -0.2410   26.4780   21.3600 O.3       1 ADP600      0.0000 
     10 C5'         0.9300   26.6140   22.1560 C.3       1 ADP600      0.0000 
     11 C4'         2.0910   25.9690   21.4140 C.3       1 ADP600      0.0000 
     12 O4'         2.1910   26.5130   20.0950 O.3       1 ADP600      0.0000 
     13 C3'         3.4180   26.2250   22.1050 C.3       1 ADP600      0.0000 
     14 O3'         4.1890   25.0230   22.1650 O.3       1 ADP600      0.0000 
     15 C2'         4.1260   27.2700   21.2670 C.3       1 ADP600      0.0000 
     16 O2'         5.4800   26.8920   20.9960 O.3       1 ADP600      0.0000 
     17 C1'         3.3300   27.3760   19.9720 C.3       1 ADP600      0.0000 
     18 N9          2.9170   28.7900   19.7550 N.pl3     1 ADP600      0.0000 
     19 C8          1.6550   29.2590   19.7620 C.2       1 ADP600      0.0000 
     20 N7          1.6230   30.5990   19.5390 N.2       1 ADP600      0.0000 
     21 C5          2.8950   31.0060   19.3900 C.ar      1 ADP600      0.0000 
     22 C6          3.5830   32.2940   19.1360 C.ar      1 ADP600      0.0000 
     23 N6          2.8820   33.4430   18.9880 N.pl3     1 ADP600      0.0000 
     24 N1          4.9360   32.2790   19.0480 N.ar      1 ADP600      0.0000 
     25 C2          5.6540   31.1420   19.1880 C.ar      1 ADP600      0.0000 
     26 N3          5.0870   29.9410   19.4220 N.ar      1 ADP600      0.0000 
     27 C4          3.7430   29.8110   19.5330 C.ar      1 ADP600      0.0000 
@<TRIPOS>BOND
     1    1    2 ar   
     2    1    3 ar   
     3    1    4 ar   
     4    1    8 1    
     5    5    6 ar   
     6    5    7 ar   
     7    5    8 1    
     8    5    9 1    
     9    9   10 1    
    10   10   11 1    
    11   11   12 1    
    12   11   13 1    
    13   12   17 1    
    14   13   14 1    
    15   13   15 1    
    16   15   16 1    
    17   15   17 1    
    18   17   18 1    
    19   18   19 1    
    20   18   27 1    
    21   19   20 2    
    22   20   21 1    
    23   21   22 ar   
    24   21   27 ar   
    25   22   23 1    
    26   22   24 ar   
    27   24   25 ar   
    28   25   26 ar   
    29   26   27 ar   
@<TRIPOS>SUBSTRUCTURE
     1 ADP600      1 GROUP   
@<TRIPOS>SET
ATOM$ORANGE STATIC     ATOMS   COLORGROUP SYSTEM 
20 10 10 11 11 13 13 15 15 17 17 19 19 21 21 22 22 25 \
25 27 27 

