#    Name: 6q45_7_ATP
#    Modification time : Fri May 22 19:32:09 2020

@<TRIPOS>MOLECULE
6q45_7_ATP
   31    33     1     0     1
SMALL
NO_CHARGES


@<TRIPOS>ATOM
      1 PG        -21.2780  -10.7000  -17.3720 P.3       1 ATP600      0.0000 
      2 O1G       -22.3410  -11.7380  -17.6600 O.co2     1 ATP600      0.0000 
      3 O2G       -21.7250   -9.2680  -17.5480 O.co2     1 ATP600      0.0000 
      4 O3G       -20.5180  -10.9460  -16.0900 O.co2     1 ATP600      0.0000 
      5 PB        -19.0470  -12.0230  -18.4650 P.3       1 ATP600      0.0000 
      6 O1B       -19.6990  -13.3110  -18.0360 O.co2     1 ATP600      0.0000 
      7 O2B       -17.8800  -11.4650  -17.6890 O.co2     1 ATP600      0.0000 
      8 O3B       -20.1910  -10.8930  -18.5490 O.3       1 ATP600      0.0000 
      9 PA        -19.4380  -13.0290  -21.0400 P.3       1 ATP600      0.0000 
     10 O1A       -20.8630  -12.5260  -20.9940 O.co2     1 ATP600      0.0000 
     11 O2A       -19.1440  -14.4900  -20.7930 O.co2     1 ATP600      0.0000 
     12 O3A       -18.5700  -12.1730  -19.9920 O.3       1 ATP600      0.0000 
     13 O5'       -18.7870  -12.6090  -22.4560 O.3       1 ATP600      0.0000 
     14 C5'       -18.7820  -11.2520  -22.9090 C.3       1 ATP600      0.0000 
     15 C4'       -18.5160  -11.1760  -24.4140 C.3       1 ATP600      0.0000 
     16 O4'       -17.1930  -11.6320  -24.7290 O.3       1 ATP600      0.0000 
     17 C3'       -19.4840  -12.0300  -25.2250 C.3       1 ATP600      0.0000 
     18 O3'       -20.1810  -11.2210  -26.1780 O.3       1 ATP600      0.0000 
     19 C2'       -18.6230  -13.0790  -25.9060 C.3       1 ATP600      0.0000 
     20 O2'       -19.0210  -13.3220  -27.2570 O.3       1 ATP600      0.0000 
     21 C1'       -17.2090  -12.5270  -25.8470 C.3       1 ATP600      0.0000 
     22 N9        -16.2110  -13.6170  -25.6850 N.pl3     1 ATP600      0.0000 
     23 C8        -16.0190  -14.3350  -24.5620 C.2       1 ATP600      0.0000 
     24 N7        -15.0320  -15.2540  -24.7330 N.2       1 ATP600      0.0000 
     25 C5        -14.5730  -15.1310  -25.9890 C.ar      1 ATP600      0.0000 
     26 C6        -13.5350  -15.7960  -26.8150 C.ar      1 ATP600      0.0000 
     27 N6        -12.7790  -16.8000  -26.3080 N.pl3     1 ATP600      0.0000 
     28 N1        -13.3730  -15.3650  -28.0890 N.ar      1 ATP600      0.0000 
     29 C2        -14.1200  -14.3650  -28.6060 C.ar      1 ATP600      0.0000 
     30 N3        -15.0790  -13.7220  -27.9040 N.ar      1 ATP600      0.0000 
     31 C4        -15.3530  -14.0490  -26.6160 C.ar      1 ATP600      0.0000 
@<TRIPOS>BOND
     1    1    2 ar   
     2    1    3 ar   
     3    1    4 ar   
     4    1    8 1    
     5    5    6 ar   
     6    5    7 ar   
     7    5    8 1    
     8    5   12 1    
     9    9   10 ar   
    10    9   11 ar   
    11    9   12 1    
    12    9   13 1    
    13   13   14 1    
    14   14   15 1    
    15   15   16 1    
    16   15   17 1    
    17   16   21 1    
    18   17   18 1    
    19   17   19 1    
    20   19   20 1    
    21   19   21 1    
    22   21   22 1    
    23   22   23 1    
    24   22   31 1    
    25   23   24 2    
    26   24   25 1    
    27   25   26 ar   
    28   25   31 ar   
    29   26   27 1    
    30   26   28 ar   
    31   28   29 ar   
    32   29   30 ar   
    33   30   31 ar   
@<TRIPOS>SUBSTRUCTURE
     1 ATP600      1 GROUP   
@<TRIPOS>SET
ATOM$ORANGE STATIC     ATOMS   COLORGROUP SYSTEM 
20 14 14 15 15 17 17 19 19 21 21 23 23 25 25 26 26 29 \
29 31 31 

