#    Name: 6q45_8_ATP
#    Modification time : Fri May 22 19:32:28 2020

@<TRIPOS>MOLECULE
6q45_8_ATP
   31    33     1     0     1
SMALL
NO_CHARGES


@<TRIPOS>ATOM
      1 PG          4.7390   -1.3050   20.5040 P.3       1 ATP600      0.0000 
      2 O1G         4.8680   -2.6090   19.7510 O.co2     1 ATP600      0.0000 
      3 O2G         4.5980   -1.4420   22.0070 O.co2     1 ATP600      0.0000 
      4 O3G         3.7570   -0.3460   19.8710 O.co2     1 ATP600      0.0000 
      5 PB          6.4990    0.9090   20.7070 P.3       1 ATP600      0.0000 
      6 O1B         5.7520    1.8140   19.7590 O.co2     1 ATP600      0.0000 
      7 O2B         6.3290    1.0920   22.1910 O.co2     1 ATP600      0.0000 
      8 O3B         6.1920   -0.6280   20.3190 O.3       1 ATP600      0.0000 
      9 PA          9.1470    0.4150   21.3320 P.3       1 ATP600      0.0000 
     10 O1A         8.6210   -0.9340   21.7710 O.co2     1 ATP600      0.0000 
     11 O2A         9.4800    1.4710   22.3550 O.co2     1 ATP600      0.0000 
     12 O3A         8.0580    1.0700   20.3580 O.3       1 ATP600      0.0000 
     13 O5'        10.4260    0.1890   20.3750 O.3       1 ATP600      0.0000 
     14 C5'        10.3680   -0.7920   19.3400 C.3       1 ATP600      0.0000 
     15 C4'        11.7610   -1.1280   18.8240 C.3       1 ATP600      0.0000 
     16 O4'        12.4490    0.0640   18.4490 O.3       1 ATP600      0.0000 
     17 C3'        12.6060   -1.8330   19.8720 C.3       1 ATP600      0.0000 
     18 O3'        12.8890   -3.1770   19.4650 O.3       1 ATP600      0.0000 
     19 C2'        13.8760   -1.0120   20.0020 C.3       1 ATP600      0.0000 
     20 O2'        15.0410   -1.8270   19.8200 O.3       1 ATP600      0.0000 
     21 C1'        13.7930    0.0670   18.9310 C.3       1 ATP600      0.0000 
     22 N9         14.1330    1.4090   19.4710 N.pl3     1 ATP600      0.0000 
     23 C8         13.2840    2.2370   20.1140 C.2       1 ATP600      0.0000 
     24 N7         13.9050    3.3940   20.4690 N.2       1 ATP600      0.0000 
     25 C5         15.1810    3.3150   20.0510 C.ar      1 ATP600      0.0000 
     26 C6         16.3800    4.1900   20.1050 C.ar      1 ATP600      0.0000 
     27 N6         16.3350    5.4100   20.6970 N.pl3     1 ATP600      0.0000 
     28 N1         17.5200    3.7230   19.5440 N.ar      1 ATP600      0.0000 
     29 C2         17.5860    2.5090   18.9530 C.ar      1 ATP600      0.0000 
     30 N3         16.5330    1.6710   18.8710 N.ar      1 ATP600      0.0000 
     31 C4         15.3260    2.0050   19.3900 C.ar      1 ATP600      0.0000 
@<TRIPOS>BOND
     1    1    2 ar   
     2    1    3 ar   
     3    1    4 ar   
     4    1    8 1    
     5    5    6 ar   
     6    5    7 ar   
     7    5    8 1    
     8    5   12 1    
     9    9   10 ar   
    10    9   11 ar   
    11    9   12 1    
    12    9   13 1    
    13   13   14 1    
    14   14   15 1    
    15   15   16 1    
    16   15   17 1    
    17   16   21 1    
    18   17   18 1    
    19   17   19 1    
    20   19   20 1    
    21   19   21 1    
    22   21   22 1    
    23   22   23 1    
    24   22   31 1    
    25   23   24 2    
    26   24   25 1    
    27   25   26 ar   
    28   25   31 ar   
    29   26   27 1    
    30   26   28 ar   
    31   28   29 ar   
    32   29   30 ar   
    33   30   31 ar   
@<TRIPOS>SUBSTRUCTURE
     1 ATP600      1 GROUP   
@<TRIPOS>SET
ATOM$ORANGE STATIC     ATOMS   COLORGROUP SYSTEM 
20 14 14 15 15 17 17 19 19 21 21 23 23 25 25 26 26 29 \
29 31 31 

