#    Name: 6q45_6_ATP
#    Modification time : Fri May 22 19:31:49 2020

@<TRIPOS>MOLECULE
6q45_6_ATP
   31    33     1     0     1
SMALL
NO_CHARGES


@<TRIPOS>ATOM
      1 PG        -21.2540   33.5160    4.3110 P.3       1 ATP600      0.0000 
      2 O1G       -20.6470   32.1760    3.9700 O.co2     1 ATP600      0.0000 
      3 O2G       -22.7660   33.5430    4.2800 O.co2     1 ATP600      0.0000 
      4 O3G       -20.6340   34.1660    5.5240 O.co2     1 ATP600      0.0000 
      5 PB        -21.1960   34.2410    1.5650 P.3       1 ATP600      0.0000 
      6 O1B       -20.6290   32.9170    1.1090 O.co2     1 ATP600      0.0000 
      7 O2B       -22.6590   34.5200    1.3710 O.co2     1 ATP600      0.0000 
      8 O3B       -20.8030   34.4910    3.1100 O.3       1 ATP600      0.0000 
      9 PA        -20.8240   36.9610    1.0140 P.3       1 ATP600      0.0000 
     10 O1A       -21.8160   37.3020   -0.0680 O.co2     1 ATP600      0.0000 
     11 O2A       -21.1990   37.2000    2.4570 O.co2     1 ATP600      0.0000 
     12 O3A       -20.3920   35.4210    0.8210 O.3       1 ATP600      0.0000 
     13 O5'       -19.4490   37.7380    0.7150 O.3       1 ATP600      0.0000 
     14 C5'       -18.3400   37.5450    1.5870 C.3       1 ATP600      0.0000 
     15 C4'       -17.3200   38.6540    1.3890 C.3       1 ATP600      0.0000 
     16 O4'       -16.9430   38.7020    0.0140 O.3       1 ATP600      0.0000 
     17 C3'       -17.8620   40.0250    1.7790 C.3       1 ATP600      0.0000 
     18 O3'       -17.1930   40.5430    2.9360 O.3       1 ATP600      0.0000 
     19 C2'       -17.6310   40.9060    0.5660 C.3       1 ATP600      0.0000 
     20 O2'       -16.9020   42.0920    0.9050 O.3       1 ATP600      0.0000 
     21 C1'       -16.8520   40.0560   -0.4310 C.3       1 ATP600      0.0000 
     22 N9        -17.4140   40.1900   -1.7980 N.pl3     1 ATP600      0.0000 
     23 C8        -18.4650   39.5050   -2.2850 C.2       1 ATP600      0.0000 
     24 N7        -18.7210   39.8620   -3.5690 N.2       1 ATP600      0.0000 
     25 C5        -17.8200   40.7940   -3.9170 C.ar      1 ATP600      0.0000 
     26 C6        -17.5240   41.5940   -5.1280 C.ar      1 ATP600      0.0000 
     27 N6        -18.2720   41.4570   -6.2500 N.pl3     1 ATP600      0.0000 
     28 N1        -16.4830   42.4610   -5.0720 N.ar      1 ATP600      0.0000 
     29 C2        -15.7270   42.6090   -3.9630 C.ar      1 ATP600      0.0000 
     30 N3        -15.9470   41.9110   -2.8310 N.ar      1 ATP600      0.0000 
     31 C4        -16.9570   41.0080   -2.7470 C.ar      1 ATP600      0.0000 
@<TRIPOS>BOND
     1    1    2 ar   
     2    1    3 ar   
     3    1    4 ar   
     4    1    8 1    
     5    5    6 ar   
     6    5    7 ar   
     7    5    8 1    
     8    5   12 1    
     9    9   10 ar   
    10    9   11 ar   
    11    9   12 1    
    12    9   13 1    
    13   13   14 1    
    14   14   15 1    
    15   15   16 1    
    16   15   17 1    
    17   16   21 1    
    18   17   18 1    
    19   17   19 1    
    20   19   20 1    
    21   19   21 1    
    22   21   22 1    
    23   22   23 1    
    24   22   31 1    
    25   23   24 2    
    26   24   25 1    
    27   25   26 ar   
    28   25   31 ar   
    29   26   27 1    
    30   26   28 ar   
    31   28   29 ar   
    32   29   30 ar   
    33   30   31 ar   
@<TRIPOS>SUBSTRUCTURE
     1 ATP600      1 GROUP   
@<TRIPOS>SET
ATOM$ORANGE STATIC     ATOMS   COLORGROUP SYSTEM 
20 14 14 15 15 17 17 19 19 21 21 23 23 25 25 26 26 29 \
29 31 31 

