#    Name: 6q45_4_ADP
#    Modification time : Fri May 22 19:31:11 2020

@<TRIPOS>MOLECULE
6q45_4_ADP
   27    29     1     0     1
SMALL
NO_CHARGES


@<TRIPOS>ATOM
      1 PB         55.4360  -41.1120   90.0810 P.3       1 ADP600      0.0000 
      2 O1B        56.1340  -42.0420   89.1230 O.co2     1 ADP600      0.0000 
      3 O2B        56.0820  -39.7540   90.2160 O.co2     1 ADP600      0.0000 
      4 O3B        53.9370  -41.0670   89.9160 O.co2     1 ADP600      0.0000 
      5 PA         57.0720  -42.0390   92.1580 P.3       1 ADP600      0.0000 
      6 O1A        58.0380  -40.9930   91.6570 O.co2     1 ADP600      0.0000 
      7 O2A        57.3780  -43.5040   91.9760 O.co2     1 ADP600      0.0000 
      8 O3A        55.6170  -41.7750   91.5320 O.3       1 ADP600      0.0000 
      9 O5'        56.8110  -41.7530   93.7200 O.3       1 ADP600      0.0000 
     10 C5'        57.8990  -41.7750   94.6390 C.3       1 ADP600      0.0000 
     11 C4'        57.5060  -41.1290   95.9640 C.3       1 ADP600      0.0000 
     12 O4'        56.2850  -41.6840   96.4650 O.3       1 ADP600      0.0000 
     13 C3'        58.5810  -41.3720   97.0100 C.3       1 ADP600      0.0000 
     14 O3'        59.1850  -40.1380   97.4110 O.3       1 ADP600      0.0000 
     15 C2'        57.8910  -42.0890   98.1580 C.3       1 ADP600      0.0000 
     16 O2'        57.7860  -41.2600   99.3180 O.3       1 ADP600      0.0000 
     17 C1'        56.5010  -42.4470   97.6560 C.3       1 ADP600      0.0000 
     18 N9         56.3860  -43.9100   97.3890 N.pl3     1 ADP600      0.0000 
     19 C8         56.2310  -44.4980   96.1850 C.2       1 ADP600      0.0000 
     20 N7         56.1520  -45.8490   96.3040 N.2       1 ADP600      0.0000 
     21 C5         56.2630  -46.1480   97.6070 C.ar      1 ADP600      0.0000 
     22 C6         56.2660  -47.3850   98.4300 C.ar      1 ADP600      0.0000 
     23 N6         56.1340  -48.6100   97.8710 N.pl3     1 ADP600      0.0000 
     24 N1         56.4050  -47.2510   99.7710 N.ar      1 ADP600      0.0000 
     25 C2         56.5370  -46.0410  100.3590 C.ar      1 ADP600      0.0000 
     26 N3         56.5420  -44.8810   99.6660 N.ar      1 ADP600      0.0000 
     27 C4         56.4130  -44.8670   98.3170 C.ar      1 ADP600      0.0000 
@<TRIPOS>BOND
     1    1    2 ar   
     2    1    3 ar   
     3    1    4 ar   
     4    1    8 1    
     5    5    6 ar   
     6    5    7 ar   
     7    5    8 1    
     8    5    9 1    
     9    9   10 1    
    10   10   11 1    
    11   11   12 1    
    12   11   13 1    
    13   12   17 1    
    14   13   14 1    
    15   13   15 1    
    16   15   16 1    
    17   15   17 1    
    18   17   18 1    
    19   18   19 1    
    20   18   27 1    
    21   19   20 2    
    22   20   21 1    
    23   21   22 ar   
    24   21   27 ar   
    25   22   23 1    
    26   22   24 ar   
    27   24   25 ar   
    28   25   26 ar   
    29   26   27 ar   
@<TRIPOS>SUBSTRUCTURE
     1 ADP600      1 GROUP   
@<TRIPOS>SET
ATOM$ORANGE STATIC     ATOMS   COLORGROUP SYSTEM 
20 10 10 11 11 13 13 15 15 17 17 19 19 21 21 22 22 25 \
25 27 27 

