#    Name: 6q45_10_ADP
#    Modification time : Fri May 22 19:33:03 2020

@<TRIPOS>MOLECULE
6q45_10_ADP
   27    29     1     0     1
SMALL
NO_CHARGES


@<TRIPOS>ATOM
      1 PB         -2.9560  -17.7500    1.8810 P.3       1 ADP600      0.0000 
      2 O1B        -4.2360  -17.9600    1.1100 O.co2     1 ADP600      0.0000 
      3 O2B        -2.7170  -18.7760    2.9530 O.co2     1 ADP600      0.0000 
      4 O3B        -2.7150  -16.3280    2.3260 O.co2     1 ADP600      0.0000 
      5 PA         -1.3970  -19.4890    0.3570 P.3       1 ADP600      0.0000 
      6 O1A        -2.6750  -20.2190    0.0190 O.co2     1 ADP600      0.0000 
      7 O2A        -0.4820  -20.0310    1.4250 O.co2     1 ADP600      0.0000 
      8 O3A        -1.7910  -17.9940    0.7980 O.3       1 ADP600      0.0000 
      9 O5'        -0.5410  -19.2810   -1.0000 O.3       1 ADP600      0.0000 
     10 C5'        -1.0820  -18.5720   -2.1190 C.3       1 ADP600      0.0000 
     11 C4'        -0.3690  -18.8880   -3.4400 C.3       1 ADP600      0.0000 
     12 O4'         0.8160  -18.0960   -3.5930 O.3       1 ADP600      0.0000 
     13 C3'         0.0530  -20.3460   -3.5990 C.3       1 ADP600      0.0000 
     14 O3'        -0.9000  -21.0860   -4.3700 O.3       1 ADP600      0.0000 
     15 C2'         1.4140  -20.3110   -4.2710 C.3       1 ADP600      0.0000 
     16 O2'         1.3450  -20.6890   -5.6520 O.3       1 ADP600      0.0000 
     17 C1'         1.8990  -18.8770   -4.1120 C.3       1 ADP600      0.0000 
     18 N9          3.0370  -18.8760   -3.1650 N.pl3     1 ADP600      0.0000 
     19 C8          2.9450  -18.6530   -1.8460 C.2       1 ADP600      0.0000 
     20 N7          4.1630  -18.7300   -1.2520 N.2       1 ADP600      0.0000 
     21 C5          5.0600  -19.0230   -2.2100 C.ar      1 ADP600      0.0000 
     22 C6          6.5240  -19.2500   -2.2810 C.ar      1 ADP600      0.0000 
     23 N6          7.3020  -19.1780   -1.1780 N.pl3     1 ADP600      0.0000 
     24 N1          7.0680  -19.5250   -3.4890 N.ar      1 ADP600      0.0000 
     25 C2          6.3170  -19.6000   -4.6080 C.ar      1 ADP600      0.0000 
     26 N3          4.9820  -19.4060   -4.6100 N.ar      1 ADP600      0.0000 
     27 C4          4.3080  -19.1200   -3.4700 C.ar      1 ADP600      0.0000 
@<TRIPOS>BOND
     1    1    2 ar   
     2    1    3 ar   
     3    1    4 ar   
     4    1    8 1    
     5    5    6 ar   
     6    5    7 ar   
     7    5    8 1    
     8    5    9 1    
     9    9   10 1    
    10   10   11 1    
    11   11   12 1    
    12   11   13 1    
    13   12   17 1    
    14   13   14 1    
    15   13   15 1    
    16   15   16 1    
    17   15   17 1    
    18   17   18 1    
    19   18   19 1    
    20   18   27 1    
    21   19   20 2    
    22   20   21 1    
    23   21   22 ar   
    24   21   27 ar   
    25   22   23 1    
    26   22   24 ar   
    27   24   25 ar   
    28   25   26 ar   
    29   26   27 ar   
@<TRIPOS>SUBSTRUCTURE
     1 ADP600      1 GROUP   
@<TRIPOS>SET
ATOM$ORANGE STATIC     ATOMS   COLORGROUP SYSTEM 
20 10 10 11 11 13 13 15 15 17 17 19 19 21 21 22 22 25 \
25 27 27 

