#    Name: 6q45_1_ATP
#    Modification time : Fri May 22 19:30:12 2020

@<TRIPOS>MOLECULE
6q45_1_ATP
   31    33     1     0     1
SMALL
NO_CHARGES


@<TRIPOS>ATOM
      1 PG         35.1230  -51.1480   78.7310 P.3       1 ATP600      0.0000 
      2 O1G        34.9070  -51.5650   77.2960 O.co2     1 ATP600      0.0000 
      3 O2G        36.5160  -51.4230   79.2470 O.co2     1 ATP600      0.0000 
      4 O3G        34.6440  -49.7630   79.0950 O.co2     1 ATP600      0.0000 
      5 PB         32.5540  -52.0430   79.5660 P.3       1 ATP600      0.0000 
      6 O1B        32.0490  -52.3650   78.1880 O.co2     1 ATP600      0.0000 
      7 O2B        32.1500  -50.7490   80.2220 O.co2     1 ATP600      0.0000 
      8 O3B        34.1640  -52.1420   79.5660 O.3       1 ATP600      0.0000 
      9 PA         32.4760  -54.7690   80.3880 P.3       1 ATP600      0.0000 
     10 O1A        31.3630  -55.4050   79.5940 O.co2     1 ATP600      0.0000 
     11 O2A        33.9000  -54.9240   79.9160 O.co2     1 ATP600      0.0000 
     12 O3A        32.1010  -53.2100   80.5860 O.3       1 ATP600      0.0000 
     13 O5'        32.4100  -55.3350   81.8950 O.3       1 ATP600      0.0000 
     14 C5'        33.3850  -54.9860   82.8790 C.3       1 ATP600      0.0000 
     15 C4'        33.7490  -56.1970   83.7370 C.3       1 ATP600      0.0000 
     16 O4'        32.6650  -56.5390   84.6070 O.3       1 ATP600      0.0000 
     17 C3'        34.0680  -57.4310   82.9080 C.3       1 ATP600      0.0000 
     18 O3'        35.3730  -57.9170   83.2360 O.3       1 ATP600      0.0000 
     19 C2'        33.0020  -58.4550   83.2540 C.3       1 ATP600      0.0000 
     20 O2'        33.5970  -59.7310   83.5160 O.3       1 ATP600      0.0000 
     21 C1'        32.2850  -57.9150   84.4870 C.3       1 ATP600      0.0000 
     22 N9         30.7980  -58.0120   84.3910 N.pl3     1 ATP600      0.0000 
     23 C8         30.0390  -57.3460   83.5020 C.2       1 ATP600      0.0000 
     24 N7         28.7200  -57.6230   83.6650 N.2       1 ATP600      0.0000 
     25 C5         28.6150  -58.4820   84.6850 C.ar      1 ATP600      0.0000 
     26 C6         27.4990  -59.1710   85.3680 C.ar      1 ATP600      0.0000 
     27 N6         26.2200  -58.9730   84.9620 N.pl3     1 ATP600      0.0000 
     28 N1         27.8050  -59.9980   86.3970 N.ar      1 ATP600      0.0000 
     29 C2         29.0780  -60.1930   86.7970 C.ar      1 ATP600      0.0000 
     30 N3         30.1360  -59.5900   86.2110 N.ar      1 ATP600      0.0000 
     31 C4         29.9810  -58.7370   85.1680 C.ar      1 ATP600      0.0000 
@<TRIPOS>BOND
     1    1    2 ar   
     2    1    3 ar   
     3    1    4 ar   
     4    1    8 1    
     5    5    6 ar   
     6    5    7 ar   
     7    5    8 1    
     8    5   12 1    
     9    9   10 ar   
    10    9   11 ar   
    11    9   12 1    
    12    9   13 1    
    13   13   14 1    
    14   14   15 1    
    15   15   16 1    
    16   15   17 1    
    17   16   21 1    
    18   17   18 1    
    19   17   19 1    
    20   19   20 1    
    21   19   21 1    
    22   21   22 1    
    23   22   23 1    
    24   22   31 1    
    25   23   24 2    
    26   24   25 1    
    27   25   26 ar   
    28   25   31 ar   
    29   26   27 1    
    30   26   28 ar   
    31   28   29 ar   
    32   29   30 ar   
    33   30   31 ar   
@<TRIPOS>SUBSTRUCTURE
     1 ATP600      1 GROUP   
@<TRIPOS>SET
ATOM$ORANGE STATIC     ATOMS   COLORGROUP SYSTEM 
20 14 14 15 15 17 17 19 19 21 21 23 23 25 25 26 26 29 \
29 31 31 

