#    Name: 6q45_3_ATP
#    Modification time : Fri May 22 19:30:54 2020

@<TRIPOS>MOLECULE
6q45_3_ATP
   31    33     1     0     1
SMALL
NO_CHARGES


@<TRIPOS>ATOM
      1 PG         55.6530  -13.3810   96.7540 P.3       1 ATP600      0.0000 
      2 O1G        56.7890  -13.7320   95.8240 O.co2     1 ATP600      0.0000 
      3 O2G        55.4560  -11.8970   96.9700 O.co2     1 ATP600      0.0000 
      4 O3G        54.3680  -14.1260   96.4730 O.co2     1 ATP600      0.0000 
      5 PB         56.4530  -15.4700   98.4910 P.3       1 ATP600      0.0000 
      6 O1B        57.7910  -15.8030   97.8940 O.co2     1 ATP600      0.0000 
      7 O2B        55.2490  -16.3120   98.1550 O.co2     1 ATP600      0.0000 
      8 O3B        56.1350  -13.9200   98.1950 O.3       1 ATP600      0.0000 
      9 PA         57.7040  -14.6240  100.8360 P.3       1 ATP600      0.0000 
     10 O1A        57.7140  -13.2300  100.2540 O.co2     1 ATP600      0.0000 
     11 O2A        58.9690  -15.4430  100.8540 O.co2     1 ATP600      0.0000 
     12 O3A        56.5880  -15.5060  100.0900 O.3       1 ATP600      0.0000 
     13 O5'        57.1330  -14.5340  102.3390 O.3       1 ATP600      0.0000 
     14 C5'        55.9150  -13.8400  102.6020 C.3       1 ATP600      0.0000 
     15 C4'        55.9130  -13.3010  104.0240 C.3       1 ATP600      0.0000 
     16 O4'        55.9200  -14.3950  104.9420 O.3       1 ATP600      0.0000 
     17 C3'        57.1410  -12.4460  104.3120 C.3       1 ATP600      0.0000 
     18 O3'        56.7500  -11.1420  104.7560 O.3       1 ATP600      0.0000 
     19 C2'        57.9140  -13.2030  105.3780 C.3       1 ATP600      0.0000 
     20 O2'        58.4110  -12.3440  106.4120 O.3       1 ATP600      0.0000 
     21 C1'        56.9230  -14.2090  105.9410 C.3       1 ATP600      0.0000 
     22 N9         57.5750  -15.5020  106.2650 N.pl3     1 ATP600      0.0000 
     23 C8         57.9790  -16.4240  105.3710 C.2       1 ATP600      0.0000 
     24 N7         58.5320  -17.4960  106.0010 N.2       1 ATP600      0.0000 
     25 C5         58.4790  -17.2650  107.3250 C.ar      1 ATP600      0.0000 
     26 C6         58.8860  -17.9890  108.5540 C.ar      1 ATP600      0.0000 
     27 N6         59.4770  -19.2080  108.4810 N.pl3     1 ATP600      0.0000 
     28 N1         58.6470  -17.3890  109.7460 N.ar      1 ATP600      0.0000 
     29 C2         58.0610  -16.1740  109.8350 C.ar      1 ATP600      0.0000 
     30 N3         57.6690  -15.4670  108.7540 N.ar      1 ATP600      0.0000 
     31 C4         57.8450  -15.9470  107.4960 C.ar      1 ATP600      0.0000 
@<TRIPOS>BOND
     1    1    2 ar   
     2    1    3 ar   
     3    1    4 ar   
     4    1    8 1    
     5    5    6 ar   
     6    5    7 ar   
     7    5    8 1    
     8    5   12 1    
     9    9   10 ar   
    10    9   11 ar   
    11    9   12 1    
    12    9   13 1    
    13   13   14 1    
    14   14   15 1    
    15   15   16 1    
    16   15   17 1    
    17   16   21 1    
    18   17   18 1    
    19   17   19 1    
    20   19   20 1    
    21   19   21 1    
    22   21   22 1    
    23   22   23 1    
    24   22   31 1    
    25   23   24 2    
    26   24   25 1    
    27   25   26 ar   
    28   25   31 ar   
    29   26   27 1    
    30   26   28 ar   
    31   28   29 ar   
    32   29   30 ar   
    33   30   31 ar   
@<TRIPOS>SUBSTRUCTURE
     1 ATP600      1 GROUP   
@<TRIPOS>SET
ATOM$ORANGE STATIC     ATOMS   COLORGROUP SYSTEM 
20 14 14 15 15 17 17 19 19 21 21 23 23 25 25 26 26 29 \
29 31 31 

