#    Name: 6q45_5_ADP
#    Modification time : Fri May 22 19:31:31 2020

@<TRIPOS>MOLECULE
6q45_5_ADP
   27    29     1     0     1
SMALL
NO_CHARGES


@<TRIPOS>ATOM
      1 PB         34.4570    1.1570   93.1520 P.3       1 ADP600      0.0000 
      2 O1B        33.4030    1.0250   92.0780 O.co2     1 ADP600      0.0000 
      3 O2B        35.4190    2.2950   92.8970 O.co2     1 ADP600      0.0000 
      4 O3B        35.1160   -0.1450   93.5380 O.co2     1 ADP600      0.0000 
      5 PA         33.2960    3.0250   94.8920 P.3       1 ADP600      0.0000 
      6 O1A        32.6560    3.6980   93.7030 O.co2     1 ADP600      0.0000 
      7 O2A        34.5640    3.5860   95.4860 O.co2     1 ADP600      0.0000 
      8 O3A        33.6330    1.5080   94.4890 O.3       1 ADP600      0.0000 
      9 O5'        32.1720    2.8820   96.0460 O.3       1 ADP600      0.0000 
     10 C5'        31.0950    1.9460   95.9200 C.3       1 ADP600      0.0000 
     11 C4'        29.9020    2.2220   96.8480 C.3       1 ADP600      0.0000 
     12 O4'        29.9630    1.4140   98.0330 O.3       1 ADP600      0.0000 
     13 C3'        29.7600    3.6630   97.3240 C.3       1 ADP600      0.0000 
     14 O3'        28.8840    4.4110   96.4750 O.3       1 ADP600      0.0000 
     15 C2'        29.2130    3.5390   98.7310 C.3       1 ADP600      0.0000 
     16 O2'        27.7830    3.5480   98.7410 O.3       1 ADP600      0.0000 
     17 C1'        29.7230    2.1950   99.2070 C.3       1 ADP600      0.0000 
     18 N9         30.9880    2.4050   99.9470 N.pl3     1 ADP600      0.0000 
     19 C8         32.2130    2.2810   99.4170 C.2       1 ADP600      0.0000 
     20 N7         33.1760    2.5360  100.3360 N.2       1 ADP600      0.0000 
     21 C5         32.5600    2.8400  101.4850 C.ar      1 ADP600      0.0000 
     22 C6         32.9930    3.2080  102.8510 C.ar      1 ADP600      0.0000 
     23 N6         34.3080    3.3020  103.1560 N.pl3     1 ADP600      0.0000 
     24 N1         32.0320    3.4430  103.7720 N.ar      1 ADP600      0.0000 
     25 C2         30.7190    3.3480  103.4700 C.ar      1 ADP600      0.0000 
     26 N3         30.2610    3.0150  102.2440 N.ar      1 ADP600      0.0000 
     27 C4         31.1150    2.7530  101.2270 C.ar      1 ADP600      0.0000 
@<TRIPOS>BOND
     1    1    2 ar   
     2    1    3 ar   
     3    1    4 ar   
     4    1    8 1    
     5    5    6 ar   
     6    5    7 ar   
     7    5    8 1    
     8    5    9 1    
     9    9   10 1    
    10   10   11 1    
    11   11   12 1    
    12   11   13 1    
    13   12   17 1    
    14   13   14 1    
    15   13   15 1    
    16   15   16 1    
    17   15   17 1    
    18   17   18 1    
    19   18   19 1    
    20   18   27 1    
    21   19   20 2    
    22   20   21 1    
    23   21   22 ar   
    24   21   27 ar   
    25   22   23 1    
    26   22   24 ar   
    27   24   25 ar   
    28   25   26 ar   
    29   26   27 ar   
@<TRIPOS>SUBSTRUCTURE
     1 ADP600      1 GROUP   
@<TRIPOS>SET
ATOM$ORANGE STATIC     ATOMS   COLORGROUP SYSTEM 
20 10 10 11 11 13 13 15 15 17 17 19 19 21 21 22 22 25 \
25 27 27 

