#    Name: 6q45_6_ATP_CAVITY_N1_4
#    Modification time : Fri May 22 19:31:51 2020

@<TRIPOS>MOLECULE
6q45_6_ATP_CAVITY_N1_4
  121     0     7     0     0
SMALL
NO_CHARGES


@<TRIPOS>ATOM
      1 OG        -15.1400   43.3000   -3.1300 O.3       1 SER1        0.0000 
      2 OG        -15.5400   45.3200   -3.6400 O.3       1 SER1        0.0000 
      3 OG        -14.2200   41.7200   -1.2900 O.3       1 SER1        0.0000 
      4 OG        -15.3900   42.6300   -1.1400 O.3       1 SER1        0.0000 
      5 OG        -15.8000   44.6600   -1.6400 O.3       1 SER1        0.0000 
      6 OG        -22.0100   40.9700    1.9600 O.3       1 SER1        0.0000 
      7 OG        -13.7000   42.1500    0.0400 O.3       1 SER1        0.0000 
      8 OG        -17.2300   44.9000    0.5100 O.3       1 SER1        0.0000 
      9 OG        -20.7200   42.5100    2.6400 O.3       1 SER1        0.0000 
     10 OG        -19.9500   43.6100    1.9900 O.3       1 SER1        0.0000 
     11 OG        -18.6600   45.1500    2.6700 O.3       1 SER1        0.0000 
     12 N         -17.2000   40.6600   -3.1600 N.am      2 ALA2        0.0000 
     13 N         -19.1500   40.4700   -2.3400 N.am      2 ALA2        0.0000 
     14 O         -16.8300   43.7800   -4.3200 O.2       2 ALA2        0.0000 
     15 O         -16.0600   44.8900   -4.9800 O.2       2 ALA2        0.0000 
     16 O         -18.6000   35.7600    0.6600 O.2       2 ALA2        0.0000 
     17 O         -17.8200   36.8600    0.0000 O.2       2 ALA2        0.0000 
     18 O         -20.5500   35.5700    1.4700 O.2       2 ALA2        0.0000 
     19 O         -19.7700   36.6800    0.8100 O.2       2 ALA2        0.0000 
     20 N         -17.4600   39.9900   -1.1600 N.am      2 ALA2        0.0000 
     21 N         -16.6800   41.0900   -1.8200 N.am      2 ALA2        0.0000 
     22 N         -15.9100   42.2000   -2.4800 N.am      2 ALA2        0.0000 
     23 O         -20.9500   37.5900    0.9700 O.2       2 ALA2        0.0000 
     24 N         -19.4100   39.8000   -0.3500 N.am      2 ALA2        0.0000 
     25 N         -17.0900   43.1200   -2.3200 N.am      2 ALA2        0.0000 
     26 O         -22.1300   38.5100    1.1300 O.2       2 ALA2        0.0000 
     27 O         -21.3500   39.6200    0.4700 O.2       2 ALA2        0.0000 
     28 O         -22.5300   40.5300    0.6200 O.2       2 ALA2        0.0000 
     29 N         -16.1300   36.3800    1.1800 N.am      2 ALA2        0.0000 
     30 N         -17.3100   37.3000    1.3400 N.am      2 ALA2        0.0000 
     31 O         -20.0300   36.0100    2.8100 O.2       2 ALA2        0.0000 
     32 O         -19.2600   37.1100    2.1500 O.2       2 ALA2        0.0000 
     33 O         -18.4800   38.2200    1.4900 O.2       2 ALA2        0.0000 
     34 N         -16.1700   41.5300   -0.4800 N.am      2 ALA2        0.0000 
     35 O         -20.4300   38.0300    2.3100 O.2       2 ALA2        0.0000 
     36 N         -18.8900   40.2400    0.9900 N.am      2 ALA2        0.0000 
     37 N         -18.1100   41.3400    0.3300 N.am      2 ALA2        0.0000 
     38 N         -16.5700   43.5500   -0.9800 N.am      2 ALA2        0.0000 
     39 O         -20.8400   40.0500    1.8100 O.2       2 ALA2        0.0000 
     40 O         -20.0600   41.1600    1.1500 O.2       2 ALA2        0.0000 
     41 N         -16.0200   38.8400    2.0200 N.am      2 ALA2        0.0000 
     42 N         -14.4700   41.0500    0.7000 N.am      2 ALA2        0.0000 
     43 N         -17.9700   38.6500    2.8300 N.am      2 ALA2        0.0000 
     44 N         -17.1900   39.7600    2.1800 N.am      2 ALA2        0.0000 
     45 N         -15.6500   41.9700    0.8600 N.am      2 ALA2        0.0000 
     46 N         -14.8700   43.0700    0.2000 N.am      2 ALA2        0.0000 
     47 N         -17.6000   41.7800    1.6700 N.am      2 ALA2        0.0000 
     48 N         -16.8200   42.8800    1.0200 N.am      2 ALA2        0.0000 
     49 N         -16.0500   43.9900    0.3600 N.am      2 ALA2        0.0000 
     50 N         -18.7700   42.7000    1.8300 N.am      2 ALA2        0.0000 
     51 N         -18.0000   43.8000    1.1700 N.am      2 ALA2        0.0000 
     52 N         -14.3200   38.3600    3.2000 N.am      2 ALA2        0.0000 
     53 N         -13.5500   39.4600    2.5400 N.am      2 ALA2        0.0000 
     54 N         -15.5000   39.2800    3.3600 N.am      2 ALA2        0.0000 
     55 N         -14.7300   40.3800    2.7000 N.am      2 ALA2        0.0000 
     56 N         -13.9500   41.4800    2.0400 N.am      2 ALA2        0.0000 
     57 N         -17.4500   39.0900    4.1700 N.am      2 ALA2        0.0000 
     58 N         -16.6800   40.1900    3.5100 N.am      2 ALA2        0.0000 
     59 N         -15.9000   41.3000    2.8600 N.am      2 ALA2        0.0000 
     60 N         -15.1300   42.4000    2.2000 N.am      2 ALA2        0.0000 
     61 N         -16.3100   43.3200    2.3500 N.am      2 ALA2        0.0000 
     62 N         -15.5300   44.4200    1.7000 N.am      2 ALA2        0.0000 
     63 N         -18.2600   43.1300    3.1700 N.am      2 ALA2        0.0000 
     64 N         -16.5600   42.6500    4.3500 N.am      2 ALA2        0.0000 
     65 N         -15.7900   43.7500    3.6900 N.am      2 ALA2        0.0000 
     66 N         -16.9700   44.6700    3.8500 N.am      2 ALA2        0.0000 
     67 OD1       -14.8800   43.9700   -5.1300 O.co2     3 ASP3        0.0000 
     68 OD1       -15.5100   40.1800   -1.9700 O.co2     3 ASP3        0.0000 
     69 OD1       -14.7300   41.2800   -2.6300 O.co2     3 ASP3        0.0000 
     70 OD1       -21.7200   36.4900    1.6300 O.co2     3 ASP3        0.0000 
     71 OD1       -13.0400   40.8000   -1.4500 O.co2     3 ASP3        0.0000 
     72 OD1       -21.6100   38.9500    2.4600 O.co2     3 ASP3        0.0000 
     73 OD1       -22.7900   39.8600    2.6200 O.co2     3 ASP3        0.0000 
     74 OD1       -23.0400   39.2000    4.6200 O.co2     3 ASP3        0.0000 
     75 NZ        -16.7200   46.2400   -3.4800 N.4       4 LYS4        0.0000 
     76 CZ        -17.3100   38.2000   -3.9900 C.ar      5 PHE5        0.0000 
     77 CZ        -17.5700   37.5300   -2.0000 C.ar      5 PHE5        0.0000 
     78 CZ        -16.8000   38.6400   -2.6600 C.ar      5 PHE5        0.0000 
     79 CZ        -17.0500   37.9700   -0.6600 C.ar      5 PHE5        0.0000 
     80 CZ        -16.2800   39.0700   -1.3200 C.ar      5 PHE5        0.0000 
     81 CZ        -13.8100   39.7000   -0.7900 C.ar      5 PHE5        0.0000 
     82 CZ        -16.5300   38.4000    0.6800 C.ar      5 PHE5        0.0000 
     83 CZ        -15.7600   39.5100    0.0200 C.ar      5 PHE5        0.0000 
     84 CZ        -14.9900   40.6100   -0.6400 C.ar      5 PHE5        0.0000 
     85 CZ        -14.8400   37.9200    1.8600 C.ar      5 PHE5        0.0000 
     86 CZ        -14.0700   39.0300    1.2000 C.ar      5 PHE5        0.0000 
     87 CZ        -13.2900   40.1300    0.5500 C.ar      5 PHE5        0.0000 
     88 CZ        -15.2400   39.9400    1.3600 C.ar      5 PHE5        0.0000 
     89 CZ        -19.1800   44.7200    1.3300 C.ar      5 PHE5        0.0000 
     90 CA        -18.2300   39.7900   -5.8400 C.3       6 GLY6        0.0000 
     91 CA        -19.4100   40.7000   -5.6800 C.3       6 GLY6        0.0000 
     92 CA        -18.4900   39.1200   -3.8400 C.3       6 GLY6        0.0000 
     93 CA        -17.7200   40.2200   -4.5000 C.3       6 GLY6        0.0000 
     94 CA        -16.9400   41.3300   -5.1500 C.3       6 GLY6        0.0000 
     95 CA        -16.1700   42.4300   -5.8100 C.3       6 GLY6        0.0000 
     96 CA        -18.8900   41.1400   -4.3400 C.3       6 GLY6        0.0000 
     97 CA        -18.1200   42.2400   -5.0000 C.3       6 GLY6        0.0000 
     98 CA        -16.0200   39.7400   -3.3100 C.3       6 GLY6        0.0000 
     99 CA        -18.7500   38.4500   -1.8400 C.3       6 GLY6        0.0000 
    100 CA        -17.9700   39.5500   -2.5000 C.3       6 GLY6        0.0000 
    101 CA        -16.4300   41.7600   -3.8200 C.3       6 GLY6        0.0000 
    102 CA        -15.6500   42.8700   -4.4700 C.3       6 GLY6        0.0000 
    103 CA        -17.6000   42.6800   -3.6600 C.3       6 GLY6        0.0000 
    104 CA        -19.0000   37.7800    0.1600 C.3       6 GLY6        0.0000 
    105 CA        -18.2300   38.8900   -0.5000 C.3       6 GLY6        0.0000 
    106 CA        -20.1800   38.7000    0.3100 C.3       6 GLY6        0.0000 
    107 CA        -16.3100   44.2200   -2.9800 C.3       6 GLY6        0.0000 
    108 CA        -17.4900   45.1400   -2.8200 C.3       6 GLY6        0.0000 
    109 CA        -23.3000   39.4300    1.2800 C.3       6 GLY6        0.0000 
    110 CA        -18.0800   36.2000    2.0000 C.3       6 GLY6        0.0000 
    111 CA        -19.1400   39.5700    2.9900 C.3       6 GLY6        0.0000 
    112 CA        -18.3700   40.6700    2.3300 C.3       6 GLY6        0.0000 
    113 CA        -20.3200   40.4900    3.1500 C.3       6 GLY6        0.0000 
    114 CA        -19.5500   41.5900    2.4900 C.3       6 GLY6        0.0000 
    115 CA        -17.8500   41.1100    3.6700 C.3       6 GLY6        0.0000 
    116 CA        -17.4800   44.2400    2.5100 C.3       6 GLY6        0.0000 
    117 CA        -20.2100   42.9400    3.9800 C.3       6 GLY6        0.0000 
    118 DU        -17.7100   39.3200    0.8400 H         7 CUB7        0.0000 
    119 DU        -19.6600   39.1300    1.6500 H         7 CUB7        0.0000 
    120 DU        -16.4200   40.8600    1.5200 H         7 CUB7        0.0000 
    121 DU        -17.0800   42.2100    3.0100 H         7 CUB7        0.0000 
@<TRIPOS>BOND
@<TRIPOS>SUBSTRUCTURE
     1 SER1        1 GROUP   
     2 ALA2       12 GROUP   
     3 ASP3       67 GROUP   
     4 LYS4       75 GROUP   
     5 PHE5       76 GROUP   
     6 GLY6       90 GROUP   
     7 CUB7      118 GROUP   
@<TRIPOS>SET

