#    Name: 6uit_1_DCP
#    Modification time : Fri May 22 19:34:25 2020

@<TRIPOS>MOLECULE
6uit_1_DCP
   28    29     1     0     0
SMALL
NO_CHARGES


@<TRIPOS>ATOM
      1 N1        -41.3400   -2.6740  -26.6930 N.am      1 DCP601      0.0000 
      2 C2        -40.3540   -2.6810  -27.6810 C.2       1 DCP601      0.0000 
      3 N3        -40.8130   -3.0120  -28.9420 N.2       1 DCP601      0.0000 
      4 C4        -42.0830   -3.3100  -29.3010 C.2       1 DCP601      0.0000 
      5 C5        -43.0910   -3.2760  -28.2610 C.2       1 DCP601      0.0000 
      6 C6        -42.6420   -2.9400  -27.0090 C.2       1 DCP601      0.0000 
      7 O2        -39.1490   -2.4250  -27.4170 O.2       1 DCP601      0.0000 
      8 N4        -42.3730   -3.6110  -30.5950 N.pl3     1 DCP601      0.0000 
      9 C1'       -41.0220   -2.3020  -25.2970 C.3       1 DCP601      0.0000 
     10 C2'       -40.8250   -0.7930  -25.0100 C.3       1 DCP601      0.0000 
     11 C3'       -42.2300   -0.4750  -24.4500 C.3       1 DCP601      0.0000 
     12 C4'       -42.5060   -1.7320  -23.6500 C.3       1 DCP601      0.0000 
     13 O4'       -41.9670   -2.8550  -24.3670 O.3       1 DCP601      0.0000 
     14 O3'       -42.3700    0.7060  -23.6350 O.3       1 DCP601      0.0000 
     15 C5'       -43.9880   -1.9170  -23.4050 C.3       1 DCP601      0.0000 
     16 O5'       -44.7620   -1.8140  -24.5820 O.3       1 DCP601      0.0000 
     17 PA        -46.2080   -1.1560  -24.8690 P.3       1 DCP601      0.0000 
     18 O1A       -46.9200   -1.6350  -26.1400 O.co2     1 DCP601      0.0000 
     19 O2A       -46.9300   -1.2810  -23.6180 O.co2     1 DCP601      0.0000 
     20 O3A       -45.6220    0.3310  -25.0250 O.3       1 DCP601      0.0000 
     21 PB        -45.2400    1.6050  -24.0940 P.3       1 DCP601      0.0000 
     22 O1B       -43.9490    2.3750  -24.3070 O.co2     1 DCP601      0.0000 
     23 O2B       -45.4240    1.1240  -22.7450 O.co2     1 DCP601      0.0000 
     24 O3B       -46.5390    2.4500  -24.5530 O.3       1 DCP601      0.0000 
     25 PG        -48.1290    2.6060  -24.3080 P.3       1 DCP601      0.0000 
     26 O1G       -48.8170    2.5620  -25.6240 O.co2     1 DCP601      0.0000 
     27 O2G       -48.4780    1.4910  -23.4920 O.co2     1 DCP601      0.0000 
     28 O3G       -48.4810    3.8550  -23.6230 O.co2     1 DCP601      0.0000 
@<TRIPOS>BOND
     1    1    2 am   
     2    1    6 1    
     3    1    9 1    
     4    2    3 1    
     5    2    7 2    
     6    3    4 2    
     7    4    5 1    
     8    4    8 1    
     9    5    6 2    
    10    9   10 1    
    11    9   13 1    
    12   10   11 1    
    13   11   12 1    
    14   11   14 1    
    15   12   13 1    
    16   12   15 1    
    17   15   16 1    
    18   16   17 1    
    19   17   18 ar   
    20   17   19 ar   
    21   17   20 1    
    22   20   21 1    
    23   21   22 ar   
    24   21   23 ar   
    25   21   24 1    
    26   24   25 1    
    27   25   26 ar   
    28   25   27 ar   
    29   25   28 ar   
@<TRIPOS>SUBSTRUCTURE
     1 DCP601      1 GROUP   
@<TRIPOS>SET

