#    Name: 6btl_1_FAD
#    Modification time : Fri May 22 19:25:21 2020

@<TRIPOS>MOLECULE
6btl_1_FAD
   53    58     1     0     1
SMALL
NO_CHARGES


@<TRIPOS>ATOM
      1 PA         45.4180  -35.4980   -0.4900 P.3       1 FAD501      0.0000 
      2 O1A        44.8370  -35.4220   -1.8530 O.co2     1 FAD501      0.0000 
      3 O2A        45.8820  -34.1590    0.0930 O.co2     1 FAD501      0.0000 
      4 O5B        46.6320  -36.5370   -0.4560 O.3       1 FAD501      0.0000 
      5 C5B        46.9250  -37.3900   -1.5840 C.3       1 FAD501      0.0000 
      6 C4B        48.3660  -37.2230   -2.0050 C.3       1 FAD501      0.0000 
      7 O4B        49.0100  -38.5180   -2.0680 O.3       1 FAD501      0.0000 
      8 C3B        48.5710  -36.5830   -3.3770 C.3       1 FAD501      0.0000 
      9 O3B        49.6990  -35.7140   -3.3780 O.3       1 FAD501      0.0000 
     10 C2B        48.7860  -37.7950   -4.2870 C.3       1 FAD501      0.0000 
     11 O2B        49.5470  -37.4580   -5.4410 O.3       1 FAD501      0.0000 
     12 C1B        49.5650  -38.7180   -3.3540 C.3       1 FAD501      0.0000 
     13 N9A        49.4770  -40.1410   -3.6850 N.pl3     1 FAD501      0.0000 
     14 C8A        48.3620  -40.8400   -4.0680 C.2       1 FAD501      0.0000 
     15 N7A        48.5790  -42.1140   -4.2950 N.2       1 FAD501      0.0000 
     16 C5A        49.9350  -42.2650   -4.0410 C.ar      1 FAD501      0.0000 
     17 C6A        50.7930  -43.3800   -4.1000 C.ar      1 FAD501      0.0000 
     18 N6A        50.3940  -44.6080   -4.4480 N.pl3     1 FAD501      0.0000 
     19 N1A        52.0930  -43.1890   -3.7850 N.ar      1 FAD501      0.0000 
     20 C2A        52.4970  -41.9640   -3.4360 C.ar      1 FAD501      0.0000 
     21 N3A        51.7830  -40.8400   -3.3450 N.ar      1 FAD501      0.0000 
     22 C4A        50.5010  -41.0580   -3.6630 C.ar      1 FAD501      0.0000 
     23 N1         38.4560  -29.5120    1.1180 N.2       1 FAD501      0.0000 
     24 C2         38.1710  -28.4940    1.9790 C.2       1 FAD501      0.0000 
     25 O2         38.2390  -28.6450    3.2040 O.2       1 FAD501      0.0000 
     26 N3         37.7970  -27.2600    1.4790 N.am      1 FAD501      0.0000 
     27 C4         37.6740  -26.9260    0.1480 C.2       1 FAD501      0.0000 
     28 O4         37.3320  -25.7890   -0.1740 O.2       1 FAD501      0.0000 
     29 C4X        37.9800  -28.0160   -0.7590 C.2       1 FAD501      0.0000 
     30 N5         37.8920  -27.7930   -2.0440 N.2       1 FAD501      0.0000 
     31 C5X        38.1850  -28.8390   -2.9080 C.ar      1 FAD501      0.0000 
     32 C6         38.0980  -28.6240   -4.2830 C.ar      1 FAD501      0.0000 
     33 C7         38.3840  -29.6430   -5.1890 C.ar      1 FAD501      0.0000 
     34 C7M        38.2790  -29.3750   -6.6660 C.3       1 FAD501      0.0000 
     35 C8         38.7670  -30.9070   -4.7100 C.ar      1 FAD501      0.0000 
     36 C8M        39.0830  -32.0320   -5.6620 C.3       1 FAD501      0.0000 
     37 C9         38.8550  -31.1240   -3.3390 C.ar      1 FAD501      0.0000 
     38 C9A        38.5680  -30.1050   -2.4400 C.ar      1 FAD501      0.0000 
     39 N10        38.6530  -30.2950   -1.0460 N.pl3     1 FAD501      0.0000 
     40 C10        38.3630  -29.2750   -0.1770 C.2       1 FAD501      0.0000 
     41 C1'        39.0410  -31.5970   -0.4920 C.3       1 FAD501      0.0000 
     42 C2'        40.4860  -31.6400   -0.0100 C.3       1 FAD501      0.0000 
     43 O2'        41.3670  -31.2080   -1.0470 O.3       1 FAD501      0.0000 
     44 C3'        40.8330  -33.0740    0.3910 C.3       1 FAD501      0.0000 
     45 O3'        39.8000  -33.5650    1.2380 O.3       1 FAD501      0.0000 
     46 C4'        42.1730  -33.2340    1.1080 C.3       1 FAD501      0.0000 
     47 O4'        43.2350  -33.1870    0.1560 O.3       1 FAD501      0.0000 
     48 C5'        42.2510  -34.5190    1.9030 C.3       1 FAD501      0.0000 
     49 O5'        43.6000  -34.6920    2.3840 O.3       1 FAD501      0.0000 
     50 P          44.4020  -36.0140    2.1020 P.3       1 FAD501      0.0000 
     51 O1P        45.8570  -35.8340    2.5420 O.co2     1 FAD501      0.0000 
     52 O2P        43.7040  -37.1750    2.7060 O.co2     1 FAD501      0.0000 
     53 O3P        44.3590  -36.1170    0.5160 O.3       1 FAD501      0.0000 
@<TRIPOS>BOND
     1    1    2 ar   
     2    1    3 ar   
     3    1    4 1    
     4    1   53 1    
     5    4    5 1    
     6    5    6 1    
     7    6    7 1    
     8    6    8 1    
     9    7   12 1    
    10    8    9 1    
    11    8   10 1    
    12   10   11 1    
    13   10   12 1    
    14   12   13 1    
    15   13   14 1    
    16   13   22 1    
    17   14   15 2    
    18   15   16 1    
    19   16   17 ar   
    20   16   22 ar   
    21   17   18 1    
    22   17   19 ar   
    23   19   20 ar   
    24   20   21 ar   
    25   21   22 ar   
    26   23   24 1    
    27   23   40 2    
    28   24   25 2    
    29   24   26 am   
    30   26   27 am   
    31   27   28 2    
    32   27   29 1    
    33   29   30 2    
    34   29   40 1    
    35   30   31 1    
    36   31   32 ar   
    37   31   38 ar   
    38   32   33 ar   
    39   33   34 1    
    40   33   35 ar   
    41   35   36 1    
    42   35   37 ar   
    43   37   38 ar   
    44   38   39 1    
    45   39   40 1    
    46   39   41 1    
    47   41   42 1    
    48   42   43 1    
    49   42   44 1    
    50   44   45 1    
    51   44   46 1    
    52   46   47 1    
    53   46   48 1    
    54   48   49 1    
    55   49   50 1    
    56   50   51 ar   
    57   50   52 ar   
    58   50   53 1    
@<TRIPOS>SUBSTRUCTURE
     1 FAD501      1 GROUP   
@<TRIPOS>SET
ATOM$ORANGE STATIC     ATOMS   COLORGROUP SYSTEM 
54 5 5 6 6 8 8 10 10 12 12 14 14 16 16 17 17 20 \
20 22 22 24 24 27 27 29 29 31 31 32 32 33 33 34 34 35 \
35 36 36 37 37 38 38 40 40 41 41 42 42 44 44 46 46 48 \
48 

