#    Name: 6btl_2_FAD
#    Modification time : Fri May 22 19:25:36 2020

@<TRIPOS>MOLECULE
6btl_2_FAD
   53    58     1     0     1
SMALL
NO_CHARGES


@<TRIPOS>ATOM
      1 PA         17.8210    7.7070   16.7360 P.3       1 FAD501      0.0000 
      2 O1A        18.6970    8.7140   16.1020 O.co2     1 FAD501      0.0000 
      3 O2A        17.7590    6.3780   15.9950 O.co2     1 FAD501      0.0000 
      4 O5B        16.3600    8.2610   16.9300 O.3       1 FAD501      0.0000 
      5 C5B        16.1190    9.6410   17.2750 C.3       1 FAD501      0.0000 
      6 C4B        14.9200   10.1400   16.5080 C.3       1 FAD501      0.0000 
      7 O4B        14.1660   11.0590   17.3280 O.3       1 FAD501      0.0000 
      8 C3B        15.2380   10.8680   15.1980 C.3       1 FAD501      0.0000 
      9 O3B        14.5210   10.3220   14.0960 O.3       1 FAD501      0.0000 
     10 C2B        14.8430   12.3230   15.4840 C.3       1 FAD501      0.0000 
     11 O2B        14.2970   12.9460   14.3280 O.3       1 FAD501      0.0000 
     12 C1B        13.7580   12.1510   16.5410 C.3       1 FAD501      0.0000 
     13 N9A        13.5790   13.3020   17.4200 N.pl3     1 FAD501      0.0000 
     14 C8A        14.5540   14.1120   17.9350 C.2       1 FAD501      0.0000 
     15 N7A        14.1020   15.0700   18.7090 N.2       1 FAD501      0.0000 
     16 C5A        12.7290   14.8710   18.7070 C.ar      1 FAD501      0.0000 
     17 C6A        11.6720   15.5490   19.3410 C.ar      1 FAD501      0.0000 
     18 N6A        11.8390   16.6150   20.1290 N.pl3     1 FAD501      0.0000 
     19 N1A        10.4180   15.0930   19.1310 N.ar      1 FAD501      0.0000 
     20 C2A        10.2440   14.0290   18.3430 C.ar      1 FAD501      0.0000 
     21 N3A        11.1620   13.3090   17.6950 N.ar      1 FAD501      0.0000 
     22 C4A        12.3930   13.7830   17.9210 C.ar      1 FAD501      0.0000 
     23 N1         25.4010    2.3020   14.9930 N.2       1 FAD501      0.0000 
     24 C2         25.6880    0.9960   14.7210 C.2       1 FAD501      0.0000 
     25 O2         25.3650    0.0860   15.4940 O.2       1 FAD501      0.0000 
     26 N3         26.3610    0.6710   13.5540 N.am      1 FAD501      0.0000 
     27 C4         26.7930    1.5590   12.5890 C.2       1 FAD501      0.0000 
     28 O4         27.3820    1.1460   11.5900 O.2       1 FAD501      0.0000 
     29 C4X        26.4800    2.9460   12.8890 C.2       1 FAD501      0.0000 
     30 N5         26.8520    3.8650   12.0310 N.2       1 FAD501      0.0000 
     31 C5X        26.5500    5.1880   12.3240 C.ar      1 FAD501      0.0000 
     32 C6         26.9320    6.1830   11.4240 C.ar      1 FAD501      0.0000 
     33 C7         26.6480    7.5230   11.6740 C.ar      1 FAD501      0.0000 
     34 C7M        27.0780    8.5720   10.6820 C.3       1 FAD501      0.0000 
     35 C8         25.9680    7.8810   12.8490 C.ar      1 FAD501      0.0000 
     36 C8M        25.6520    9.3210   13.1500 C.3       1 FAD501      0.0000 
     37 C9         25.5850    6.8910   13.7490 C.ar      1 FAD501      0.0000 
     38 C9A        25.8700    5.5540   13.4960 C.ar      1 FAD501      0.0000 
     39 N10        25.4960    4.5310   14.3900 N.pl3     1 FAD501      0.0000 
     40 C10        25.7800    3.2170   14.1180 C.2       1 FAD501      0.0000 
     41 C1'        24.7780    4.8470   15.6300 C.3       1 FAD501      0.0000 
     42 C2'        23.2660    4.8750   15.4470 C.3       1 FAD501      0.0000 
     43 O2'        22.9120    5.7260   14.3580 O.3       1 FAD501      0.0000 
     44 C3'        22.6120    5.4060   16.7210 C.3       1 FAD501      0.0000 
     45 O3'        23.4160    5.0480   17.8390 O.3       1 FAD501      0.0000 
     46 C4'        21.1930    4.8820   16.9380 C.3       1 FAD501      0.0000 
     47 O4'        20.3700    5.2630   15.8350 O.3       1 FAD501      0.0000 
     48 C5'        20.5880    5.3620   18.2390 C.3       1 FAD501      0.0000 
     49 O5'        19.1680    5.1150   18.2130 O.3       1 FAD501      0.0000 
     50 P          18.1720    6.0410   18.9950 P.3       1 FAD501      0.0000 
     51 O1P        16.7430    5.5160   18.8170 O.co2     1 FAD501      0.0000 
     52 O2P        18.6220    6.2020   20.4080 O.co2     1 FAD501      0.0000 
     53 O3P        18.3020    7.4240   18.2210 O.3       1 FAD501      0.0000 
@<TRIPOS>BOND
     1    1    2 ar   
     2    1    3 ar   
     3    1    4 1    
     4    1   53 1    
     5    4    5 1    
     6    5    6 1    
     7    6    7 1    
     8    6    8 1    
     9    7   12 1    
    10    8    9 1    
    11    8   10 1    
    12   10   11 1    
    13   10   12 1    
    14   12   13 1    
    15   13   14 1    
    16   13   22 1    
    17   14   15 2    
    18   15   16 1    
    19   16   17 ar   
    20   16   22 ar   
    21   17   18 1    
    22   17   19 ar   
    23   19   20 ar   
    24   20   21 ar   
    25   21   22 ar   
    26   23   24 1    
    27   23   40 2    
    28   24   25 2    
    29   24   26 am   
    30   26   27 am   
    31   27   28 2    
    32   27   29 1    
    33   29   30 2    
    34   29   40 1    
    35   30   31 1    
    36   31   32 ar   
    37   31   38 ar   
    38   32   33 ar   
    39   33   34 1    
    40   33   35 ar   
    41   35   36 1    
    42   35   37 ar   
    43   37   38 ar   
    44   38   39 1    
    45   39   40 1    
    46   39   41 1    
    47   41   42 1    
    48   42   43 1    
    49   42   44 1    
    50   44   45 1    
    51   44   46 1    
    52   46   47 1    
    53   46   48 1    
    54   48   49 1    
    55   49   50 1    
    56   50   51 ar   
    57   50   52 ar   
    58   50   53 1    
@<TRIPOS>SUBSTRUCTURE
     1 FAD501      1 GROUP   
@<TRIPOS>SET
ATOM$ORANGE STATIC     ATOMS   COLORGROUP SYSTEM 
54 5 5 6 6 8 8 10 10 12 12 14 14 16 16 17 17 20 \
20 22 22 24 24 27 27 29 29 31 31 32 32 33 33 34 34 35 \
35 36 36 37 37 38 38 40 40 41 41 42 42 44 44 46 46 48 \
48 

