#    Name: 6rul_1_TOP
#    Modification time : Fri May 22 19:26:10 2020

@<TRIPOS>MOLECULE
6rul_1_TOP
   21    22     1     0     0
SMALL
NO_CHARGES


@<TRIPOS>ATOM
      1 C1         35.7750   17.7650  -10.7250 C.ar      1 TOP301      0.0000 
      2 N2         36.6320   16.7640  -10.5660 N.ar      1 TOP301      0.0000 
      3 C3         36.2250   15.6440   -9.9170 C.ar      1 TOP301      0.0000 
      4 N4         37.1330   14.5310   -9.7730 N.pl3     1 TOP301      0.0000 
      5 N5         34.9750   15.5670   -9.4110 N.ar      1 TOP301      0.0000 
      6 C6         34.1350   16.5730   -9.5450 C.ar      1 TOP301      0.0000 
      7 N7         32.8320   16.4440   -8.9700 N.pl3     1 TOP301      0.0000 
      8 C8         34.5090   17.7050  -10.2160 C.ar      1 TOP301      0.0000 
      9 C9         33.5280   18.8870  -10.3980 C.3       1 TOP301      0.0000 
     10 C10        34.1630   20.0920  -11.1060 C.ar      1 TOP301      0.0000 
     11 C11        34.3450   20.1430  -12.4800 C.ar      1 TOP301      0.0000 
     12 C12        34.9440   21.2600  -13.0660 C.ar      1 TOP301      0.0000 
     13 O13        35.1650   21.3420  -14.4440 O.3       1 TOP301      0.0000 
     14 C14        34.5190   20.3970  -15.2470 C.3       1 TOP301      0.0000 
     15 C15        35.3300   22.3350  -12.2840 C.ar      1 TOP301      0.0000 
     16 O16        35.9030   23.4710  -12.8840 O.3       1 TOP301      0.0000 
     17 C17        37.2940   23.5100  -12.8190 C.3       1 TOP301      0.0000 
     18 C18        35.1230   22.2870  -10.9070 C.ar      1 TOP301      0.0000 
     19 O19        35.5090   23.3700  -10.0940 O.3       1 TOP301      0.0000 
     20 C20        35.3650   23.1730   -8.7130 C.3       1 TOP301      0.0000 
     21 C21        34.5470   21.1620  -10.3300 C.ar      1 TOP301      0.0000 
@<TRIPOS>BOND
     1    1    2 ar   
     2    1    8 ar   
     3    2    3 ar   
     4    3    4 1    
     5    3    5 ar   
     6    5    6 ar   
     7    6    7 1    
     8    6    8 ar   
     9    8    9 1    
    10    9   10 1    
    11   10   11 ar   
    12   10   21 ar   
    13   11   12 ar   
    14   12   13 1    
    15   12   15 ar   
    16   13   14 1    
    17   15   16 1    
    18   15   18 ar   
    19   16   17 1    
    20   18   19 1    
    21   18   21 ar   
    22   19   20 1    
@<TRIPOS>SUBSTRUCTURE
     1 TOP301      1 GROUP   
@<TRIPOS>SET

