#    Name: 6dlz_2_CYZ
#    Modification time : Fri May 22 19:42:40 2020

@<TRIPOS>MOLECULE
6dlz_2_CYZ
   24    31     1     0     0
SMALL
NO_CHARGES


@<TRIPOS>ATOM
      1 C1        152.1720  182.2990  169.6010 C.3       1 CYZ1302     0.0000 
      2 C2        151.9620  183.4050  169.5250 C.3       1 CYZ1302     0.0000 
      3 C3        152.3800  184.2990  168.9800 Du        1 CYZ1302     0.0000 
      4 C4        153.9460  184.0660  169.1290 Du        1 CYZ1302     0.0000 
      5 C5        153.9610  183.2100  169.7860 C.3       1 CYZ1302     0.0000 
      6 C6        153.5550  182.1670  169.6770 C.3       1 CYZ1302     0.0000 
      7 C7        153.0500  183.6390  170.6210 Du        1 CYZ1302     0.0000 
      8 C8        151.6220  181.5450  168.1560 C.3       1 CYZ1302     0.0000 
      9 N1        150.3220  182.0040  167.8540 N.pl3     1 CYZ1302     0.0000 
     10 S1        149.9310  181.4120  166.4300 S.o2      1 CYZ1302     0.0000 
     11 C9        150.4230  179.8910  166.1100 C.ar      1 CYZ1302     0.0000 
     12 C10       151.2260  179.2680  166.9780 C.ar      1 CYZ1302     0.0000 
     13 N2        151.6690  180.0440  168.2630 N.pl3     1 CYZ1302     0.0000 
     14 C11       149.9860  179.2550  164.9300 C.ar      1 CYZ1302     0.0000 
     15 C12       150.3970  177.9830  164.6770 C.ar      1 CYZ1302     0.0000 
     16 C13       151.2350  177.3290  165.5660 C.ar      1 CYZ1302     0.0000 
     17 C14       151.6570  177.9550  166.7150 C.ar      1 CYZ1302     0.0000 
     18 CL        151.7700  175.6460  165.2140 Cl        1 CYZ1302     0.0000 
     19 S2        149.8270  177.1540  163.1390 S.o2      1 CYZ1302     0.0000 
     20 O1        150.4990  182.2610  165.4140 O.2       1 CYZ1302     0.0000 
     21 O2        148.4510  181.3780  166.3510 O.2       1 CYZ1302     0.0000 
     22 O3        148.6540  177.8880  162.5510 O.2       1 CYZ1302     0.0000 
     23 O4        149.2060  175.8520  163.4340 O.2       1 CYZ1302     0.0000 
     24 N3        151.1450  177.0150  162.0000 N.pl3     1 CYZ1302     0.0000 
@<TRIPOS>BOND
     1    1    2 1    
     2    1    6 1    
     3    1    7 du   
     4    1    8 1    
     5    2    3 du   
     6    2    7 du   
     7    3    4 du   
     8    3    7 du   
     9    4    5 du   
    10    4    7 du   
    11    5    6 1    
    12    5    7 du   
    13    6    7 du   
    14    8    9 1    
    15    8   13 1    
    16    9   10 1    
    17   10   11 1    
    18   10   20 2    
    19   10   21 2    
    20   11   12 ar   
    21   11   14 ar   
    22   12   13 1    
    23   12   17 ar   
    24   14   15 ar   
    25   15   16 ar   
    26   15   19 1    
    27   16   17 ar   
    28   16   18 1    
    29   19   22 2    
    30   19   23 2    
    31   19   24 1    
@<TRIPOS>SUBSTRUCTURE
     1 CYZ1302     1 GROUP   
@<TRIPOS>SET

