#    Name: 6dlz_1_CYZ
#    Modification time : Fri May 22 19:42:25 2020

@<TRIPOS>MOLECULE
6dlz_1_CYZ
   24    31     1     0     0
SMALL
NO_CHARGES


@<TRIPOS>ATOM
      1 C1        179.6000  134.8390  165.9630 C.3       1 CYZ1302     0.0000 
      2 C2        179.9070  135.8320  166.3990 C.3       1 CYZ1302     0.0000 
      3 C3        180.5180  136.7260  166.0860 Du        1 CYZ1302     0.0000 
      4 C4        181.7890  136.0300  165.4300 Du        1 CYZ1302     0.0000 
      5 C5        181.5850  134.9880  165.6320 C.3       1 CYZ1302     0.0000 
      6 C6        180.7330  134.3150  165.3420 C.3       1 CYZ1302     0.0000 
      7 C7        181.2180  135.1300  166.8810 Du        1 CYZ1302     0.0000 
      8 C8        178.4020  135.1340  164.7680 C.3       1 CYZ1302     0.0000 
      9 N1        177.1840  135.4900  165.3810 N.pl3     1 CYZ1302     0.0000 
     10 S1        176.2360  135.9640  164.1950 S.o2      1 CYZ1302     0.0000 
     11 C9        176.3050  135.1070  162.8070 C.ar      1 CYZ1302     0.0000 
     12 C10       177.2440  134.1680  162.6620 C.ar      1 CYZ1302     0.0000 
     13 N2        178.2430  133.9520  163.8450 N.pl3     1 CYZ1302     0.0000 
     14 C11       175.3710  135.3680  161.7890 C.ar      1 CYZ1302     0.0000 
     15 C12       175.4390  134.6470  160.6430 C.ar      1 CYZ1302     0.0000 
     16 C13       176.4100  133.6730  160.4760 C.ar      1 CYZ1302     0.0000 
     17 C14       177.3210  133.4230  161.4720 C.ar      1 CYZ1302     0.0000 
     18 CL        176.4760  132.7310  158.9440 Cl        1 CYZ1302     0.0000 
     19 S2        174.2100  135.0010  159.3300 S.o2      1 CYZ1302     0.0000 
     20 O1        176.6040  137.3150  163.8590 O.2       1 CYZ1302     0.0000 
     21 O2        174.8360  135.8670  164.6680 O.2       1 CYZ1302     0.0000 
     22 O3        173.0610  135.7870  159.9060 O.2       1 CYZ1302     0.0000 
     23 O4        173.5420  133.7620  158.8970 O.2       1 CYZ1302     0.0000 
     24 N3        174.9660  135.8310  157.9900 N.pl3     1 CYZ1302     0.0000 
@<TRIPOS>BOND
     1    1    2 1    
     2    1    6 1    
     3    1    7 du   
     4    1    8 1    
     5    2    3 du   
     6    2    7 du   
     7    3    4 du   
     8    3    7 du   
     9    4    5 du   
    10    4    7 du   
    11    5    6 1    
    12    5    7 du   
    13    6    7 du   
    14    8    9 1    
    15    8   13 1    
    16    9   10 1    
    17   10   11 1    
    18   10   20 2    
    19   10   21 2    
    20   11   12 ar   
    21   11   14 ar   
    22   12   13 1    
    23   12   17 ar   
    24   14   15 ar   
    25   15   16 ar   
    26   15   19 1    
    27   16   17 ar   
    28   16   18 1    
    29   19   22 2    
    30   19   23 2    
    31   19   24 1    
@<TRIPOS>SUBSTRUCTURE
     1 CYZ1302     1 GROUP   
@<TRIPOS>SET

