#    Name: 6dlz_4_CYZ
#    Modification time : Fri May 22 19:43:09 2020

@<TRIPOS>MOLECULE
6dlz_4_CYZ
   24    31     1     0     0
SMALL
NO_CHARGES


@<TRIPOS>ATOM
      1 C1        171.8040  141.6770  169.6190 C.3       1 CYZ1302     0.0000 
      2 C2        172.0230  140.5730  169.5480 C.3       1 CYZ1302     0.0000 
      3 C3        171.6180  139.6730  169.0040 Du        1 CYZ1302     0.0000 
      4 C4        170.0490  139.8940  169.1330 Du        1 CYZ1302     0.0000 
      5 C5        170.0200  140.7520  169.7880 C.3       1 CYZ1302     0.0000 
      6 C6        170.4190  141.7970  169.6790 C.3       1 CYZ1302     0.0000 
      7 C7        170.9260  140.3340  170.6340 Du        1 CYZ1302     0.0000 
      8 C8        172.3630  142.4350  168.1800 C.3       1 CYZ1302     0.0000 
      9 N1        173.6650  141.9780  167.8870 N.pl3     1 CYZ1302     0.0000 
     10 S1        174.0700  142.5730  166.4680 S.o2      1 CYZ1302     0.0000 
     11 C9        173.5730  144.0930  166.1420 C.ar      1 CYZ1302     0.0000 
     12 C10       172.7620  144.7120  167.0050 C.ar      1 CYZ1302     0.0000 
     13 N2        172.3150  143.9350  168.2880 N.pl3     1 CYZ1302     0.0000 
     14 C11       174.0130  144.7300  164.9640 C.ar      1 CYZ1302     0.0000 
     15 C12       173.5970  146.0000  164.7070 C.ar      1 CYZ1302     0.0000 
     16 C13       172.7500  146.6500  165.5910 C.ar      1 CYZ1302     0.0000 
     17 C14       172.3250  146.0230  166.7380 C.ar      1 CYZ1302     0.0000 
     18 CL        172.2080  148.3300  165.2350 Cl        1 CYZ1302     0.0000 
     19 S2        174.1690  146.8330  163.1720 S.o2      1 CYZ1302     0.0000 
     20 O1        173.5190  141.7220  165.4450 O.2       1 CYZ1302     0.0000 
     21 O2        175.5510  142.6110  166.4110 O.2       1 CYZ1302     0.0000 
     22 O3        175.3490  146.1080  162.5870 O.2       1 CYZ1302     0.0000 
     23 O4        174.7810  148.1390  163.4690 O.2       1 CYZ1302     0.0000 
     24 N3        172.8530  146.9660  162.0290 N.pl3     1 CYZ1302     0.0000 
@<TRIPOS>BOND
     1    1    2 1    
     2    1    6 1    
     3    1    7 du   
     4    1    8 1    
     5    2    3 du   
     6    2    7 du   
     7    3    4 du   
     8    3    7 du   
     9    4    5 du   
    10    4    7 du   
    11    5    6 1    
    12    5    7 du   
    13    6    7 du   
    14    8    9 1    
    15    8   13 1    
    16    9   10 1    
    17   10   11 1    
    18   10   20 2    
    19   10   21 2    
    20   11   12 ar   
    21   11   14 ar   
    22   12   13 1    
    23   12   17 ar   
    24   14   15 ar   
    25   15   16 ar   
    26   15   19 1    
    27   16   17 ar   
    28   16   18 1    
    29   19   22 2    
    30   19   23 2    
    31   19   24 1    
@<TRIPOS>SUBSTRUCTURE
     1 CYZ1302     1 GROUP   
@<TRIPOS>SET

