#    Name: 6dlz_3_CYZ
#    Modification time : Fri May 22 19:42:54 2020

@<TRIPOS>MOLECULE
6dlz_3_CYZ
   24    31     1     0     0
SMALL
NO_CHARGES


@<TRIPOS>ATOM
      1 C1        144.4020  189.1560  165.9700 C.3       1 CYZ1302     0.0000 
      2 C2        144.0820  188.1610  166.3900 C.3       1 CYZ1302     0.0000 
      3 C3        143.4630  187.2790  166.0630 Du        1 CYZ1302     0.0000 
      4 C4        142.2040  187.9970  165.4100 Du        1 CYZ1302     0.0000 
      5 C5        142.4180  189.0340  165.6270 C.3       1 CYZ1302     0.0000 
      6 C6        143.2780  189.7020  165.3500 C.3       1 CYZ1302     0.0000 
      7 C7        142.7760  188.8700  166.8750 Du        1 CYZ1302     0.0000 
      8 C8        145.6020  188.8640  164.7760 C.3       1 CYZ1302     0.0000 
      9 N1        146.8200  188.5100  165.3890 N.pl3     1 CYZ1302     0.0000 
     10 S1        147.7690  188.0380  164.2040 S.o2      1 CYZ1302     0.0000 
     11 C9        147.6970  188.8930  162.8150 C.ar      1 CYZ1302     0.0000 
     12 C10       146.7580  189.8310  162.6700 C.ar      1 CYZ1302     0.0000 
     13 N2        145.7600  190.0480  163.8540 N.pl3     1 CYZ1302     0.0000 
     14 C11       148.6300  188.6330  161.7960 C.ar      1 CYZ1302     0.0000 
     15 C12       148.5590  189.3530  160.6480 C.ar      1 CYZ1302     0.0000 
     16 C13       147.5870  190.3250  160.4820 C.ar      1 CYZ1302     0.0000 
     17 C14       146.6770  190.5750  161.4790 C.ar      1 CYZ1302     0.0000 
     18 CL        147.5170  191.2650  158.9500 Cl        1 CYZ1302     0.0000 
     19 S2        149.7860  188.9990  159.3330 S.o2      1 CYZ1302     0.0000 
     20 O1        147.4060  186.6860  163.8710 O.2       1 CYZ1302     0.0000 
     21 O2        149.1700  188.1400  164.6750 O.2       1 CYZ1302     0.0000 
     22 O3        150.9360  188.2130  159.9060 O.2       1 CYZ1302     0.0000 
     23 O4        150.4530  190.2400  158.9020 O.2       1 CYZ1302     0.0000 
     24 N3        149.0280  188.1700  157.9930 N.pl3     1 CYZ1302     0.0000 
@<TRIPOS>BOND
     1    1    2 1    
     2    1    6 1    
     3    1    7 du   
     4    1    8 1    
     5    2    3 du   
     6    2    7 du   
     7    3    4 du   
     8    3    7 du   
     9    4    5 du   
    10    4    7 du   
    11    5    6 1    
    12    5    7 du   
    13    6    7 du   
    14    8    9 1    
    15    8   13 1    
    16    9   10 1    
    17   10   11 1    
    18   10   20 2    
    19   10   21 2    
    20   11   12 ar   
    21   11   14 ar   
    22   12   13 1    
    23   12   17 ar   
    24   14   15 ar   
    25   15   16 ar   
    26   15   19 1    
    27   16   17 ar   
    28   16   18 1    
    29   19   22 2    
    30   19   23 2    
    31   19   24 1    
@<TRIPOS>SUBSTRUCTURE
     1 CYZ1302     1 GROUP   
@<TRIPOS>SET

