#    Name: 6cib_10_ADP_CAVITY_N1_6
#    Modification time : Fri May 22 19:35:46 2020

@<TRIPOS>MOLECULE
6cib_10_ADP_CAVITY_N1_6
   68     0     6     0     0
SMALL
NO_CHARGES


@<TRIPOS>ATOM
      1 OG        -78.0800   14.9400   44.9200 O.3       1 SER1        0.0000 
      2 OG        -77.1300   15.8500   45.6400 O.3       1 SER1        0.0000 
      3 O         -76.7800    9.7300   40.3800 O.2       2 ALA2        0.0000 
      4 O         -76.3700    8.1800   41.7700 O.2       2 ALA2        0.0000 
      5 O         -78.3600   10.4200   41.6100 O.2       2 ALA2        0.0000 
      6 N         -79.3600   11.5400   41.5200 N.am      2 ALA2        0.0000 
      7 O         -75.4200    9.0900   42.4900 O.2       2 ALA2        0.0000 
      8 O         -76.4100   10.2100   42.4100 O.2       2 ALA2        0.0000 
      9 O         -77.4100   11.3300   42.3300 O.2       2 ALA2        0.0000 
     10 O         -74.5500   14.0400   44.4900 O.2       2 ALA2        0.0000 
     11 O         -75.5400   15.1600   44.4100 O.2       2 ALA2        0.0000 
     12 N         -77.5400   17.3900   44.2400 N.am      2 ALA2        0.0000 
     13 O         -76.1300   14.7300   45.7200 O.2       2 ALA2        0.0000 
     14 N         -78.1200   16.9700   45.5600 N.am      2 ALA2        0.0000 
     15 N         -79.1200   18.0800   45.4700 N.am      2 ALA2        0.0000 
     16 O         -75.5800   17.1800   45.0500 O.2       2 ALA2        0.0000 
     17 O         -76.1700   16.7500   46.3600 O.2       2 ALA2        0.0000 
     18 O         -76.7600   16.3200   47.6700 O.2       2 ALA2        0.0000 
     19 N         -76.6200   20.3200   45.6100 N.am      2 ALA2        0.0000 
     20 O         -78.3900   19.0400   49.5400 O.2       2 ALA2        0.0000 
     21 OD1       -74.2400    9.9400   39.8700 O.co2     3 ASP3        0.0000 
     22 OD1       -73.2900   10.8500   40.5900 O.co2     3 ASP3        0.0000 
     23 OD1       -73.8700   10.4200   41.9100 O.co2     3 ASP3        0.0000 
     24 OD1       -75.4600   11.1100   43.1300 O.co2     3 ASP3        0.0000 
     25 OD1       -74.5100   12.0100   43.8600 O.co2     3 ASP3        0.0000 
     26 OD1       -75.5000   13.1300   43.7700 O.co2     3 ASP3        0.0000 
     27 OD1       -77.0900   13.8300   45.0000 O.co2     3 ASP3        0.0000 
     28 OD1       -75.1400   13.6100   45.8100 O.co2     3 ASP3        0.0000 
     29 OD1       -76.7200   14.3000   47.0400 O.co2     3 ASP3        0.0000 
     30 OD1       -77.1700   17.8700   46.2800 O.co2     3 ASP3        0.0000 
     31 OD1       -77.7600   17.4400   47.5900 O.co2     3 ASP3        0.0000 
     32 OD1       -75.6300   19.2000   45.6900 O.co2     3 ASP3        0.0000 
     33 OD1       -77.2100   19.8900   46.9200 O.co2     3 ASP3        0.0000 
     34 OD1       -77.8000   19.4700   48.2300 O.co2     3 ASP3        0.0000 
     35 OD1       -77.8400   21.4900   48.8700 O.co2     3 ASP3        0.0000 
     36 NZ        -77.1900   11.2700   38.9800 N.4       4 LYS4        0.0000 
     37 NZ        -77.7800   10.8500   40.2900 N.4       4 LYS4        0.0000 
     38 NZ        -76.2300   12.1800   39.7000 N.4       4 LYS4        0.0000 
     39 NZ        -76.8200   11.7500   41.0200 N.4       4 LYS4        0.0000 
     40 NZ        -74.4200    7.9700   42.5800 N.4       4 LYS4        0.0000 
     41 NZ        -78.4100   12.4400   42.2400 N.4       4 LYS4        0.0000 
     42 NZ        -74.2800   11.9600   40.5100 N.4       4 LYS4        0.0000 
     43 NZ        -74.4600    9.9900   43.2200 N.4       4 LYS4        0.0000 
     44 NZ        -76.4600   12.2300   43.0500 N.4       4 LYS4        0.0000 
     45 NZ        -73.9200   12.4400   42.5400 N.4       4 LYS4        0.0000 
     46 NZ        -76.5000   14.2500   43.6900 N.4       4 LYS4        0.0000 
     47 NZ        -78.4900   16.4900   43.5200 N.4       4 LYS4        0.0000 
     48 NZ        -76.5400   16.2700   44.3300 N.4       4 LYS4        0.0000 
     49 NZ        -75.9900   18.7200   43.6500 N.4       4 LYS4        0.0000 
     50 CA        -74.6500   11.4900   38.4800 C.3       5 GLY6        0.0000 
     51 CA        -78.5300   18.5100   44.1600 C.3       5 GLY6        0.0000 
     52 CA        -78.7100   16.5400   46.8700 C.3       5 GLY6        0.0000 
     53 CA        -76.9900   19.8400   43.5700 C.3       5 GLY6        0.0000 
     54 CA        -77.5800   19.4100   44.8800 C.3       5 GLY6        0.0000 
     55 CA        -78.1700   18.9900   46.2000 C.3       5 GLY6        0.0000 
     56 CA        -78.7500   18.5600   47.5100 C.3       5 GLY6        0.0000 
     57 CA        -79.7500   19.6800   47.4200 C.3       5 GLY6        0.0000 
     58 CA        -78.2100   21.0100   46.8300 C.3       5 GLY6        0.0000 
     59 CA        -78.8000   20.5800   48.1500 C.3       5 GLY6        0.0000 
     60 CA        -79.7900   21.7000   48.0600 C.3       5 GLY6        0.0000 
     61 CA        -79.3900   20.1600   49.4600 C.3       5 GLY6        0.0000 
     62 DU        -76.1900   10.1600   39.0700 H         6 CUB7        0.0000 
     63 DU        -75.7800    8.6100   40.4600 H         6 CUB7        0.0000 
     64 DU        -75.2400   11.0600   39.7900 H         6 CUB7        0.0000 
     65 DU        -74.8300    9.5200   41.1800 H         6 CUB7        0.0000 
     66 DU        -75.8300   10.6300   41.1000 H         6 CUB7        0.0000 
     67 DU        -74.8700   11.5400   41.8200 H         6 CUB7        0.0000 
     68 DU        -76.5800   18.3000   44.9700 H         6 CUB7        0.0000 
@<TRIPOS>BOND
@<TRIPOS>SUBSTRUCTURE
     1 SER1        1 GROUP   
     2 ALA2        3 GROUP   
     3 ASP3       21 GROUP   
     4 LYS4       36 GROUP   
     5 GLY6       50 GROUP   
     6 CUB7       62 GROUP   
@<TRIPOS>SET

