#    Name: 6cib_10_ADP
#    Modification time : Fri May 22 19:35:45 2020

@<TRIPOS>MOLECULE
6cib_10_ADP
   27    29     1     0     1
SMALL
NO_CHARGES


@<TRIPOS>ATOM
      1 PB        -74.7290   13.9580   45.0730 P.3       1 ADP401      0.0000 
      2 O1B       -75.6710   13.4340   44.0110 O.co2     1 ADP401      0.0000 
      3 O2B       -74.1450   15.3300   44.7890 O.co2     1 ADP401      0.0000 
      4 O3B       -73.6860   12.9680   45.5370 O.co2     1 ADP401      0.0000 
      5 PA        -77.0780   14.6740   46.7070 P.3       1 ADP401      0.0000 
      6 O1A       -78.0330   13.6320   46.1880 O.co2     1 ADP401      0.0000 
      7 O2A       -77.0840   15.0020   48.1760 O.co2     1 ADP401      0.0000 
      8 O3A       -75.5580   14.2030   46.4490 O.3       1 ADP401      0.0000 
      9 O5'       -77.3340   16.0590   45.9400 O.3       1 ADP401      0.0000 
     10 C5'       -77.6700   16.1900   44.5540 C.3       1 ADP401      0.0000 
     11 C4'       -77.4920   17.6560   44.1390 C.3       1 ADP401      0.0000 
     12 O4'       -78.2550   18.5010   45.0170 O.3       1 ADP401      0.0000 
     13 C3'       -76.0460   18.1580   44.2320 C.3       1 ADP401      0.0000 
     14 O3'       -75.8490   19.1660   43.2330 O.3       1 ADP401      0.0000 
     15 C2'       -75.9730   18.7920   45.6120 C.3       1 ADP401      0.0000 
     16 O2'       -74.9540   19.7830   45.7860 O.3       1 ADP401      0.0000 
     17 C1'       -77.3800   19.3660   45.7680 C.3       1 ADP401      0.0000 
     18 N9        -77.7940   19.4340   47.1850 N.pl3     1 ADP401      0.0000 
     19 C8        -77.9710   18.3980   48.0260 C.2       1 ADP401      0.0000 
     20 N7        -78.3420   18.8250   49.2630 N.2       1 ADP401      0.0000 
     21 C5        -78.4180   20.1640   49.2130 C.ar      1 ADP401      0.0000 
     22 C6        -78.7610   21.2480   50.1660 C.ar      1 ADP401      0.0000 
     23 N6        -79.1160   20.9720   51.4470 N.pl3     1 ADP401      0.0000 
     24 N1        -78.7150   22.5190   49.7010 N.ar      1 ADP401      0.0000 
     25 C2        -78.3800   22.8160   48.4290 C.ar      1 ADP401      0.0000 
     26 N3        -78.0590   21.8800   47.5040 N.ar      1 ADP401      0.0000 
     27 C4        -78.0640   20.5610   47.8330 C.ar      1 ADP401      0.0000 
@<TRIPOS>BOND
     1    1    2 ar   
     2    1    3 ar   
     3    1    4 ar   
     4    1    8 1    
     5    5    6 ar   
     6    5    7 ar   
     7    5    8 1    
     8    5    9 1    
     9    9   10 1    
    10   10   11 1    
    11   11   12 1    
    12   11   13 1    
    13   12   17 1    
    14   13   14 1    
    15   13   15 1    
    16   15   16 1    
    17   15   17 1    
    18   17   18 1    
    19   18   19 1    
    20   18   27 1    
    21   19   20 2    
    22   20   21 1    
    23   21   22 ar   
    24   21   27 ar   
    25   22   23 1    
    26   22   24 ar   
    27   24   25 ar   
    28   25   26 ar   
    29   26   27 ar   
@<TRIPOS>SUBSTRUCTURE
     1 ADP401      1 GROUP   
@<TRIPOS>SET
ATOM$ORANGE STATIC     ATOMS   COLORGROUP SYSTEM 
20 10 10 11 11 13 13 15 15 17 17 19 19 21 21 22 22 25 \
25 27 27 

