#    Name: 6cib_10_ADP_CAVITY_N1_4
#    Modification time : Fri May 22 19:35:46 2020

@<TRIPOS>MOLECULE
6cib_10_ADP_CAVITY_N1_4
   49     0     6     0     0
SMALL
NO_CHARGES


@<TRIPOS>ATOM
      1 OG        -78.0800   14.9400   44.9200 O.3       1 SER1        0.0000 
      2 OG        -77.1300   15.8500   45.6400 O.3       1 SER1        0.0000 
      3 O         -76.4100   10.2100   42.4100 O.2       2 ALA2        0.0000 
      4 O         -77.4100   11.3300   42.3300 O.2       2 ALA2        0.0000 
      5 O         -74.5500   14.0400   44.4900 O.2       2 ALA2        0.0000 
      6 O         -75.5400   15.1600   44.4100 O.2       2 ALA2        0.0000 
      7 N         -77.5400   17.3900   44.2400 N.am      2 ALA2        0.0000 
      8 O         -76.1300   14.7300   45.7200 O.2       2 ALA2        0.0000 
      9 N         -78.1200   16.9700   45.5600 N.am      2 ALA2        0.0000 
     10 N         -79.1200   18.0800   45.4700 N.am      2 ALA2        0.0000 
     11 O         -75.5800   17.1800   45.0500 O.2       2 ALA2        0.0000 
     12 O         -76.1700   16.7500   46.3600 O.2       2 ALA2        0.0000 
     13 O         -76.7600   16.3200   47.6700 O.2       2 ALA2        0.0000 
     14 N         -76.6200   20.3200   45.6100 N.am      2 ALA2        0.0000 
     15 O         -78.3900   19.0400   49.5400 O.2       2 ALA2        0.0000 
     16 OD1       -75.4600   11.1100   43.1300 O.co2     3 ASP3        0.0000 
     17 OD1       -74.5100   12.0100   43.8600 O.co2     3 ASP3        0.0000 
     18 OD1       -75.5000   13.1300   43.7700 O.co2     3 ASP3        0.0000 
     19 OD1       -77.0900   13.8300   45.0000 O.co2     3 ASP3        0.0000 
     20 OD1       -75.1400   13.6100   45.8100 O.co2     3 ASP3        0.0000 
     21 OD1       -76.7200   14.3000   47.0400 O.co2     3 ASP3        0.0000 
     22 OD1       -77.1700   17.8700   46.2800 O.co2     3 ASP3        0.0000 
     23 OD1       -77.7600   17.4400   47.5900 O.co2     3 ASP3        0.0000 
     24 OD1       -75.6300   19.2000   45.6900 O.co2     3 ASP3        0.0000 
     25 OD1       -77.2100   19.8900   46.9200 O.co2     3 ASP3        0.0000 
     26 OD1       -77.8000   19.4700   48.2300 O.co2     3 ASP3        0.0000 
     27 OD1       -77.8400   21.4900   48.8700 O.co2     3 ASP3        0.0000 
     28 NZ        -76.8200   11.7500   41.0200 N.4       4 LYS4        0.0000 
     29 NZ        -78.4100   12.4400   42.2400 N.4       4 LYS4        0.0000 
     30 NZ        -74.4600    9.9900   43.2200 N.4       4 LYS4        0.0000 
     31 NZ        -76.4600   12.2300   43.0500 N.4       4 LYS4        0.0000 
     32 NZ        -73.9200   12.4400   42.5400 N.4       4 LYS4        0.0000 
     33 NZ        -76.5000   14.2500   43.6900 N.4       4 LYS4        0.0000 
     34 NZ        -78.4900   16.4900   43.5200 N.4       4 LYS4        0.0000 
     35 NZ        -76.5400   16.2700   44.3300 N.4       4 LYS4        0.0000 
     36 NZ        -75.9900   18.7200   43.6500 N.4       4 LYS4        0.0000 
     37 CA        -78.5300   18.5100   44.1600 C.3       5 GLY6        0.0000 
     38 CA        -78.7100   16.5400   46.8700 C.3       5 GLY6        0.0000 
     39 CA        -76.9900   19.8400   43.5700 C.3       5 GLY6        0.0000 
     40 CA        -77.5800   19.4100   44.8800 C.3       5 GLY6        0.0000 
     41 CA        -78.1700   18.9900   46.2000 C.3       5 GLY6        0.0000 
     42 CA        -78.7500   18.5600   47.5100 C.3       5 GLY6        0.0000 
     43 CA        -79.7500   19.6800   47.4200 C.3       5 GLY6        0.0000 
     44 CA        -78.2100   21.0100   46.8300 C.3       5 GLY6        0.0000 
     45 CA        -78.8000   20.5800   48.1500 C.3       5 GLY6        0.0000 
     46 CA        -79.7900   21.7000   48.0600 C.3       5 GLY6        0.0000 
     47 CA        -79.3900   20.1600   49.4600 C.3       5 GLY6        0.0000 
     48 DU        -74.8700   11.5400   41.8200 H         6 CUB7        0.0000 
     49 DU        -76.5800   18.3000   44.9700 H         6 CUB7        0.0000 
@<TRIPOS>BOND
@<TRIPOS>SUBSTRUCTURE
     1 SER1        1 GROUP   
     2 ALA2        3 GROUP   
     3 ASP3       16 GROUP   
     4 LYS4       28 GROUP   
     5 GLY6       37 GROUP   
     6 CUB7       48 GROUP   
@<TRIPOS>SET

