#    Name: 6cib_10_ADP_CAVITY_N1_8
#    Modification time : Fri May 22 19:35:46 2020

@<TRIPOS>MOLECULE
6cib_10_ADP_CAVITY_N1_8
   93     0     6     0     0
SMALL
NO_CHARGES


@<TRIPOS>ATOM
      1 OG        -78.0800   14.9400   44.9200 O.3       1 SER1        0.0000 
      2 OG        -77.1300   15.8500   45.6400 O.3       1 SER1        0.0000 
      3 O         -77.3300    7.2800   41.0500 O.2       2 ALA2        0.0000 
      4 O         -78.3200    8.4000   40.9700 O.2       2 ALA2        0.0000 
      5 O         -79.3200    9.5200   40.8800 O.2       2 ALA2        0.0000 
      6 O         -76.7800    9.7300   40.3800 O.2       2 ALA2        0.0000 
      7 O         -75.3800    7.0700   41.8600 O.2       2 ALA2        0.0000 
      8 O         -76.3700    8.1800   41.7700 O.2       2 ALA2        0.0000 
      9 O         -78.3600   10.4200   41.6100 O.2       2 ALA2        0.0000 
     10 N         -79.3600   11.5400   41.5200 N.am      2 ALA2        0.0000 
     11 O         -75.4200    9.0900   42.4900 O.2       2 ALA2        0.0000 
     12 O         -76.4100   10.2100   42.4100 O.2       2 ALA2        0.0000 
     13 O         -77.4100   11.3300   42.3300 O.2       2 ALA2        0.0000 
     14 O         -74.5500   14.0400   44.4900 O.2       2 ALA2        0.0000 
     15 O         -75.5400   15.1600   44.4100 O.2       2 ALA2        0.0000 
     16 N         -77.5400   17.3900   44.2400 N.am      2 ALA2        0.0000 
     17 O         -76.1300   14.7300   45.7200 O.2       2 ALA2        0.0000 
     18 N         -78.1200   16.9700   45.5600 N.am      2 ALA2        0.0000 
     19 N         -79.1200   18.0800   45.4700 N.am      2 ALA2        0.0000 
     20 O         -75.5800   17.1800   45.0500 O.2       2 ALA2        0.0000 
     21 O         -76.1700   16.7500   46.3600 O.2       2 ALA2        0.0000 
     22 O         -76.7600   16.3200   47.6700 O.2       2 ALA2        0.0000 
     23 N         -76.6200   20.3200   45.6100 N.am      2 ALA2        0.0000 
     24 O         -78.3900   19.0400   49.5400 O.2       2 ALA2        0.0000 
     25 OD1       -77.5500   10.8000   36.9500 O.co2     3 ASP3        0.0000 
     26 OD1       -75.0100   11.0100   36.4400 O.co2     3 ASP3        0.0000 
     27 OD1       -76.6000   11.7000   37.6700 O.co2     3 ASP3        0.0000 
     28 OD1       -72.6600    9.2500   38.6400 O.co2     3 ASP3        0.0000 
     29 OD1       -72.2500    7.7100   40.0400 O.co2     3 ASP3        0.0000 
     30 OD1       -73.2400    8.8200   39.9500 O.co2     3 ASP3        0.0000 
     31 OD1       -74.2400    9.9400   39.8700 O.co2     3 ASP3        0.0000 
     32 OD1       -73.8300    8.4000   41.2700 O.co2     3 ASP3        0.0000 
     33 OD1       -73.2900   10.8500   40.5900 O.co2     3 ASP3        0.0000 
     34 OD1       -73.8700   10.4200   41.9100 O.co2     3 ASP3        0.0000 
     35 OD1       -75.4600   11.1100   43.1300 O.co2     3 ASP3        0.0000 
     36 OD1       -74.5100   12.0100   43.8600 O.co2     3 ASP3        0.0000 
     37 OD1       -75.5000   13.1300   43.7700 O.co2     3 ASP3        0.0000 
     38 OD1       -77.0900   13.8300   45.0000 O.co2     3 ASP3        0.0000 
     39 OD1       -75.1400   13.6100   45.8100 O.co2     3 ASP3        0.0000 
     40 OD1       -76.7200   14.3000   47.0400 O.co2     3 ASP3        0.0000 
     41 OD1       -77.1700   17.8700   46.2800 O.co2     3 ASP3        0.0000 
     42 OD1       -77.7600   17.4400   47.5900 O.co2     3 ASP3        0.0000 
     43 OD1       -75.6300   19.2000   45.6900 O.co2     3 ASP3        0.0000 
     44 OD1       -77.2100   19.8900   46.9200 O.co2     3 ASP3        0.0000 
     45 OD1       -77.8000   19.4700   48.2300 O.co2     3 ASP3        0.0000 
     46 OD1       -77.8400   21.4900   48.8700 O.co2     3 ASP3        0.0000 
     47 NZ        -78.1400   10.3700   38.2600 N.4       4 LYS4        0.0000 
     48 NZ        -78.7300    9.9400   39.5700 N.4       4 LYS4        0.0000 
     49 NZ        -79.7300   11.0600   39.4900 N.4       4 LYS4        0.0000 
     50 NZ        -77.1900   11.2700   38.9800 N.4       4 LYS4        0.0000 
     51 NZ        -77.7800   10.8500   40.2900 N.4       4 LYS4        0.0000 
     52 NZ        -76.2300   12.1800   39.7000 N.4       4 LYS4        0.0000 
     53 NZ        -76.8200   11.7500   41.0200 N.4       4 LYS4        0.0000 
     54 NZ        -74.4200    7.9700   42.5800 N.4       4 LYS4        0.0000 
     55 NZ        -78.4100   12.4400   42.2400 N.4       4 LYS4        0.0000 
     56 NZ        -74.2800   11.9600   40.5100 N.4       4 LYS4        0.0000 
     57 NZ        -74.4600    9.9900   43.2200 N.4       4 LYS4        0.0000 
     58 NZ        -76.4600   12.2300   43.0500 N.4       4 LYS4        0.0000 
     59 NZ        -73.9200   12.4400   42.5400 N.4       4 LYS4        0.0000 
     60 NZ        -76.5000   14.2500   43.6900 N.4       4 LYS4        0.0000 
     61 NZ        -78.4900   16.4900   43.5200 N.4       4 LYS4        0.0000 
     62 NZ        -76.5400   16.2700   44.3300 N.4       4 LYS4        0.0000 
     63 NZ        -75.9900   18.7200   43.6500 N.4       4 LYS4        0.0000 
     64 CA        -79.6800    9.0400   38.8500 C.3       5 GLY6        0.0000 
     65 CA        -76.3300    6.1600   41.1300 C.3       5 GLY6        0.0000 
     66 CA        -74.6500   11.4900   38.4800 C.3       5 GLY6        0.0000 
     67 CA        -78.5300   18.5100   44.1600 C.3       5 GLY6        0.0000 
     68 CA        -78.7100   16.5400   46.8700 C.3       5 GLY6        0.0000 
     69 CA        -76.9900   19.8400   43.5700 C.3       5 GLY6        0.0000 
     70 CA        -77.5800   19.4100   44.8800 C.3       5 GLY6        0.0000 
     71 CA        -78.1700   18.9900   46.2000 C.3       5 GLY6        0.0000 
     72 CA        -78.7500   18.5600   47.5100 C.3       5 GLY6        0.0000 
     73 CA        -79.7500   19.6800   47.4200 C.3       5 GLY6        0.0000 
     74 CA        -78.2100   21.0100   46.8300 C.3       5 GLY6        0.0000 
     75 CA        -78.8000   20.5800   48.1500 C.3       5 GLY6        0.0000 
     76 CA        -79.7900   21.7000   48.0600 C.3       5 GLY6        0.0000 
     77 CA        -79.3900   20.1600   49.4600 C.3       5 GLY6        0.0000 
     78 DU        -76.5600    9.6800   37.0300 H         6 CUB7        0.0000 
     79 DU        -77.1500    9.2500   38.3400 H         6 CUB7        0.0000 
     80 DU        -76.7400    7.7100   39.7400 H         6 CUB7        0.0000 
     81 DU        -77.7300    8.8300   39.6500 H         6 CUB7        0.0000 
     82 DU        -74.6100    9.4600   37.8400 H         6 CUB7        0.0000 
     83 DU        -75.6000   10.5800   37.7500 H         6 CUB7        0.0000 
     84 DU        -74.2000    7.9200   39.2300 H         6 CUB7        0.0000 
     85 DU        -75.1900    9.0400   39.1500 H         6 CUB7        0.0000 
     86 DU        -76.1900   10.1600   39.0700 H         6 CUB7        0.0000 
     87 DU        -74.7900    7.4900   40.5400 H         6 CUB7        0.0000 
     88 DU        -75.7800    8.6100   40.4600 H         6 CUB7        0.0000 
     89 DU        -75.2400   11.0600   39.7900 H         6 CUB7        0.0000 
     90 DU        -74.8300    9.5200   41.1800 H         6 CUB7        0.0000 
     91 DU        -75.8300   10.6300   41.1000 H         6 CUB7        0.0000 
     92 DU        -74.8700   11.5400   41.8200 H         6 CUB7        0.0000 
     93 DU        -76.5800   18.3000   44.9700 H         6 CUB7        0.0000 
@<TRIPOS>BOND
@<TRIPOS>SUBSTRUCTURE
     1 SER1        1 GROUP   
     2 ALA2        3 GROUP   
     3 ASP3       25 GROUP   
     4 LYS4       47 GROUP   
     5 GLY6       64 GROUP   
     6 CUB7       78 GROUP   
@<TRIPOS>SET

