#    Name: 5ysr_1_5AD
#    Modification time : Fri May 22 19:23:34 2020

@<TRIPOS>MOLECULE
5ysr_1_5AD
   18    20     1     0     0
SMALL
NO_CHARGES


@<TRIPOS>ATOM
      1 N1         77.7370  -84.3970  -21.3860 N.ar      1 5AD501      0.0000 
      2 C2         77.7190  -83.3380  -20.5570 C.ar      1 5AD501      0.0000 
      3 N3         78.2240  -83.3600  -19.3130 N.ar      1 5AD501      0.0000 
      4 C4         78.7890  -84.4820  -18.8160 C.ar      1 5AD501      0.0000 
      5 N9         79.3590  -84.8040  -17.6610 N.pl3     1 5AD501      0.0000 
      6 C8         79.7540  -86.0880  -17.7080 C.2       1 5AD501      0.0000 
      7 N7         79.4610  -86.6320  -18.9180 N.2       1 5AD501      0.0000 
      8 C5         78.8500  -85.6840  -19.6550 C.ar      1 5AD501      0.0000 
      9 C6         78.2730  -85.5810  -21.0160 C.ar      1 5AD501      0.0000 
     10 N6         78.2840  -86.6360  -21.8620 N.pl3     1 5AD501      0.0000 
     11 C1'        79.5080  -83.8820  -16.5170 C.3       1 5AD501      0.0000 
     12 C2'        78.3920  -84.0770  -15.5170 C.3       1 5AD501      0.0000 
     13 C3'        79.0370  -84.6240  -14.2660 C.3       1 5AD501      0.0000 
     14 C4'        80.5310  -84.4760  -14.4920 C.3       1 5AD501      0.0000 
     15 C5'        81.3230  -85.7350  -14.1980 C.3       1 5AD501      0.0000 
     16 O4'        80.7400  -84.1520  -15.8610 O.3       1 5AD501      0.0000 
     17 O2'        77.8930  -82.7710  -15.2550 O.3       1 5AD501      0.0000 
     18 O3'        78.6530  -83.8120  -13.1560 O.3       1 5AD501      0.0000 
@<TRIPOS>BOND
     1    1    2 ar   
     2    1    9 ar   
     3    2    3 ar   
     4    3    4 ar   
     5    4    5 1    
     6    4    8 ar   
     7    5    6 1    
     8    5   11 1    
     9    6    7 2    
    10    7    8 1    
    11    8    9 ar   
    12    9   10 1    
    13   11   12 1    
    14   11   16 1    
    15   12   13 1    
    16   12   17 1    
    17   13   14 1    
    18   13   18 1    
    19   14   15 1    
    20   14   16 1    
@<TRIPOS>SUBSTRUCTURE
     1 5AD501      1 GROUP   
@<TRIPOS>SET

