#    Name: 5ysr_2_5AD
#    Modification time : Fri May 22 19:23:37 2020

@<TRIPOS>MOLECULE
5ysr_2_5AD
   18    20     1     0     0
SMALL
NO_CHARGES


@<TRIPOS>ATOM
      1 N1        110.3080 -114.6040  -32.4900 N.ar      1 5AD501      0.0000 
      2 C2        111.3460 -114.6040  -33.3440 C.ar      1 5AD501      0.0000 
      3 N3        111.2790 -114.1310  -34.6000 N.ar      1 5AD501      0.0000 
      4 C4        110.1320 -113.6120  -35.0890 C.ar      1 5AD501      0.0000 
      5 N9        109.7610 -113.0740  -36.2510 N.pl3     1 5AD501      0.0000 
      6 C8        108.4630 -112.7340  -36.1690 C.2       1 5AD501      0.0000 
      7 N7        107.9560 -113.0200  -34.9400 N.2       1 5AD501      0.0000 
      8 C5        108.9490 -113.5720  -34.2160 C.ar      1 5AD501      0.0000 
      9 C6        109.1010 -114.1160  -32.8480 C.ar      1 5AD501      0.0000 
     10 N6        108.0600 -114.1240  -31.9850 N.pl3     1 5AD501      0.0000 
     11 C1'       110.6170 -112.9200  -37.4500 C.3       1 5AD501      0.0000 
     12 C2'       110.1580 -113.9580  -38.4550 C.3       1 5AD501      0.0000 
     13 C3'       109.6640 -113.2030  -39.6550 C.3       1 5AD501      0.0000 
     14 C4'       110.0980 -111.7690  -39.4310 C.3       1 5AD501      0.0000 
     15 C5'       108.9980 -110.7880  -39.8060 C.3       1 5AD501      0.0000 
     16 O4'       110.4350 -111.6390  -38.0490 O.3       1 5AD501      0.0000 
     17 O2'       111.2730 -114.7320  -38.8740 O.3       1 5AD501      0.0000 
     18 O3'       110.3380 -113.7400  -40.7890 O.3       1 5AD501      0.0000 
@<TRIPOS>BOND
     1    1    2 ar   
     2    1    9 ar   
     3    2    3 ar   
     4    3    4 ar   
     5    4    5 1    
     6    4    8 ar   
     7    5    6 1    
     8    5   11 1    
     9    6    7 2    
    10    7    8 1    
    11    8    9 ar   
    12    9   10 1    
    13   11   12 1    
    14   11   16 1    
    15   12   13 1    
    16   12   17 1    
    17   13   14 1    
    18   13   18 1    
    19   14   15 1    
    20   14   16 1    
@<TRIPOS>SUBSTRUCTURE
     1 5AD501      1 GROUP   
@<TRIPOS>SET

