#    Name: 5ysr_1_5AD_CAVITY_N1_6
#    Modification time : Fri May 22 19:23:34 2020

@<TRIPOS>MOLECULE
5ysr_1_5AD_CAVITY_N1_6
   93     0     6     0     0
SMALL
NO_CHARGES


@<TRIPOS>ATOM
      1 OG         77.5800  -84.9200  -19.2700 O.3       1 SER1        0.0000 
      2 OG         76.4500  -84.7700  -18.2900 O.3       1 SER1        0.0000 
      3 OG         78.4500  -84.0600  -18.4000 O.3       1 SER1        0.0000 
      4 OG         76.1900  -83.7600  -16.4400 O.3       1 SER1        0.0000 
      5 OG         75.0700  -83.6100  -15.4600 O.3       1 SER1        0.0000 
      6 OG         77.7900  -85.1300  -16.6800 O.3       1 SER1        0.0000 
      7 OG         76.6700  -84.9800  -15.7000 O.3       1 SER1        0.0000 
      8 OG         75.4600  -81.5300  -15.3300 O.3       1 SER1        0.0000 
      9 OG         75.9400  -82.7400  -14.5900 O.3       1 SER1        0.0000 
     10 OG         78.6600  -84.2700  -15.8200 O.3       1 SER1        0.0000 
     11 OG         77.5400  -84.1100  -14.8400 O.3       1 SER1        0.0000 
     12 OG         76.3300  -80.6600  -14.4600 O.3       1 SER1        0.0000 
     13 OG         77.9300  -82.0300  -14.7100 O.3       1 SER1        0.0000 
     14 OG         78.4100  -83.2500  -13.9700 O.3       1 SER1        0.0000 
     15 N          78.7000  -85.0800  -20.2400 N.am      2 ALA2        0.0000 
     16 N          79.1800  -86.2900  -19.5100 N.am      2 ALA2        0.0000 
     17 O          74.9900  -80.3100  -16.0600 O.2       2 ALA2        0.0000 
     18 O          73.8600  -80.1500  -15.0800 O.2       2 ALA2        0.0000 
     19 N          74.7300  -79.2900  -14.2200 N.am      2 ALA2        0.0000 
     20 N          75.2100  -80.5100  -13.4800 N.am      2 ALA2        0.0000 
     21 O          74.0800  -80.3600  -12.5000 O.2       2 ALA2        0.0000 
     22 N          76.8100  -81.8800  -13.7300 N.am      2 ALA2        0.0000 
     23 N          75.6800  -81.7300  -12.7500 N.am      2 ALA2        0.0000 
     24 O          80.0100  -84.6200  -14.2200 O.2       2 ALA2        0.0000 
     25 O          78.8800  -84.4700  -13.2400 O.2       2 ALA2        0.0000 
     26 N          75.4300  -80.7200  -10.9000 N.am      2 ALA2        0.0000 
     27 O          79.2800  -82.3900  -13.1100 O.2       2 ALA2        0.0000 
     28 N          78.1500  -82.2400  -12.1300 N.am      2 ALA2        0.0000 
     29 N          77.0300  -82.0900  -11.1500 N.am      2 ALA2        0.0000 
     30 N          75.9000  -81.9300  -10.1700 N.am      2 ALA2        0.0000 
     31 O          78.6300  -83.4600  -11.3900 O.2       2 ALA2        0.0000 
     32 NZ         79.7900  -84.4200  -16.8000 N.4       3 LYS4        0.0000 
     33 NZ         79.5400  -83.4000  -14.9500 N.4       3 LYS4        0.0000 
     34 NZ         81.1400  -84.7800  -15.2000 N.4       3 LYS4        0.0000 
     35 CZ         74.7100  -86.4900  -20.0200 C.ar      4 PHE5        0.0000 
     36 CZ         73.5800  -86.3400  -19.0400 C.ar      4 PHE5        0.0000 
     37 CZ         76.2300  -84.5700  -20.8700 C.ar      4 PHE5        0.0000 
     38 CZ         75.5800  -85.6300  -19.1500 C.ar      4 PHE5        0.0000 
     39 CZ         74.4500  -85.4800  -18.1700 C.ar      4 PHE5        0.0000 
     40 CZ         73.3300  -85.3300  -17.1900 C.ar      4 PHE5        0.0000 
     41 CZ         76.5300  -88.0700  -17.6800 C.ar      4 PHE5        0.0000 
     42 CZ         74.8500  -83.4000  -18.0400 C.ar      4 PHE5        0.0000 
     43 CZ         73.7200  -83.2500  -17.0600 C.ar      4 PHE5        0.0000 
     44 CZ         72.6000  -83.1000  -16.0800 C.ar      4 PHE5        0.0000 
     45 CZ         75.3200  -84.6200  -17.3100 C.ar      4 PHE5        0.0000 
     46 CZ         74.2000  -84.4700  -16.3300 C.ar      4 PHE5        0.0000 
     47 CZ         79.6500  -87.5100  -18.7700 C.ar      4 PHE5        0.0000 
     48 CZ         78.5300  -87.3600  -17.8000 C.ar      4 PHE5        0.0000 
     49 CZ         77.4000  -87.2100  -16.8200 C.ar      4 PHE5        0.0000 
     50 CZ         79.4000  -86.5000  -16.9300 C.ar      4 PHE5        0.0000 
     51 CZ         78.2700  -86.3500  -15.9500 C.ar      4 PHE5        0.0000 
     52 CZ         77.1400  -86.1900  -14.9700 C.ar      4 PHE5        0.0000 
     53 CZ         72.7400  -80.0000  -14.1000 C.ar      4 PHE5        0.0000 
     54 CZ         80.2700  -85.6400  -16.0600 C.ar      4 PHE5        0.0000 
     55 CZ         79.1400  -85.4800  -15.0800 C.ar      4 PHE5        0.0000 
     56 CZ         78.0100  -85.3300  -14.1000 C.ar      4 PHE5        0.0000 
     57 CZ         78.4900  -86.5500  -13.3700 C.ar      4 PHE5        0.0000 
     58 CA         74.3100  -88.5700  -20.1500 C.3       5 GLY6        0.0000 
     59 CA         76.3100  -87.8700  -20.2600 C.3       5 GLY6        0.0000 
     60 CA         75.1800  -87.7100  -19.2800 C.3       5 GLY6        0.0000 
     61 CA         75.6600  -88.9300  -18.5500 C.3       5 GLY6        0.0000 
     62 CA         77.8300  -85.9400  -21.1100 C.3       5 GLY6        0.0000 
     63 CA         76.7100  -85.7900  -20.1300 C.3       5 GLY6        0.0000 
     64 CA         78.3100  -87.1600  -20.3800 C.3       5 GLY6        0.0000 
     65 CA         77.1800  -87.0000  -19.4000 C.3       5 GLY6        0.0000 
     66 CA         77.6500  -88.2200  -18.6600 C.3       5 GLY6        0.0000 
     67 CA         77.1000  -83.7100  -20.0000 C.3       5 GLY6        0.0000 
     68 CA         75.9700  -83.5500  -19.0200 C.3       5 GLY6        0.0000 
     69 CA         74.1200  -81.1700  -16.9300 C.3       5 GLY6        0.0000 
     70 CA         72.9900  -81.0200  -15.9500 C.3       5 GLY6        0.0000 
     71 CA         74.5900  -82.3900  -16.2000 C.3       5 GLY6        0.0000 
     72 CA         80.0500  -85.4300  -18.6400 C.3       5 GLY6        0.0000 
     73 CA         80.5200  -86.6500  -17.9100 C.3       5 GLY6        0.0000 
     74 DU         74.0600  -87.5600  -18.3000 H         6 CUB7        0.0000 
     75 DU         76.0500  -86.8500  -18.4200 H         6 CUB7        0.0000 
     76 DU         74.9300  -86.7000  -17.4400 H         6 CUB7        0.0000 
     77 DU         78.0500  -86.1400  -18.5300 H         6 CUB7        0.0000 
     78 DU         76.9200  -85.9900  -17.5500 H         6 CUB7        0.0000 
     79 DU         75.8000  -85.8400  -16.5700 H         6 CUB7        0.0000 
     80 DU         74.6700  -85.6900  -15.5900 H         6 CUB7        0.0000 
     81 DU         73.4700  -82.2300  -15.2200 H         6 CUB7        0.0000 
     82 DU         78.9200  -85.2800  -17.6600 H         6 CUB7        0.0000 
     83 DU         75.5400  -84.8200  -14.7300 H         6 CUB7        0.0000 
     84 DU         74.3400  -81.3700  -14.3500 H         6 CUB7        0.0000 
     85 DU         73.2100  -81.2200  -13.3700 H         6 CUB7        0.0000 
     86 DU         74.8100  -82.5900  -13.6100 H         6 CUB7        0.0000 
     87 DU         76.4100  -83.9600  -13.8600 H         6 CUB7        0.0000 
     88 DU         76.8900  -85.1800  -13.1200 H         6 CUB7        0.0000 
     89 DU         74.5600  -81.5800  -11.7700 H         6 CUB7        0.0000 
     90 DU         77.2800  -83.1000  -12.9900 H         6 CUB7        0.0000 
     91 DU         76.1600  -82.9500  -12.0100 H         6 CUB7        0.0000 
     92 DU         75.0300  -82.8000  -11.0300 H         6 CUB7        0.0000 
     93 DU         77.7600  -84.3200  -12.2600 H         6 CUB7        0.0000 
@<TRIPOS>BOND
@<TRIPOS>SUBSTRUCTURE
     1 SER1        1 GROUP   
     2 ALA2       15 GROUP   
     3 LYS4       32 GROUP   
     4 PHE5       35 GROUP   
     5 GLY6       58 GROUP   
     6 CUB7       74 GROUP   
@<TRIPOS>SET

