#    Name: 5ysr_2_5AD_CAVITY_N1_ALL
#    Modification time : Fri May 22 19:23:38 2020

@<TRIPOS>MOLECULE
5ysr_2_5AD_CAVITY_N1_ALL
   70     0     6     0     0
SMALL
NO_CHARGES


@<TRIPOS>ATOM
      1 OG        106.0000 -119.6800  -34.0300 O.3       1 SER1        0.0000 
      2 OG        110.8200 -114.9100  -38.4200 O.3       1 SER1        0.0000 
      3 OG        109.7000 -114.7600  -37.4400 O.3       1 SER1        0.0000 
      4 OG        110.1700 -115.9800  -36.7000 O.3       1 SER1        0.0000 
      5 OG        111.2200 -112.8300  -38.2900 O.3       1 SER1        0.0000 
      6 OG        110.5700 -113.9000  -36.5700 O.3       1 SER1        0.0000 
      7 OG        111.0400 -115.1200  -35.8400 O.3       1 SER1        0.0000 
      8 OG        111.4400 -113.0400  -35.7100 O.3       1 SER1        0.0000 
      9 O         110.1300 -113.4900  -41.7300 O.2       2 ALA2        0.0000 
     10 O         109.4000 -111.2600  -40.6200 O.2       2 ALA2        0.0000 
     11 O         109.8700 -112.4800  -39.8900 O.2       2 ALA2        0.0000 
     12 N         109.1800 -112.7300  -33.7500 N.am      2 ALA2        0.0000 
     13 N         110.7900 -114.1000  -33.9900 N.am      2 ALA2        0.0000 
     14 N         109.6600 -113.9500  -33.0100 N.am      2 ALA2        0.0000 
     15 N         111.2600 -115.3200  -33.2600 N.am      2 ALA2        0.0000 
     16 NZ        110.7400 -111.6100  -39.0200 N.4       3 LYS4        0.0000 
     17 NZ        109.6200 -111.4600  -38.0400 N.4       3 LYS4        0.0000 
     18 NZ        110.0900 -112.6800  -37.3100 N.4       3 LYS4        0.0000 
     19 NZ        110.9600 -111.8200  -36.4400 N.4       3 LYS4        0.0000 
     20 CZ        105.7000 -116.1800  -37.2100 C.ar      4 PHE5        0.0000 
     21 CZ        109.0000 -113.3400  -40.7500 C.ar      4 PHE5        0.0000 
     22 CZ        109.4800 -114.5600  -40.0200 C.ar      4 PHE5        0.0000 
     23 CZ        108.3500 -114.4000  -39.0400 C.ar      4 PHE5        0.0000 
     24 CZ        108.8300 -115.6200  -38.3000 C.ar      4 PHE5        0.0000 
     25 CZ        107.7000 -115.4700  -37.3200 C.ar      4 PHE5        0.0000 
     26 CZ        106.5700 -115.3200  -36.3500 C.ar      4 PHE5        0.0000 
     27 CZ        108.6500 -117.9100  -35.8500 C.ar      4 PHE5        0.0000 
     28 CZ        109.1200 -119.1300  -35.1200 C.ar      4 PHE5        0.0000 
     29 CZ        108.0000 -118.9700  -34.1400 C.ar      4 PHE5        0.0000 
     30 CZ        108.4700 -120.1900  -33.4100 C.ar      4 PHE5        0.0000 
     31 CZ        108.2700 -111.1100  -39.6400 C.ar      4 PHE5        0.0000 
     32 CZ        108.7500 -112.3200  -38.9100 C.ar      4 PHE5        0.0000 
     33 CZ        109.2200 -113.5400  -38.1700 C.ar      4 PHE5        0.0000 
     34 CZ        108.1000 -113.3900  -37.1900 C.ar      4 PHE5        0.0000 
     35 CZ        108.5700 -114.6100  -36.4600 C.ar      4 PHE5        0.0000 
     36 CZ        107.4400 -114.4600  -35.4800 C.ar      4 PHE5        0.0000 
     37 CZ        110.6500 -117.2000  -35.9700 C.ar      4 PHE5        0.0000 
     38 CZ        109.5200 -117.0500  -34.9900 C.ar      4 PHE5        0.0000 
     39 CZ        110.3900 -116.1800  -34.1200 C.ar      4 PHE5        0.0000 
     40 CA        109.2600 -114.3500  -42.6000 C.3       5 GLY6        0.0000 
     41 CA        108.1300 -114.2000  -41.6200 C.3       5 GLY6        0.0000 
     42 CA        105.0500 -117.2500  -35.5000 C.3       5 GLY6        0.0000 
     43 CA        105.5300 -118.4600  -34.7600 C.3       5 GLY6        0.0000 
     44 CA        107.0500 -116.5400  -35.6100 C.3       5 GLY6        0.0000 
     45 CA        106.4000 -117.6000  -33.9000 C.3       5 GLY6        0.0000 
     46 CA        106.8700 -118.8200  -33.1600 C.3       5 GLY6        0.0000 
     47 CA        106.3200 -114.3000  -34.5000 C.3       5 GLY6        0.0000 
     48 CA        107.9200 -115.6800  -34.7400 C.3       5 GLY6        0.0000 
     49 CA        106.7900 -115.5200  -33.7600 C.3       5 GLY6        0.0000 
     50 CA        108.3900 -116.8900  -34.0100 C.3       5 GLY6        0.0000 
     51 CA        107.2700 -116.7400  -33.0300 C.3       5 GLY6        0.0000 
     52 CA        108.8700 -118.1100  -33.2700 C.3       5 GLY6        0.0000 
     53 CA        108.4900 -111.3100  -37.0600 C.3       5 GLY6        0.0000 
     54 CA        108.9700 -112.5300  -36.3300 C.3       5 GLY6        0.0000 
     55 CA        107.8400 -112.3800  -35.3500 C.3       5 GLY6        0.0000 
     56 CA        109.4400 -113.7500  -35.5900 C.3       5 GLY6        0.0000 
     57 CA        108.3100 -113.5900  -34.6100 C.3       5 GLY6        0.0000 
     58 CA        107.6600 -114.6600  -32.9000 C.3       5 GLY6        0.0000 
     59 CA        109.2600 -116.0300  -33.1400 C.3       5 GLY6        0.0000 
     60 CA        110.3100 -112.8900  -34.7300 C.3       5 GLY6        0.0000 
     61 DU        106.6500 -118.6200  -35.7400 H         6 CUB7        0.0000 
     62 DU        107.1300 -119.8400  -35.0100 H         6 CUB7        0.0000 
     63 DU        110.6000 -114.7100  -41.0000 H         6 CUB7        0.0000 
     64 DU        109.3000 -116.8400  -37.5700 H         6 CUB7        0.0000 
     65 DU        108.1700 -116.6900  -36.5900 H         6 CUB7        0.0000 
     66 DU        107.5200 -117.7600  -34.8800 H         6 CUB7        0.0000 
     67 DU        110.3500 -113.6900  -39.1500 H         6 CUB7        0.0000 
     68 DU        109.0500 -115.8300  -35.7200 H         6 CUB7        0.0000 
     69 DU        109.9200 -114.9700  -34.8600 H         6 CUB7        0.0000 
     70 DU        108.7900 -114.8100  -33.8800 H         6 CUB7        0.0000 
@<TRIPOS>BOND
@<TRIPOS>SUBSTRUCTURE
     1 SER1        1 GROUP   
     2 ALA2        9 GROUP   
     3 LYS4       16 GROUP   
     4 PHE5       20 GROUP   
     5 GLY6       40 GROUP   
     6 CUB7       61 GROUP   
@<TRIPOS>SET

