#    Name: 6a06_1_1SY
#    Modification time : Fri May 22 19:24:29 2020

@<TRIPOS>MOLECULE
6a06_1_1SY
   45    51     1     0     0
SMALL
NO_CHARGES


@<TRIPOS>ATOM
      1 C2         24.6300    0.3890  -24.3710 C.ar      1 1SY403      0.0000 
      2 N01        26.7490    1.6710  -21.7960 N.pl3     1 1SY403      0.0000 
      3 C6         25.4920    1.4030  -22.4640 C.ar      1 1SY403      0.0000 
      4 N1         25.6900    0.7360  -23.5950 N.ar      1 1SY403      0.0000 
      5 N3         23.3720    0.7260  -23.9830 N.ar      1 1SY403      0.0000 
      6 C4         23.1880    1.4070  -22.8440 C.ar      1 1SY403      0.0000 
      7 C5         24.2240    1.7480  -22.0740 C.ar      1 1SY403      0.0000 
      8 N7         23.7500    2.4160  -21.0060 N.2       1 1SY403      0.0000 
      9 C8         22.4080    2.4720  -21.1090 C.2       1 1SY403      0.0000 
     10 N9         22.0680    1.8460  -22.2500 N.pl3     1 1SY403      0.0000 
     11 C1'        20.7310    1.7090  -22.7320 C.3       1 1SY403      0.0000 
     12 C2'        20.1860    0.3370  -22.4580 C.3       1 1SY403      0.0000 
     13 O2'        19.2510    0.0050  -23.4760 O.3       1 1SY403      0.0000 
     14 C3'        19.4890    0.5390  -21.1690 C.3       1 1SY403      0.0000 
     15 C4'        18.8040    1.7870  -21.4160 C.3       1 1SY403      0.0000 
     16 C16        18.4390    2.5060  -20.0920 C.3       1 1SY403      0.0000 
     17 O17        19.6970    2.6900  -19.4400 O.3       1 1SY403      0.0000 
     18 P18        19.8040    3.4070  -17.8900 P.3       1 1SY403      0.0000 
     19 O19        21.2290    3.7770  -17.5390 O.co2     1 1SY403      0.0000 
     20 O20        19.0430    2.4260  -16.7920 O.3       1 1SY403      0.0000 
     21 C21        19.2290    0.9910  -17.0110 C.3       1 1SY403      0.0000 
     22 C22        17.8930    0.4100  -17.0120 C.3       1 1SY403      0.0000 
     23 O23        17.0980    1.0740  -16.0260 O.3       1 1SY403      0.0000 
     24 C24        18.0900   -1.0360  -16.6320 C.3       1 1SY403      0.0000 
     25 C25        18.2480   -1.8900  -17.8030 C.3       1 1SY403      0.0000 
     26 O26        19.3400   -1.3680  -18.6070 O.3       1 1SY403      0.0000 
     27 P27        19.2220   -1.8960  -20.1920 P.3       1 1SY403      0.0000 
     28 O28        18.5450   -0.5390  -20.9270 O.3       1 1SY403      0.0000 
     29 O29        20.6570   -2.0550  -20.6320 O.co2     1 1SY403      0.0000 
     30 O30        18.4020   -3.1410  -20.3840 O.co2     1 1SY403      0.0000 
     31 O31        19.3310   -1.0470  -15.8090 O.3       1 1SY403      0.0000 
     32 C32        19.8570    0.3000  -15.8960 C.3       1 1SY403      0.0000 
     33 N33        21.3000    0.1560  -16.1130 N.pl3     1 1SY403      0.0000 
     34 C34        21.7760   -0.2480  -17.3030 C.2       1 1SY403      0.0000 
     35 N35        23.1260   -0.2870  -17.2460 N.2       1 1SY403      0.0000 
     36 C36        22.3160    0.3610  -15.3300 C.2       1 1SY403      0.0000 
     37 C37        23.4690    0.0870  -16.0150 C.2       1 1SY403      0.0000 
     38 C38        24.8130    0.2630  -15.3140 C.2       1 1SY403      0.0000 
     39 N39        24.7990    0.6980  -13.9660 N.2       1 1SY403      0.0000 
     40 C40        23.5850    0.9660  -13.2640 C.2       1 1SY403      0.0000 
     41 N41        23.6320    1.3870  -11.8840 N.pl3     1 1SY403      0.0000 
     42 N42        22.3030    0.8130  -13.9180 N.pl3     1 1SY403      0.0000 
     43 O43        25.8590    0.0580  -15.8590 O.2       1 1SY403      0.0000 
     44 O44        18.9340    4.6350  -17.9280 O.co2     1 1SY403      0.0000 
     45 O4'        19.8140    2.6100  -22.0840 O.3       1 1SY403      0.0000 
@<TRIPOS>BOND
     1    1    4 ar   
     2    1    5 ar   
     3    2    3 1    
     4    3    4 ar   
     5    3    7 ar   
     6    5    6 ar   
     7    6    7 ar   
     8    6   10 1    
     9    7    8 1    
    10    8    9 2    
    11    9   10 1    
    12   10   11 1    
    13   11   12 1    
    14   11   45 1    
    15   12   13 1    
    16   12   14 1    
    17   14   15 1    
    18   14   28 1    
    19   15   16 1    
    20   15   45 1    
    21   16   17 1    
    22   17   18 1    
    23   18   19 ar   
    24   18   20 1    
    25   18   44 ar   
    26   20   21 1    
    27   21   22 1    
    28   21   32 1    
    29   22   23 1    
    30   22   24 1    
    31   24   25 1    
    32   24   31 1    
    33   25   26 1    
    34   26   27 1    
    35   27   28 1    
    36   27   29 ar   
    37   27   30 ar   
    38   31   32 1    
    39   32   33 1    
    40   33   34 1    
    41   33   36 1    
    42   34   35 2    
    43   35   37 1    
    44   36   37 2    
    45   36   42 1    
    46   37   38 1    
    47   38   39 1    
    48   38   43 2    
    49   39   40 2    
    50   40   41 1    
    51   40   42 1    
@<TRIPOS>SUBSTRUCTURE
     1 1SY403      1 GROUP   
@<TRIPOS>SET

