#    Name: 6a06_1_1SY_CAVITY_N1_6
#    Modification time : Fri May 22 19:24:31 2020

@<TRIPOS>MOLECULE
6a06_1_1SY_CAVITY_N1_6
   74     0     6     0     0
SMALL
NO_CHARGES


@<TRIPOS>ATOM
      1 OG         17.5300    1.4800  -20.3700 O.3       1 SER1        0.0000 
      2 OG         16.7300    0.3800  -19.7200 O.3       1 SER1        0.0000 
      3 OG         17.8700   -0.5700  -19.9100 O.3       1 SER1        0.0000 
      4 OG         18.0700    1.8700  -19.0300 O.3       1 SER1        0.0000 
      5 OG         17.2700    0.7700  -18.3800 O.3       1 SER1        0.0000 
      6 OG         18.4200   -0.1800  -18.5700 O.3       1 SER1        0.0000 
      7 OG         17.6100   -1.2700  -17.9300 O.3       1 SER1        0.0000 
      8 OG         18.6200    2.2600  -17.6800 O.3       1 SER1        0.0000 
      9 OG         17.8200    1.1600  -17.0400 O.3       1 SER1        0.0000 
     10 OG         17.0200    0.0700  -16.4000 O.3       1 SER1        0.0000 
     11 OG         18.1600   -0.8800  -16.5900 O.3       1 SER1        0.0000 
     12 OG         20.0500    0.9900  -14.5500 O.3       1 SER1        0.0000 
     13 OG         21.2000    0.0400  -14.7300 O.3       1 SER1        0.0000 
     14 OG         22.5400    1.5200  -14.0400 O.3       1 SER1        0.0000 
     15 N          18.3300    2.5700  -21.0100 N.am      2 ALA2        0.0000 
     16 N          17.7300    3.9100  -19.4800 N.am      2 ALA2        0.0000 
     17 N          19.6700    4.0500  -20.3100 N.am      2 ALA2        0.0000 
     18 N          20.8200    3.1000  -20.5000 N.am      2 ALA2        0.0000 
     19 N          18.7600   -2.2200  -18.1200 N.am      2 ALA2        0.0000 
     20 N          20.2200    4.4400  -18.9700 N.am      2 ALA2        0.0000 
     21 N          21.2500   -1.6900  -17.6100 N.am      2 ALA2        0.0000 
     22 OD1        21.2200   -0.6700  -22.9200 O.co2     3 ASP3        0.0000 
     23 OD1        20.6200    0.6700  -21.3900 O.co2     3 ASP3        0.0000 
     24 OD1        19.8200   -0.4300  -20.7500 O.co2     3 ASP3        0.0000 
     25 OD1        20.9600   -1.3800  -20.9300 O.co2     3 ASP3        0.0000 
     26 OD1        20.1600   -2.4700  -20.2900 O.co2     3 ASP3        0.0000 
     27 OD1        21.9600    2.1500  -20.6900 O.co2     3 ASP3        0.0000 
     28 OD1        21.1600    1.0600  -20.0500 O.co2     3 ASP3        0.0000 
     29 OD1        20.3600   -0.0400  -19.4000 O.co2     3 ASP3        0.0000 
     30 OD1        19.5600   -1.1300  -18.7600 O.co2     3 ASP3        0.0000 
     31 OD1        20.7100   -2.0800  -18.9500 O.co2     3 ASP3        0.0000 
     32 OD1        21.3600    3.4900  -19.1600 O.co2     3 ASP3        0.0000 
     33 OD1        20.5600    2.4000  -18.5200 O.co2     3 ASP3        0.0000 
     34 OD1        21.7100    1.4500  -18.7000 O.co2     3 ASP3        0.0000 
     35 OD1        20.9100    0.3500  -18.0600 O.co2     3 ASP3        0.0000 
     36 OD1        21.1100    2.7900  -17.1700 O.co2     3 ASP3        0.0000 
     37 OD1        21.4500    0.7400  -16.7200 O.co2     3 ASP3        0.0000 
     38 OD1        22.6000   -0.2100  -16.9100 O.co2     3 ASP3        0.0000 
     39 OD1        22.0000    1.1300  -15.3800 O.co2     3 ASP3        0.0000 
     40 OD1        23.1400    0.1800  -15.5700 O.co2     3 ASP3        0.0000 
     41 CZ         18.9300    1.2300  -22.5400 C.ar      4 PHE5        0.0000 
     42 CZ         21.4200    1.7600  -22.0300 C.ar      4 PHE5        0.0000 
     43 CZ         18.7100   -0.4900  -15.2400 C.ar      4 PHE5        0.0000 
     44 CZ         21.8000   -1.3000  -16.2700 C.ar      4 PHE5        0.0000 
     45 CZ         23.6900    0.5700  -14.2300 C.ar      4 PHE5        0.0000 
     46 CA         18.7300   -1.2100  -23.4300 C.3       5 GLY6        0.0000 
     47 CA         17.7800    2.1800  -22.3500 C.3       5 GLY6        0.0000 
     48 CA         19.7300    2.3200  -23.1800 C.3       5 GLY6        0.0000 
     49 CA         18.1300    0.1300  -21.9000 C.3       5 GLY6        0.0000 
     50 CA         17.3300   -0.9600  -21.2500 C.3       5 GLY6        0.0000 
     51 CA         20.0700    0.2800  -22.7300 C.3       5 GLY6        0.0000 
     52 CA         19.2700   -0.8200  -22.0900 C.3       5 GLY6        0.0000 
     53 CA         18.4700   -1.9100  -21.4400 C.3       5 GLY6        0.0000 
     54 CA         20.4200   -1.7700  -22.2800 C.3       5 GLY6        0.0000 
     55 CA         19.6200   -2.8600  -21.6300 C.3       5 GLY6        0.0000 
     56 CA         19.1300    3.6600  -21.6500 C.3       5 GLY6        0.0000 
     57 CA         20.2700    2.7100  -21.8400 C.3       5 GLY6        0.0000 
     58 CA         19.3100   -1.8300  -16.7700 C.3       5 GLY6        0.0000 
     59 CA         19.9600    3.7400  -16.9800 C.3       5 GLY6        0.0000 
     60 CA         19.1600    2.6500  -16.3400 C.3       5 GLY6        0.0000 
     61 CA         18.3600    1.5500  -15.7000 C.3       5 GLY6        0.0000 
     62 CA         20.3100    1.7000  -16.5300 C.3       5 GLY6        0.0000 
     63 CA         19.5100    0.6000  -15.8900 C.3       5 GLY6        0.0000 
     64 CA         20.6500   -0.3500  -16.0800 C.3       5 GLY6        0.0000 
     65 CA         19.8500   -1.4400  -15.4300 C.3       5 GLY6        0.0000 
     66 DU         19.4700    1.6200  -21.2000 H         6 CUB7        0.0000 
     67 DU         18.6700    0.5200  -20.5600 H         6 CUB7        0.0000 
     68 DU         19.0200   -1.5200  -20.1000 H         6 CUB7        0.0000 
     69 DU         20.0200    2.0100  -19.8600 H         6 CUB7        0.0000 
     70 DU         19.2200    0.9100  -19.2100 H         6 CUB7        0.0000 
     71 DU         19.4200    3.3500  -18.3300 H         6 CUB7        0.0000 
     72 DU         19.7600    1.3000  -17.8700 H         6 CUB7        0.0000 
     73 DU         18.9600    0.2100  -17.2300 H         6 CUB7        0.0000 
     74 DU         20.1100   -0.7400  -17.4200 H         6 CUB7        0.0000 
@<TRIPOS>BOND
@<TRIPOS>SUBSTRUCTURE
     1 SER1        1 GROUP   
     2 ALA2       15 GROUP   
     3 ASP3       22 GROUP   
     4 PHE5       41 GROUP   
     5 GLY6       46 GROUP   
     6 CUB7       66 GROUP   
@<TRIPOS>SET

