#    Name: 5zcl_2_A8S
#    Modification time : Fri May 22 19:24:57 2020

@<TRIPOS>MOLECULE
5zcl_2_A8S
   19    19     1     0     0
SMALL
NO_CHARGES


@<TRIPOS>ATOM
      1 C1         30.1660   55.4400   46.2650 C.2       1 A8S301      0.0000 
      2 C2         31.4780   56.1880   46.2600 C.2       1 A8S301      0.0000 
      3 C3         32.2690   56.3270   45.1800 C.2       1 A8S301      0.0000 
      4 C4         31.9320   55.7320   43.8870 C.2       1 A8S301      0.0000 
      5 C5         32.8220   55.5980   42.8990 C.2       1 A8S301      0.0000 
      6 C6         33.5520   57.0890   45.2990 C.3       1 A8S301      0.0000 
      7 C7         32.4660   54.9600   41.5940 C.3       1 A8S301      0.0000 
      8 O7         31.3730   54.0670   41.6570 O.3       1 A8S301      0.0000 
      9 C8         32.1140   56.0050   40.5860 C.2       1 A8S301      0.0000 
     10 C9         33.0270   56.6140   39.8360 C.2       1 A8S301      0.0000 
     11 C10        34.3970   56.0980   39.7300 C.2       1 A8S301      0.0000 
     12 O10        35.1690   56.4870   38.8590 O.2       1 A8S301      0.0000 
     13 C11        34.8080   55.0560   40.7380 C.3       1 A8S301      0.0000 
     14 O11        29.7140   55.0710   47.4020 O.co2     1 A8S301      0.0000 
     15 C12        33.6720   54.1050   41.1010 C.3       1 A8S301      0.0000 
     16 O12        29.5930   55.2310   45.1870 O.co2     1 A8S301      0.0000 
     17 C13        30.7190   56.4850   40.5910 C.3       1 A8S301      0.0000 
     18 C14        33.2950   53.2930   39.8520 C.3       1 A8S301      0.0000 
     19 C15        34.1890   53.1600   42.1860 C.3       1 A8S301      0.0000 
@<TRIPOS>BOND
     1    1    2 1    
     2    1   14 ar   
     3    1   16 ar   
     4    2    3 2    
     5    3    4 1    
     6    3    6 1    
     7    4    5 2    
     8    5    7 1    
     9    7    8 1    
    10    7    9 1    
    11    7   15 1    
    12    9   10 2    
    13    9   17 1    
    14   10   11 1    
    15   11   12 2    
    16   11   13 1    
    17   13   15 1    
    18   15   18 1    
    19   15   19 1    
@<TRIPOS>SUBSTRUCTURE
     1 A8S301      1 GROUP   
@<TRIPOS>SET

