#    Name: 6q82_1_GTP
#    Modification time : Fri May 22 19:27:11 2020

@<TRIPOS>MOLECULE
6q82_1_GTP
   32    34     1     0     1
SMALL
NO_CHARGES


@<TRIPOS>ATOM
      1 PG         47.3630  114.8620  114.8150 P.3       1 GTP217      0.0000 
      2 O1G        47.2080  116.3390  115.0910 O.co2     1 GTP217      0.0000 
      3 O2G        46.1640  114.1180  115.3540 O.co2     1 GTP217      0.0000 
      4 O3G        48.6170  114.3450  115.4830 O.co2     1 GTP217      0.0000 
      5 O3B        47.4430  114.6770  113.2150 O.3       1 GTP217      0.0000 
      6 PB         48.7960  114.9960  112.3960 P.3       1 GTP217      0.0000 
      7 O1B        48.6250  116.3130  111.6860 O.co2     1 GTP217      0.0000 
      8 O2B        50.0170  115.0340  113.2840 O.co2     1 GTP217      0.0000 
      9 O3A        48.9110  113.8070  111.3110 O.3       1 GTP217      0.0000 
     10 PA         50.2720  112.9580  111.1370 P.3       1 GTP217      0.0000 
     11 O1A        51.2720  113.7780  110.3620 O.co2     1 GTP217      0.0000 
     12 O2A        50.8420  112.5230  112.4710 O.co2     1 GTP217      0.0000 
     13 O5'        49.8350  111.6830  110.2600 O.3       1 GTP217      0.0000 
     14 C5'        49.2320  111.8970  109.0060 C.3       1 GTP217      0.0000 
     15 C4'        49.2080  110.6140  108.1880 C.3       1 GTP217      0.0000 
     16 O4'        49.0270  110.9860  106.8410 O.3       1 GTP217      0.0000 
     17 C3'        50.5300  109.8760  108.2860 C.3       1 GTP217      0.0000 
     18 O3'        50.2840  108.5180  108.5640 O.3       1 GTP217      0.0000 
     19 C2'        51.1730  109.9980  106.9220 C.3       1 GTP217      0.0000 
     20 O2'        51.6430  108.7460  106.4800 O.3       1 GTP217      0.0000 
     21 C1'        50.0730  110.5190  106.0130 C.3       1 GTP217      0.0000 
     22 N9         50.5700  111.6500  105.2120 N.pl3     1 GTP217      0.0000 
     23 C8         51.0840  112.8250  105.6940 C.2       1 GTP217      0.0000 
     24 N7         51.4210  113.6100  104.6450 N.2       1 GTP217      0.0000 
     25 C5         51.1230  112.9540  103.5010 C.2       1 GTP217      0.0000 
     26 C6         51.2620  113.2950  102.1620 C.2       1 GTP217      0.0000 
     27 O6         51.7370  114.3860  101.8490 O.2       1 GTP217      0.0000 
     28 N1         50.8600  112.4050  101.1870 N.am      1 GTP217      0.0000 
     29 C2         50.3280  111.1840  101.5490 C.2       1 GTP217      0.0000 
     30 N2         49.9400  110.3220  100.6140 N.pl3     1 GTP217      0.0000 
     31 N3         50.1940  110.8520  102.8820 N.2       1 GTP217      0.0000 
     32 C4         50.5850  111.7220  103.8430 C.2       1 GTP217      0.0000 
@<TRIPOS>BOND
     1    1    2 ar   
     2    1    3 ar   
     3    1    4 ar   
     4    1    5 1    
     5    5    6 1    
     6    6    7 ar   
     7    6    8 ar   
     8    6    9 1    
     9    9   10 1    
    10   10   11 ar   
    11   10   12 ar   
    12   10   13 1    
    13   13   14 1    
    14   14   15 1    
    15   15   16 1    
    16   15   17 1    
    17   16   21 1    
    18   17   18 1    
    19   17   19 1    
    20   19   20 1    
    21   19   21 1    
    22   21   22 1    
    23   22   23 1    
    24   22   32 1    
    25   23   24 2    
    26   24   25 1    
    27   25   26 1    
    28   25   32 2    
    29   26   27 2    
    30   26   28 am   
    31   28   29 1    
    32   29   30 1    
    33   29   31 2    
    34   31   32 1    
@<TRIPOS>SUBSTRUCTURE
     1 GTP217      1 GROUP   
@<TRIPOS>SET
ATOM$ORANGE STATIC     ATOMS   COLORGROUP SYSTEM 
20 14 14 15 15 17 17 19 19 21 21 23 23 25 25 26 26 29 \
29 32 32 

