#    Name: 6q82_1_GTP_CAVITY_N1_4
#    Modification time : Fri May 22 19:27:13 2020

@<TRIPOS>MOLECULE
6q82_1_GTP_CAVITY_N1_4
   70     0     7     0     0
SMALL
NO_CHARGES


@<TRIPOS>ATOM
      1 OG         50.5800  111.8400  106.7700 O.3       1 SER1        0.0000 
      2 OG         51.3300  112.6900  105.8000 O.3       1 SER1        0.0000 
      3 N          48.6400  106.7500  105.4200 N.am      2 ALA2        0.0000 
      4 N          49.8200  105.8300  105.5300 N.am      2 ALA2        0.0000 
      5 N          51.0000  104.9100  105.6400 N.am      2 ALA2        0.0000 
      6 N          50.5800  106.6800  104.5600 N.am      2 ALA2        0.0000 
      7 N          51.7600  105.7600  104.6700 N.am      2 ALA2        0.0000 
      8 O          46.0600  108.5500  107.3100 O.2       2 ALA2        0.0000 
      9 O          47.2400  107.6300  107.4200 O.2       2 ALA2        0.0000 
     10 N          49.1800  107.5700  106.5600 N.am      2 ALA2        0.0000 
     11 N          49.9300  108.4200  105.5800 N.am      2 ALA2        0.0000 
     12 N          51.1100  107.5000  105.6900 N.am      2 ALA2        0.0000 
     13 N          49.7100  108.3900  107.6900 N.am      2 ALA2        0.0000 
     14 N          50.4700  109.2400  106.7200 N.am      2 ALA2        0.0000 
     15 N          52.4000  109.1800  105.8600 N.am      2 ALA2        0.0000 
     16 N          51.0000  110.0700  107.8500 N.am      2 ALA2        0.0000 
     17 OD1        50.3800  108.4900  101.3600 O.co2     3 ASP3        0.0000 
     18 OD1        46.2800  108.5900  105.2000 O.co2     3 ASP3        0.0000 
     19 OD1        47.0400  109.4400  104.2200 O.co2     3 ASP3        0.0000 
     20 OD1        46.8200  109.4100  106.3300 O.co2     3 ASP3        0.0000 
     21 OD1        48.0000  108.4900  106.4400 O.co2     3 ASP3        0.0000 
     22 OD1        48.7500  109.3400  105.4700 O.co2     3 ASP3        0.0000 
     23 OD1        45.4100  110.2900  108.3300 O.co2     3 ASP3        0.0000 
     24 OD1        46.5900  109.3800  108.4400 O.co2     3 ASP3        0.0000 
     25 OD1        48.5300  109.3100  107.5800 O.co2     3 ASP3        0.0000 
     26 OD1        49.2900  110.1600  106.6100 O.co2     3 ASP3        0.0000 
     27 OD1        47.8800  111.0500  108.6100 O.co2     3 ASP3        0.0000 
     28 OD1        48.6400  111.9000  107.6300 O.co2     3 ASP3        0.0000 
     29 NZ         49.9600  110.2600  100.2800 N.4       4 LYS4        0.0000 
     30 NZ         50.4900  111.0800  101.4200 N.4       4 LYS4        0.0000 
     31 CZ         47.9100  107.7300  101.0900 C.ar      5 PHE5        0.0000 
     32 CZ         49.0900  106.8100  101.2000 C.ar      5 PHE5        0.0000 
     33 CZ         48.4400  108.5500  102.2300 C.ar      5 PHE5        0.0000 
     34 CZ         51.3400  107.5400  103.5800 C.ar      5 PHE5        0.0000 
     35 CZ         52.5200  106.6200  103.6900 C.ar      5 PHE5        0.0000 
     36 CZ         50.9100  109.3100  102.5000 C.ar      5 PHE5        0.0000 
     37 CZ         52.0900  108.3900  102.6100 C.ar      5 PHE5        0.0000 
     38 CZ         50.6900  109.2800  104.6100 C.ar      5 PHE5        0.0000 
     39 CZ         51.8700  108.3600  104.7200 C.ar      5 PHE5        0.0000 
     40 CZ         51.4500  110.1300  103.6400 C.ar      5 PHE5        0.0000 
     41 CZ         51.0200  111.9000  102.5500 C.ar      5 PHE5        0.0000 
     42 CZ         51.2200  110.1000  105.7400 C.ar      5 PHE5        0.0000 
     43 CZ         51.5600  112.7300  103.6900 C.ar      5 PHE5        0.0000 
     44 CZ         47.1300  110.2000  109.5800 C.ar      5 PHE5        0.0000 
     45 CZ         52.5100  111.7700  105.9100 C.ar      5 PHE5        0.0000 
     46 CA         49.8500  107.6700  100.2300 C.3       6 GLY6        0.0000 
     47 CA         47.2600  109.4700  102.1200 C.3       6 GLY6        0.0000 
     48 CA         48.0200  110.3300  101.1400 C.3       6 GLY6        0.0000 
     49 CA         49.2000  109.4100  101.2500 C.3       6 GLY6        0.0000 
     50 CA         47.8000  110.2900  103.2500 C.3       6 GLY6        0.0000 
     51 CA         48.5500  111.1500  102.2800 C.3       6 GLY6        0.0000 
     52 CA         49.3100  112.0000  101.3000 C.3       6 GLY6        0.0000 
     53 CA         51.6700  110.1600  101.5300 C.3       6 GLY6        0.0000 
     54 CA         48.4200  106.7100  107.5300 C.3       6 GLY6        0.0000 
     55 CA         49.5100  110.2000  104.5000 C.3       6 GLY6        0.0000 
     56 CA         50.2700  111.0500  103.5200 C.3       6 GLY6        0.0000 
     57 CA         47.7700  108.4600  108.5500 C.3       6 GLY6        0.0000 
     58 CA         50.0400  111.0200  105.6300 C.3       6 GLY6        0.0000 
     59 CA         50.8000  111.8700  104.6600 C.3       6 GLY6        0.0000 
     60 CA         49.0600  110.1300  108.7200 C.3       6 GLY6        0.0000 
     61 CA         49.4000  112.7600  106.6600 C.3       6 GLY6        0.0000 
     62 CA         51.7600  110.9200  106.8800 C.3       6 GLY6        0.0000 
     63 DU         49.6200  107.6300  102.3400 H         7 CUB7        0.0000 
     64 DU         47.4600  107.6700  105.3100 H         7 CUB7        0.0000 
     65 DU         48.2200  108.5200  104.3400 H         7 CUB7        0.0000 
     66 DU         49.4000  107.6000  104.4500 H         7 CUB7        0.0000 
     67 DU         48.9800  109.3700  103.3600 H         7 CUB7        0.0000 
     68 DU         50.1600  108.4600  103.4700 H         7 CUB7        0.0000 
     69 DU         49.7300  110.2300  102.3900 H         7 CUB7        0.0000 
     70 DU         49.8200  110.9900  107.7400 H         7 CUB7        0.0000 
@<TRIPOS>BOND
@<TRIPOS>SUBSTRUCTURE
     1 SER1        1 GROUP   
     2 ALA2        3 GROUP   
     3 ASP3       17 GROUP   
     4 LYS4       29 GROUP   
     5 PHE5       31 GROUP   
     6 GLY6       46 GROUP   
     7 CUB7       63 GROUP   
@<TRIPOS>SET

