#    Name: 6sek_1_FAD
#    Modification time : Fri May 22 19:35:07 2020

@<TRIPOS>MOLECULE
6sek_1_FAD
   53    58     1     0     1
SMALL
NO_CHARGES


@<TRIPOS>ATOM
      1 PA         39.2310   29.1520   37.1650 P.3       1 FAD601      0.0000 
      2 O1A        40.0700   29.0730   38.3870 O.co2     1 FAD601      0.0000 
      3 O2A        39.8250   29.8770   35.9960 O.co2     1 FAD601      0.0000 
      4 O5B        37.8310   29.8460   37.5410 O.3       1 FAD601      0.0000 
      5 C5B        37.2380   29.7060   38.8550 C.3       1 FAD601      0.0000 
      6 C4B        36.4950   30.9690   39.2310 C.3       1 FAD601      0.0000 
      7 O4B        35.6330   30.6700   40.3630 O.3       1 FAD601      0.0000 
      8 C3B        37.3850   32.1410   39.6780 C.3       1 FAD601      0.0000 
      9 O3B        37.0630   33.3780   39.0360 O.3       1 FAD601      0.0000 
     10 C2B        37.2270   32.1050   41.2060 C.3       1 FAD601      0.0000 
     11 O2B        37.3700   33.3560   41.8230 O.3       1 FAD601      0.0000 
     12 C1B        35.7920   31.6490   41.3630 C.3       1 FAD601      0.0000 
     13 N9A        35.4270   31.0630   42.6620 N.pl3     1 FAD601      0.0000 
     14 C8A        36.1920   30.2690   43.4780 C.2       1 FAD601      0.0000 
     15 N7A        35.5500   29.8630   44.5520 N.2       1 FAD601      0.0000 
     16 C5A        34.2830   30.4100   44.4260 C.ar      1 FAD601      0.0000 
     17 C6A        33.1360   30.3390   45.2360 C.ar      1 FAD601      0.0000 
     18 N6A        33.0670   29.6240   46.3520 N.pl3     1 FAD601      0.0000 
     19 N1A        32.0280   30.9860   44.8000 N.ar      1 FAD601      0.0000 
     20 C2A        32.0960   31.6810   43.6550 C.ar      1 FAD601      0.0000 
     21 N3A        33.1210   31.8210   42.8180 N.ar      1 FAD601      0.0000 
     22 C4A        34.1960   31.1500   43.2640 C.ar      1 FAD601      0.0000 
     23 N1         44.8960   24.7570   30.9750 N.2       1 FAD601      0.0000 
     24 C2         44.9130   24.6020   29.6200 C.2       1 FAD601      0.0000 
     25 O2         43.9910   24.0270   29.0270 O.2       1 FAD601      0.0000 
     26 N3         45.9460   25.0670   28.8640 N.am      1 FAD601      0.0000 
     27 C4         47.0210   25.7200   29.4230 C.2       1 FAD601      0.0000 
     28 O4         47.9300   26.1000   28.6980 O.2       1 FAD601      0.0000 
     29 C4X        47.0210   25.9290   30.8420 C.2       1 FAD601      0.0000 
     30 N5         48.0100   26.5860   31.4080 N.2       1 FAD601      0.0000 
     31 C5X        47.9690   26.7860   32.7680 C.ar      1 FAD601      0.0000 
     32 C6         49.0290   27.4960   33.3710 C.ar      1 FAD601      0.0000 
     33 C7         49.0820   27.7250   34.7250 C.ar      1 FAD601      0.0000 
     34 C7M        50.2250   28.5190   35.3060 C.3       1 FAD601      0.0000 
     35 C8         48.0560   27.2110   35.5490 C.ar      1 FAD601      0.0000 
     36 C8M        48.1120   27.4400   37.0390 C.3       1 FAD601      0.0000 
     37 C9         46.9810   26.5260   34.9670 C.ar      1 FAD601      0.0000 
     38 C9A        46.9240   26.2950   33.5750 C.ar      1 FAD601      0.0000 
     39 N10        45.8980   25.5930   32.9330 N.pl3     1 FAD601      0.0000 
     40 C10        45.8920   25.4010   31.5570 C.2       1 FAD601      0.0000 
     41 C1'        44.7520   25.0930   33.7040 C.3       1 FAD601      0.0000 
     42 C2'        43.7520   26.1940   33.9250 C.3       1 FAD601      0.0000 
     43 O2'        43.2230   26.0420   35.2250 O.3       1 FAD601      0.0000 
     44 C3'        42.6250   26.1750   32.8840 C.3       1 FAD601      0.0000 
     45 O3'        43.0960   26.4260   31.5690 O.3       1 FAD601      0.0000 
     46 C4'        41.5540   27.2190   33.1790 C.3       1 FAD601      0.0000 
     47 O4'        42.1020   28.1290   34.1280 O.3       1 FAD601      0.0000 
     48 C5'        40.2760   26.6380   33.7380 C.3       1 FAD601      0.0000 
     49 O5'        39.5330   27.7400   34.3050 O.3       1 FAD601      0.0000 
     50 P          38.1820   27.4570   35.1080 P.3       1 FAD601      0.0000 
     51 O1P        37.2270   28.5210   34.6970 O.co2     1 FAD601      0.0000 
     52 O2P        37.7610   26.0510   34.8670 O.co2     1 FAD601      0.0000 
     53 O3P        38.6720   27.7350   36.6350 O.3       1 FAD601      0.0000 
@<TRIPOS>BOND
     1    1    2 ar   
     2    1    3 ar   
     3    1    4 1    
     4    1   53 1    
     5    4    5 1    
     6    5    6 1    
     7    6    7 1    
     8    6    8 1    
     9    7   12 1    
    10    8    9 1    
    11    8   10 1    
    12   10   11 1    
    13   10   12 1    
    14   12   13 1    
    15   13   14 1    
    16   13   22 1    
    17   14   15 2    
    18   15   16 1    
    19   16   17 ar   
    20   16   22 ar   
    21   17   18 1    
    22   17   19 ar   
    23   19   20 ar   
    24   20   21 ar   
    25   21   22 ar   
    26   23   24 1    
    27   23   40 2    
    28   24   25 2    
    29   24   26 am   
    30   26   27 am   
    31   27   28 2    
    32   27   29 1    
    33   29   30 2    
    34   29   40 1    
    35   30   31 1    
    36   31   32 ar   
    37   31   38 ar   
    38   32   33 ar   
    39   33   34 1    
    40   33   35 ar   
    41   35   36 1    
    42   35   37 ar   
    43   37   38 ar   
    44   38   39 1    
    45   39   40 1    
    46   39   41 1    
    47   41   42 1    
    48   42   43 1    
    49   42   44 1    
    50   44   45 1    
    51   44   46 1    
    52   46   47 1    
    53   46   48 1    
    54   48   49 1    
    55   49   50 1    
    56   50   51 ar   
    57   50   52 ar   
    58   50   53 1    
@<TRIPOS>SUBSTRUCTURE
     1 FAD601      1 GROUP   
@<TRIPOS>SET
ATOM$ORANGE STATIC     ATOMS   COLORGROUP SYSTEM 
54 5 5 6 6 8 8 10 10 12 12 14 14 16 16 17 17 20 \
20 22 22 24 24 27 27 29 29 31 31 32 32 33 33 34 34 35 \
35 36 36 37 37 38 38 40 40 41 41 42 42 44 44 46 46 48 \
48 

