#    Name: 6sek_4_NAP
#    Modification time : Fri May 22 19:35:23 2020

@<TRIPOS>MOLECULE
6sek_4_NAP
   48    52     1     0     1
SMALL
NO_CHARGES


@<TRIPOS>ATOM
      1 PA         76.6480   41.3130   12.2090 P.3       1 NAP602      0.0000 
      2 O1A        77.5340   42.2830   11.4470 O.co2     1 NAP602      0.0000 
      3 O2A        76.9280   39.8370   12.2020 O.co2     1 NAP602      0.0000 
      4 O5B        75.1820   41.4340   11.6060 O.3       1 NAP602      0.0000 
      5 C5B        74.6130   42.7220   11.4220 C.3       1 NAP602      0.0000 
      6 C4B        73.1620   42.6870   10.9590 C.3       1 NAP602      0.0000 
      7 O4B        72.8020   44.0440   10.6190 O.3       1 NAP602      0.0000 
      8 C3B        72.9760   41.8480    9.7050 C.3       1 NAP602      0.0000 
      9 O3B        71.6760   41.2510    9.7130 O.3       1 NAP602      0.0000 
     10 C2B        73.1540   42.8790    8.6000 C.3       1 NAP602      0.0000 
     11 O2B        72.6280   42.4950    7.3350 O.3       1 NAP602      0.0000 
     12 C1B        72.4220   44.0470    9.2270 C.3       1 NAP602      0.0000 
     13 N9A        72.7630   45.3110    8.5650 N.pl3     1 NAP602      0.0000 
     14 C8A        74.0150   45.7920    8.3810 C.2       1 NAP602      0.0000 
     15 N7A        73.9410   46.9890    7.7420 N.2       1 NAP602      0.0000 
     16 C5A        72.6280   47.2450    7.5590 C.ar      1 NAP602      0.0000 
     17 C6A        71.8760   48.3130    6.9590 C.ar      1 NAP602      0.0000 
     18 N6A        72.5980   49.3140    6.4540 N.pl3     1 NAP602      0.0000 
     19 N1A        70.5300   48.2670    6.9260 N.ar      1 NAP602      0.0000 
     20 C2A        69.8640   47.2320    7.4550 C.ar      1 NAP602      0.0000 
     21 N3A        70.5180   46.2070    8.0320 N.ar      1 NAP602      0.0000 
     22 C4A        71.8600   46.1610    8.1040 C.ar      1 NAP602      0.0000 
     23 O3         76.6610   41.9600   13.7230 O.3       1 NAP602      0.0000 
     24 PN         76.3940   41.2860   15.1890 P.3       1 NAP602      0.0000 
     25 O1N        74.9260   40.7330   15.2330 O.co2     1 NAP602      0.0000 
     26 O2N        76.8260   42.3440   16.1770 O.co2     1 NAP602      0.0000 
     27 O5D        77.6190   40.2420   15.1570 O.3       1 NAP602      0.0000 
     28 C5D        78.9700   40.6020   15.5220 C.3       1 NAP602      0.0000 
     29 C4D        79.8190   39.3480   15.8210 C.3       1 NAP602      0.0000 
     30 O4D        79.7840   38.9770   17.2230 O.3       1 NAP602      0.0000 
     31 C3D        79.3170   38.1520   14.9880 C.3       1 NAP602      0.0000 
     32 O3D        80.3520   37.2450   14.6290 O.3       1 NAP602      0.0000 
     33 C2D        78.4550   37.3960   15.9500 C.3       1 NAP602      0.0000 
     34 O2D        78.5020   36.0320   15.5920 O.3       1 NAP602      0.0000 
     35 C1D        79.1040   37.6930   17.3100 C.3       1 NAP602      0.0000 
     36 N1N        78.0700   37.6120   18.3530 N.pl3     1 NAP602      0.0000 
     37 C2N        77.9270   36.5020   19.1060 C.ar      1 NAP602      0.0000 
     38 C3N        76.9380   36.4320   20.0990 C.ar      1 NAP602      0.0000 
     39 C7N        76.7650   35.2430   20.9670 C.2       1 NAP602      0.0000 
     40 O7N        75.6340   34.8920   21.2100 O.2       1 NAP602      0.0000 
     41 N7N        77.8130   34.6150   21.4580 N.am      1 NAP602      0.0000 
     42 C4N        76.0600   37.4760   20.3020 C.ar      1 NAP602      0.0000 
     43 C5N        76.2050   38.5970   19.5070 C.ar      1 NAP602      0.0000 
     44 C6N        77.2260   38.6480   18.5410 C.ar      1 NAP602      0.0000 
     45 P2B        73.5320   41.9080    6.1270 P.3       1 NAP602      0.0000 
     46 O1X        73.2930   40.4110    6.0850 O.co2     1 NAP602      0.0000 
     47 O2X        72.9480   42.6730    4.9550 O.co2     1 NAP602      0.0000 
     48 O3X        74.9470   42.2850    6.5100 O.co2     1 NAP602      0.0000 
@<TRIPOS>BOND
     1    1    2 ar   
     2    1    3 ar   
     3    1    4 1    
     4    1   23 1    
     5    4    5 1    
     6    5    6 1    
     7    6    7 1    
     8    6    8 1    
     9    7   12 1    
    10    8    9 1    
    11    8   10 1    
    12   10   11 1    
    13   10   12 1    
    14   11   45 1    
    15   12   13 1    
    16   13   14 1    
    17   13   22 1    
    18   14   15 2    
    19   15   16 1    
    20   16   17 ar   
    21   16   22 ar   
    22   17   18 1    
    23   17   19 ar   
    24   19   20 ar   
    25   20   21 ar   
    26   21   22 ar   
    27   23   24 1    
    28   24   25 ar   
    29   24   26 ar   
    30   24   27 1    
    31   27   28 1    
    32   28   29 1    
    33   29   30 1    
    34   29   31 1    
    35   30   35 1    
    36   31   32 1    
    37   31   33 1    
    38   33   34 1    
    39   33   35 1    
    40   35   36 1    
    41   36   37 ar   
    42   36   44 ar   
    43   37   38 ar   
    44   38   39 1    
    45   38   42 ar   
    46   39   40 2    
    47   39   41 am   
    48   42   43 ar   
    49   43   44 ar   
    50   45   46 ar   
    51   45   47 ar   
    52   45   48 ar   
@<TRIPOS>SUBSTRUCTURE
     1 NAP602      1 GROUP   
@<TRIPOS>SET
ATOM$ORANGE STATIC     ATOMS   COLORGROUP SYSTEM 
42 5 5 6 6 8 8 10 10 12 12 14 14 16 16 17 17 20 \
20 22 22 28 28 29 29 31 31 33 33 35 35 37 37 38 38 39 \
39 42 42 43 43 44 44 

