#    Name: 6sek_3_FAD
#    Modification time : Fri May 22 19:35:18 2020

@<TRIPOS>MOLECULE
6sek_3_FAD
   53    58     1     0     1
SMALL
NO_CHARGES


@<TRIPOS>ATOM
      1 PA         89.4110   41.4910   21.5820 P.3       1 FAD601      0.0000 
      2 O1A        88.5400   42.5970   21.1000 O.co2     1 FAD601      0.0000 
      3 O2A        88.9400   40.5510   22.6650 O.co2     1 FAD601      0.0000 
      4 O5B        90.8240   42.1090   22.0380 O.3       1 FAD601      0.0000 
      5 C5B        91.2450   43.4650   21.7170 C.3       1 FAD601      0.0000 
      6 C4B        92.1240   43.9900   22.8290 C.3       1 FAD601      0.0000 
      7 O4B        93.0480   44.9490   22.2590 O.3       1 FAD601      0.0000 
      8 C3B        91.4120   44.7250   23.9800 C.3       1 FAD601      0.0000 
      9 O3B        91.9620   44.4240   25.2600 O.3       1 FAD601      0.0000 
     10 C2B        91.6120   46.1990   23.6120 C.3       1 FAD601      0.0000 
     11 O2B        91.5410   47.0550   24.7310 O.3       1 FAD601      0.0000 
     12 C1B        93.0090   46.1430   23.0050 C.3       1 FAD601      0.0000 
     13 N9A        93.3670   47.2160   22.0770 N.pl3     1 FAD601      0.0000 
     14 C8A        92.6590   47.6590   20.9700 C.2       1 FAD601      0.0000 
     15 N7A        93.2930   48.6110   20.3230 N.2       1 FAD601      0.0000 
     16 C5A        94.4910   48.7720   21.0150 C.ar      1 FAD601      0.0000 
     17 C6A        95.6040   49.6090   20.8180 C.ar      1 FAD601      0.0000 
     18 N6A        95.7220   50.4540   19.8000 N.pl3     1 FAD601      0.0000 
     19 N1A        96.6360   49.4910   21.6890 N.ar      1 FAD601      0.0000 
     20 C2A        96.5340   48.6310   22.7070 C.ar      1 FAD601      0.0000 
     21 N3A        95.5390   47.8080   22.9950 N.ar      1 FAD601      0.0000 
     22 C4A        94.5460   47.9170   22.0940 C.ar      1 FAD601      0.0000 
     23 N1         83.8970   34.5620   18.6400 N.2       1 FAD601      0.0000 
     24 C2         83.8990   33.2040   18.7840 C.2       1 FAD601      0.0000 
     25 O2         84.8130   32.5140   18.3320 O.2       1 FAD601      0.0000 
     26 N3         82.8840   32.5530   19.4080 N.am      1 FAD601      0.0000 
     27 C4         81.8230   33.2320   19.9640 C.2       1 FAD601      0.0000 
     28 O4         80.9270   32.6020   20.5060 O.2       1 FAD601      0.0000 
     29 C4X        81.8080   34.6540   19.8750 C.2       1 FAD601      0.0000 
     30 N5         80.8240   35.3170   20.4340 N.2       1 FAD601      0.0000 
     31 C5X        80.8480   36.6860   20.3580 C.ar      1 FAD601      0.0000 
     32 C6         79.7980   37.3990   20.9690 C.ar      1 FAD601      0.0000 
     33 C7         79.7250   38.7700   20.9340 C.ar      1 FAD601      0.0000 
     34 C7M        78.5940   39.4820   21.6290 C.3       1 FAD601      0.0000 
     35 C8         80.7200   39.4900   20.2520 C.ar      1 FAD601      0.0000 
     36 C8M        80.6460   40.9960   20.1870 C.3       1 FAD601      0.0000 
     37 C9         81.7740   38.8010   19.6420 C.ar      1 FAD601      0.0000 
     38 C9A        81.8640   37.3940   19.6790 C.ar      1 FAD601      0.0000 
     39 N10        82.9000   36.6510   19.0870 N.pl3     1 FAD601      0.0000 
     40 C10        82.9110   35.2600   19.1750 C.2       1 FAD601      0.0000 
     41 C1'        83.9980   37.3180   18.3540 C.3       1 FAD601      0.0000 
     42 C2'        85.0940   37.9000   19.2510 C.3       1 FAD601      0.0000 
     43 O2'        85.8230   38.8690   18.5030 O.3       1 FAD601      0.0000 
     44 C3'        86.0430   36.8180   19.7780 C.3       1 FAD601      0.0000 
     45 O3'        85.3100   35.9550   20.6170 O.3       1 FAD601      0.0000 
     46 C4'        87.2460   37.2740   20.6030 C.3       1 FAD601      0.0000 
     47 O4'        86.8240   38.0140   21.7500 O.3       1 FAD601      0.0000 
     48 C5'        88.2250   38.1080   19.8160 C.3       1 FAD601      0.0000 
     49 O5'        89.4090   38.2690   20.6450 O.3       1 FAD601      0.0000 
     50 P          90.5640   39.2250   20.1110 P.3       1 FAD601      0.0000 
     51 O1P        91.6890   39.1240   21.0970 O.co2     1 FAD601      0.0000 
     52 O2P        90.7260   38.9130   18.6500 O.co2     1 FAD601      0.0000 
     53 O3P        89.8480   40.6610   20.2720 O.3       1 FAD601      0.0000 
@<TRIPOS>BOND
     1    1    2 ar   
     2    1    3 ar   
     3    1    4 1    
     4    1   53 1    
     5    4    5 1    
     6    5    6 1    
     7    6    7 1    
     8    6    8 1    
     9    7   12 1    
    10    8    9 1    
    11    8   10 1    
    12   10   11 1    
    13   10   12 1    
    14   12   13 1    
    15   13   14 1    
    16   13   22 1    
    17   14   15 2    
    18   15   16 1    
    19   16   17 ar   
    20   16   22 ar   
    21   17   18 1    
    22   17   19 ar   
    23   19   20 ar   
    24   20   21 ar   
    25   21   22 ar   
    26   23   24 1    
    27   23   40 2    
    28   24   25 2    
    29   24   26 am   
    30   26   27 am   
    31   27   28 2    
    32   27   29 1    
    33   29   30 2    
    34   29   40 1    
    35   30   31 1    
    36   31   32 ar   
    37   31   38 ar   
    38   32   33 ar   
    39   33   34 1    
    40   33   35 ar   
    41   35   36 1    
    42   35   37 ar   
    43   37   38 ar   
    44   38   39 1    
    45   39   40 1    
    46   39   41 1    
    47   41   42 1    
    48   42   43 1    
    49   42   44 1    
    50   44   45 1    
    51   44   46 1    
    52   46   47 1    
    53   46   48 1    
    54   48   49 1    
    55   49   50 1    
    56   50   51 ar   
    57   50   52 ar   
    58   50   53 1    
@<TRIPOS>SUBSTRUCTURE
     1 FAD601      1 GROUP   
@<TRIPOS>SET
ATOM$ORANGE STATIC     ATOMS   COLORGROUP SYSTEM 
54 5 5 6 6 8 8 10 10 12 12 14 14 16 16 17 17 20 \
20 22 22 24 24 27 27 29 29 31 31 32 32 33 33 34 34 35 \
35 36 36 37 37 38 38 40 40 41 41 42 42 44 44 46 46 48 \
48 

