#    Name: 6sek_2_NAP
#    Modification time : Fri May 22 19:35:12 2020

@<TRIPOS>MOLECULE
6sek_2_NAP
   48    52     1     0     1
SMALL
NO_CHARGES


@<TRIPOS>ATOM
      1 PA         52.1740   19.9230   39.0310 P.3       1 NAP602      0.0000 
      2 O1A        51.3380   19.3070   40.1410 O.co2     1 NAP602      0.0000 
      3 O2A        52.2810   19.3110   37.6770 O.co2     1 NAP602      0.0000 
      4 O5B        53.6940   20.0230   39.4970 O.3       1 NAP602      0.0000 
      5 C5B        54.0990   19.2220   40.6110 C.3       1 NAP602      0.0000 
      6 C4B        55.5940   18.8700   40.5970 C.3       1 NAP602      0.0000 
      7 O4B        56.1120   18.8360   41.9300 O.3       1 NAP602      0.0000 
      8 C3B        55.8530   17.4760   40.0620 C.3       1 NAP602      0.0000 
      9 O3B        57.1330   17.4720   39.4100 O.3       1 NAP602      0.0000 
     10 C2B        55.7490   16.6290   41.3290 C.3       1 NAP602      0.0000 
     11 O2B        56.1990   15.2690   41.1920 O.3       1 NAP602      0.0000 
     12 C1B        56.4920   17.5160   42.3100 C.3       1 NAP602      0.0000 
     13 N9A        56.1150   17.2500   43.7150 N.pl3     1 NAP602      0.0000 
     14 C8A        54.8630   17.2930   44.1990 C.2       1 NAP602      0.0000 
     15 N7A        54.8430   16.9870   45.5160 N.2       1 NAP602      0.0000 
     16 C5A        56.1070   16.7440   45.8750 C.ar      1 NAP602      0.0000 
     17 C6A        56.7430   16.3420   47.1280 C.ar      1 NAP602      0.0000 
     18 N6A        55.9100   16.1890   48.1820 N.pl3     1 NAP602      0.0000 
     19 N1A        58.0920   16.1790   47.1470 N.ar      1 NAP602      0.0000 
     20 C2A        58.8420   16.3560   46.0400 C.ar      1 NAP602      0.0000 
     21 N3A        58.3200   16.7060   44.8340 N.ar      1 NAP602      0.0000 
     22 C4A        56.9660   16.9120   44.6980 C.ar      1 NAP602      0.0000 
     23 O3         51.6000   21.3980   38.9240 O.3       1 NAP602      0.0000 
     24 PN         52.2760   22.7500   38.3820 P.3       1 NAP602      0.0000 
     25 O1N        53.3360   22.4600   37.3590 O.co2     1 NAP602      0.0000 
     26 O2N        52.5910   23.6840   39.5860 O.co2     1 NAP602      0.0000 
     27 O5D        50.9680   23.2950   37.6190 O.3       1 NAP602      0.0000 
     28 C5D        49.6970   22.6520   37.6040 C.3       1 NAP602      0.0000 
     29 C4D        48.9780   22.9410   36.2790 C.3       1 NAP602      0.0000 
     30 O4D        49.3760   24.2100   35.7470 O.3       1 NAP602      0.0000 
     31 C3D        49.2180   21.9460   35.1420 C.3       1 NAP602      0.0000 
     32 O3D        47.9630   21.6710   34.5110 O.3       1 NAP602      0.0000 
     33 C2D        50.0800   22.6120   34.0980 C.3       1 NAP602      0.0000 
     34 O2D        49.6490   22.1840   32.7900 O.3       1 NAP602      0.0000 
     35 C1D        49.7460   24.0660   34.3630 C.3       1 NAP602      0.0000 
     36 N1N        50.7950   25.0280   34.0350 N.pl3     1 NAP602      0.0000 
     37 C2N        50.8350   25.5230   32.7980 C.ar      1 NAP602      0.0000 
     38 C3N        51.7770   26.4600   32.4680 C.ar      1 NAP602      0.0000 
     39 C7N        51.8490   27.0220   31.0990 C.2       1 NAP602      0.0000 
     40 O7N        52.9680   27.2730   30.6660 O.2       1 NAP602      0.0000 
     41 N7N        50.7310   27.2580   30.4160 N.am      1 NAP602      0.0000 
     42 C4N        52.6910   26.8920   33.4140 C.ar      1 NAP602      0.0000 
     43 C5N        52.6330   26.3820   34.6920 C.ar      1 NAP602      0.0000 
     44 C6N        51.6480   25.4470   34.9770 C.ar      1 NAP602      0.0000 
     45 P2B        55.1530   14.0390   40.9460 P.3       1 NAP602      0.0000 
     46 O1X        55.3310   13.6070   39.4810 O.co2     1 NAP602      0.0000 
     47 O2X        55.7080   13.0700   41.9650 O.co2     1 NAP602      0.0000 
     48 O3X        53.7510   14.5270   41.3200 O.co2     1 NAP602      0.0000 
@<TRIPOS>BOND
     1    1    2 ar   
     2    1    3 ar   
     3    1    4 1    
     4    1   23 1    
     5    4    5 1    
     6    5    6 1    
     7    6    7 1    
     8    6    8 1    
     9    7   12 1    
    10    8    9 1    
    11    8   10 1    
    12   10   11 1    
    13   10   12 1    
    14   11   45 1    
    15   12   13 1    
    16   13   14 1    
    17   13   22 1    
    18   14   15 2    
    19   15   16 1    
    20   16   17 ar   
    21   16   22 ar   
    22   17   18 1    
    23   17   19 ar   
    24   19   20 ar   
    25   20   21 ar   
    26   21   22 ar   
    27   23   24 1    
    28   24   25 ar   
    29   24   26 ar   
    30   24   27 1    
    31   27   28 1    
    32   28   29 1    
    33   29   30 1    
    34   29   31 1    
    35   30   35 1    
    36   31   32 1    
    37   31   33 1    
    38   33   34 1    
    39   33   35 1    
    40   35   36 1    
    41   36   37 ar   
    42   36   44 ar   
    43   37   38 ar   
    44   38   39 1    
    45   38   42 ar   
    46   39   40 2    
    47   39   41 am   
    48   42   43 ar   
    49   43   44 ar   
    50   45   46 ar   
    51   45   47 ar   
    52   45   48 ar   
@<TRIPOS>SUBSTRUCTURE
     1 NAP602      1 GROUP   
@<TRIPOS>SET
ATOM$ORANGE STATIC     ATOMS   COLORGROUP SYSTEM 
42 5 5 6 6 8 8 10 10 12 12 14 14 16 16 17 17 20 \
20 22 22 28 28 29 29 31 31 33 33 35 35 37 37 38 38 39 \
39 42 42 43 43 44 44 

