#    Name: 6kod_3_FAD
#    Modification time : Fri May 22 19:33:22 2020

@<TRIPOS>MOLECULE
6kod_3_FAD
   53    58     1     0     1
SMALL
NO_CHARGES


@<TRIPOS>ATOM
      1 PA        -43.2030  -35.1290   46.8010 P.3       1 FAD501      0.0000 
      2 O1A       -43.6700  -33.8650   47.4230 O.co2     1 FAD501      0.0000 
      3 O2A       -42.4020  -36.0440   47.7290 O.co2     1 FAD501      0.0000 
      4 O5B       -42.3530  -34.8380   45.5140 O.3       1 FAD501      0.0000 
      5 C5B       -41.3320  -33.8180   45.5110 C.3       1 FAD501      0.0000 
      6 C4B       -40.1250  -34.3040   44.7500 C.3       1 FAD501      0.0000 
      7 O4B       -40.0570  -33.6280   43.4790 O.3       1 FAD501      0.0000 
      8 C3B       -38.7860  -34.0670   45.4520 C.3       1 FAD501      0.0000 
      9 O3B       -38.1420  -35.3010   45.7500 O.3       1 FAD501      0.0000 
     10 C2B       -37.9790  -33.2080   44.4640 C.3       1 FAD501      0.0000 
     11 O2B       -36.6390  -33.6720   44.3520 O.3       1 FAD501      0.0000 
     12 C1B       -38.7100  -33.4250   43.1420 C.3       1 FAD501      0.0000 
     13 N9A       -38.6420  -32.2840   42.2350 N.pl3     1 FAD501      0.0000 
     14 C8A       -39.1180  -31.0210   42.4690 C.2       1 FAD501      0.0000 
     15 N7A       -38.9280  -30.1850   41.4770 N.2       1 FAD501      0.0000 
     16 C5A       -38.2820  -30.9520   40.5200 C.ar      1 FAD501      0.0000 
     17 C6A       -37.8040  -30.6550   39.2290 C.ar      1 FAD501      0.0000 
     18 N6A       -37.9060  -29.4520   38.6570 N.pl3     1 FAD501      0.0000 
     19 N1A       -37.2070  -31.6500   38.5370 N.ar      1 FAD501      0.0000 
     20 C2A       -37.1000  -32.8550   39.1040 C.ar      1 FAD501      0.0000 
     21 N3A       -37.5130  -33.2530   40.3090 N.ar      1 FAD501      0.0000 
     22 C4A       -38.1000  -32.2490   40.9720 C.ar      1 FAD501      0.0000 
     23 N1        -48.4150  -35.5280   55.0890 N.2       1 FAD501      0.0000 
     24 C2        -49.1660  -36.4190   55.7980 C.2       1 FAD501      0.0000 
     25 O2        -50.0860  -37.0550   55.2710 O.2       1 FAD501      0.0000 
     26 N3        -48.9020  -36.6200   57.1420 N.am      1 FAD501      0.0000 
     27 C4        -47.9180  -35.9960   57.8780 C.2       1 FAD501      0.0000 
     28 O4        -47.7780  -36.2560   59.0710 O.2       1 FAD501      0.0000 
     29 C4X       -47.1220  -35.0540   57.1170 C.2       1 FAD501      0.0000 
     30 N5        -46.1700  -34.4210   57.7350 N.2       1 FAD501      0.0000 
     31 C5X       -45.4090  -33.5210   57.0110 C.ar      1 FAD501      0.0000 
     32 C6        -44.3870  -32.8370   57.6640 C.ar      1 FAD501      0.0000 
     33 C7        -43.5910  -31.9230   56.9860 C.ar      1 FAD501      0.0000 
     34 C7M       -42.4940  -31.2060   57.7270 C.3       1 FAD501      0.0000 
     35 C8        -43.8180  -31.6840   55.6200 C.ar      1 FAD501      0.0000 
     36 C8M       -42.9720  -30.6990   54.8570 C.3       1 FAD501      0.0000 
     37 C9        -44.8390  -32.3650   54.9640 C.ar      1 FAD501      0.0000 
     38 C9A       -45.6340  -33.2790   55.6470 C.ar      1 FAD501      0.0000 
     39 N10       -46.6730  -33.9920   55.0130 N.pl3     1 FAD501      0.0000 
     40 C10       -47.4460  -34.8840   55.7240 C.2       1 FAD501      0.0000 
     41 C1'       -46.9680  -33.7810   53.5840 C.3       1 FAD501      0.0000 
     42 C2'       -46.5590  -34.9570   52.7000 C.3       1 FAD501      0.0000 
     43 O2'       -45.3860  -35.5860   53.2170 O.3       1 FAD501      0.0000 
     44 C3'       -46.2860  -34.4530   51.2820 C.3       1 FAD501      0.0000 
     45 O3'       -47.0790  -33.2940   51.0500 O.3       1 FAD501      0.0000 
     46 C4'       -46.5710  -35.4730   50.1770 C.3       1 FAD501      0.0000 
     47 O4'       -45.5800  -36.5010   50.2000 O.3       1 FAD501      0.0000 
     48 C5'       -46.6370  -34.8420   48.8010 C.3       1 FAD501      0.0000 
     49 O5'       -46.3820  -35.8550   47.8040 O.3       1 FAD501      0.0000 
     50 P         -45.9520  -35.4680   46.3370 P.3       1 FAD501      0.0000 
     51 O1P       -46.7590  -36.2920   45.3290 O.co2     1 FAD501      0.0000 
     52 O2P       -46.0230  -34.0010   46.1480 O.co2     1 FAD501      0.0000 
     53 O3P       -44.4420  -35.9570   46.2570 O.3       1 FAD501      0.0000 
@<TRIPOS>BOND
     1    1    2 ar   
     2    1    3 ar   
     3    1    4 1    
     4    1   53 1    
     5    4    5 1    
     6    5    6 1    
     7    6    7 1    
     8    6    8 1    
     9    7   12 1    
    10    8    9 1    
    11    8   10 1    
    12   10   11 1    
    13   10   12 1    
    14   12   13 1    
    15   13   14 1    
    16   13   22 1    
    17   14   15 2    
    18   15   16 1    
    19   16   17 ar   
    20   16   22 ar   
    21   17   18 1    
    22   17   19 ar   
    23   19   20 ar   
    24   20   21 ar   
    25   21   22 ar   
    26   23   24 1    
    27   23   40 2    
    28   24   25 2    
    29   24   26 am   
    30   26   27 am   
    31   27   28 2    
    32   27   29 1    
    33   29   30 2    
    34   29   40 1    
    35   30   31 1    
    36   31   32 ar   
    37   31   38 ar   
    38   32   33 ar   
    39   33   34 1    
    40   33   35 ar   
    41   35   36 1    
    42   35   37 ar   
    43   37   38 ar   
    44   38   39 1    
    45   39   40 1    
    46   39   41 1    
    47   41   42 1    
    48   42   43 1    
    49   42   44 1    
    50   44   45 1    
    51   44   46 1    
    52   46   47 1    
    53   46   48 1    
    54   48   49 1    
    55   49   50 1    
    56   50   51 ar   
    57   50   52 ar   
    58   50   53 1    
@<TRIPOS>SUBSTRUCTURE
     1 FAD501      1 GROUP   
@<TRIPOS>SET
ATOM$ORANGE STATIC     ATOMS   COLORGROUP SYSTEM 
54 5 5 6 6 8 8 10 10 12 12 14 14 16 16 17 17 20 \
20 22 22 24 24 27 27 29 29 31 31 32 32 33 33 34 34 35 \
35 36 36 37 37 38 38 40 40 41 41 42 42 44 44 46 46 48 \
48 

