#    Name: 6kod_2_FAD
#    Modification time : Fri May 22 19:33:13 2020

@<TRIPOS>MOLECULE
6kod_2_FAD
   53    58     1     0     1
SMALL
NO_CHARGES


@<TRIPOS>ATOM
      1 PA         -6.8040  -26.3650   32.3700 P.3       1 FAD501      0.0000 
      2 O1A        -7.2560  -27.4260   31.4360 O.co2     1 FAD501      0.0000 
      3 O2A        -6.2310  -25.1280   31.6740 O.co2     1 FAD501      0.0000 
      4 O5B        -5.7410  -26.9650   33.3980 O.3       1 FAD501      0.0000 
      5 C5B        -5.5800  -26.4130   34.7210 C.3       1 FAD501      0.0000 
      6 C4B        -4.1210  -26.3630   35.1160 C.3       1 FAD501      0.0000 
      7 O4B        -3.8710  -27.2550   36.2260 O.3       1 FAD501      0.0000 
      8 C3B        -3.1090  -26.7240   34.0250 C.3       1 FAD501      0.0000 
      9 O3B        -2.1900  -25.6560   33.8260 O.3       1 FAD501      0.0000 
     10 C2B        -2.4110  -27.9790   34.5700 C.3       1 FAD501      0.0000 
     11 O2B        -1.0230  -28.0240   34.2610 O.3       1 FAD501      0.0000 
     12 C1B        -2.5810  -27.7900   36.0710 C.3       1 FAD501      0.0000 
     13 N9A        -2.4830  -29.0210   36.8500 N.pl3     1 FAD501      0.0000 
     14 C8A        -2.9220  -30.2680   36.4920 C.2       1 FAD501      0.0000 
     15 N7A        -2.6980  -31.1930   37.3950 N.2       1 FAD501      0.0000 
     16 C5A        -2.0580  -30.5070   38.4160 C.ar      1 FAD501      0.0000 
     17 C6A        -1.5550  -30.9160   39.6660 C.ar      1 FAD501      0.0000 
     18 N6A        -1.6170  -32.1720   40.1180 N.pl3     1 FAD501      0.0000 
     19 N1A        -0.9750  -29.9770   40.4480 N.ar      1 FAD501      0.0000 
     20 C2A        -0.9090  -28.7210   40.0010 C.ar      1 FAD501      0.0000 
     21 N3A        -1.3480  -28.2180   38.8460 N.ar      1 FAD501      0.0000 
     22 C4A        -1.9170  -29.1680   38.0930 C.ar      1 FAD501      0.0000 
     23 N1        -12.2290  -25.5040   24.2270 N.2       1 FAD501      0.0000 
     24 C2        -12.9900  -24.6130   23.5260 C.2       1 FAD501      0.0000 
     25 O2        -13.8850  -23.9570   24.0700 O.2       1 FAD501      0.0000 
     26 N3        -12.7610  -24.4340   22.1720 N.am      1 FAD501      0.0000 
     27 C4        -11.8060  -25.0850   21.4140 C.2       1 FAD501      0.0000 
     28 O4        -11.6980  -24.8410   20.2130 O.2       1 FAD501      0.0000 
     29 C4X       -11.0020  -26.0280   22.1690 C.2       1 FAD501      0.0000 
     30 N5        -10.0730  -26.6910   21.5340 N.2       1 FAD501      0.0000 
     31 C5X        -9.3060  -27.5910   22.2590 C.ar      1 FAD501      0.0000 
     32 C6         -8.3080  -28.3080   21.5990 C.ar      1 FAD501      0.0000 
     33 C7         -7.5120  -29.2230   22.2830 C.ar      1 FAD501      0.0000 
     34 C7M        -6.4420  -29.9770   21.5380 C.3       1 FAD501      0.0000 
     35 C8         -7.7160  -29.4270   23.6580 C.ar      1 FAD501      0.0000 
     36 C8M        -6.8730  -30.4100   24.4300 C.3       1 FAD501      0.0000 
     37 C9         -8.7110  -28.7140   24.3190 C.ar      1 FAD501      0.0000 
     38 C9A        -9.5040  -27.8020   23.6310 C.ar      1 FAD501      0.0000 
     39 N10       -10.5170  -27.0630   24.2750 N.pl3     1 FAD501      0.0000 
     40 C10       -11.2900  -26.1710   23.5730 C.2       1 FAD501      0.0000 
     41 C1'       -10.7790  -27.2410   25.7080 C.3       1 FAD501      0.0000 
     42 C2'       -10.0780  -26.2040   26.5780 C.3       1 FAD501      0.0000 
     43 O2'        -8.6940  -26.1300   26.2350 O.3       1 FAD501      0.0000 
     44 C3'       -10.2220  -26.6040   28.0470 C.3       1 FAD501      0.0000 
     45 O3'       -11.3890  -27.4040   28.1940 O.3       1 FAD501      0.0000 
     46 C4'       -10.3140  -25.4220   29.0130 C.3       1 FAD501      0.0000 
     47 O4'        -9.0900  -24.6880   28.9920 O.3       1 FAD501      0.0000 
     48 C5'       -10.6490  -25.8540   30.4250 C.3       1 FAD501      0.0000 
     49 O5'        -9.4580  -25.7770   31.2360 O.3       1 FAD501      0.0000 
     50 P          -9.5390  -25.8370   32.8080 P.3       1 FAD501      0.0000 
     51 O1P       -10.1480  -24.5320   33.3320 O.co2     1 FAD501      0.0000 
     52 O2P       -10.2500  -27.0660   33.2330 O.co2     1 FAD501      0.0000 
     53 O3P        -8.0150  -25.8940   33.2800 O.3       1 FAD501      0.0000 
@<TRIPOS>BOND
     1    1    2 ar   
     2    1    3 ar   
     3    1    4 1    
     4    1   53 1    
     5    4    5 1    
     6    5    6 1    
     7    6    7 1    
     8    6    8 1    
     9    7   12 1    
    10    8    9 1    
    11    8   10 1    
    12   10   11 1    
    13   10   12 1    
    14   12   13 1    
    15   13   14 1    
    16   13   22 1    
    17   14   15 2    
    18   15   16 1    
    19   16   17 ar   
    20   16   22 ar   
    21   17   18 1    
    22   17   19 ar   
    23   19   20 ar   
    24   20   21 ar   
    25   21   22 ar   
    26   23   24 1    
    27   23   40 2    
    28   24   25 2    
    29   24   26 am   
    30   26   27 am   
    31   27   28 2    
    32   27   29 1    
    33   29   30 2    
    34   29   40 1    
    35   30   31 1    
    36   31   32 ar   
    37   31   38 ar   
    38   32   33 ar   
    39   33   34 1    
    40   33   35 ar   
    41   35   36 1    
    42   35   37 ar   
    43   37   38 ar   
    44   38   39 1    
    45   39   40 1    
    46   39   41 1    
    47   41   42 1    
    48   42   43 1    
    49   42   44 1    
    50   44   45 1    
    51   44   46 1    
    52   46   47 1    
    53   46   48 1    
    54   48   49 1    
    55   49   50 1    
    56   50   51 ar   
    57   50   52 ar   
    58   50   53 1    
@<TRIPOS>SUBSTRUCTURE
     1 FAD501      1 GROUP   
@<TRIPOS>SET
ATOM$ORANGE STATIC     ATOMS   COLORGROUP SYSTEM 
54 5 5 6 6 8 8 10 10 12 12 14 14 16 16 17 17 20 \
20 22 22 24 24 27 27 29 29 31 31 32 32 33 33 34 34 35 \
35 36 36 37 37 38 38 40 40 41 41 42 42 44 44 46 46 48 \
48 

