#    Name: 6kod_1_FAD
#    Modification time : Fri May 22 19:33:04 2020

@<TRIPOS>MOLECULE
6kod_1_FAD
   53    58     1     0     1
SMALL
NO_CHARGES


@<TRIPOS>ATOM
      1 PA        -30.9720   -0.6990   -6.4560 P.3       1 FAD501      0.0000 
      2 O1A       -30.2670    0.5540   -6.0910 O.co2     1 FAD501      0.0000 
      3 O2A       -30.0630   -1.9330   -6.4980 O.co2     1 FAD501      0.0000 
      4 O5B       -31.7420   -0.5450   -7.8240 O.3       1 FAD501      0.0000 
      5 C5B       -31.1340    0.1040   -8.9600 C.3       1 FAD501      0.0000 
      6 C4B       -31.5660   -0.6120  -10.2140 C.3       1 FAD501      0.0000 
      7 O4B       -32.6090    0.1420  -10.8770 O.3       1 FAD501      0.0000 
      8 C3B       -30.4620   -0.8320  -11.2500 C.3       1 FAD501      0.0000 
      9 O3B       -30.4990   -2.1620  -11.7550 O.3       1 FAD501      0.0000 
     10 C2B       -30.7920    0.1980  -12.3340 C.3       1 FAD501      0.0000 
     11 O2B       -30.3510   -0.2110  -13.6230 O.3       1 FAD501      0.0000 
     12 C1B       -32.3140    0.2070  -12.2530 C.3       1 FAD501      0.0000 
     13 N9A       -32.9460    1.3950  -12.8210 N.pl3     1 FAD501      0.0000 
     14 C8A       -32.6580    2.7050  -12.5450 C.2       1 FAD501      0.0000 
     15 N7A       -33.3850    3.5660  -13.2180 N.2       1 FAD501      0.0000 
     16 C5A       -34.2080    2.7640  -13.9930 C.ar      1 FAD501      0.0000 
     17 C6A       -35.2170    3.0620  -14.9300 C.ar      1 FAD501      0.0000 
     18 N6A       -35.5830    4.3040  -15.2580 N.pl3     1 FAD501      0.0000 
     19 N1A       -35.8460    2.0250  -15.5260 N.ar      1 FAD501      0.0000 
     20 C2A       -35.4850    0.7810  -15.2020 C.ar      1 FAD501      0.0000 
     21 N3A       -34.5540    0.3780  -14.3350 N.ar      1 FAD501      0.0000 
     22 C4A       -33.9480    1.4240  -13.7600 C.ar      1 FAD501      0.0000 
     23 N1        -24.8310   -1.1000    1.2170 N.2       1 FAD501      0.0000 
     24 C2        -24.6430   -1.8330    2.3520 C.2       1 FAD501      0.0000 
     25 O2        -25.5770   -2.1160    3.1100 O.2       1 FAD501      0.0000 
     26 N3        -23.3780   -2.2780    2.6770 N.am      1 FAD501      0.0000 
     27 C4        -22.2310   -2.0590    1.9560 C.2       1 FAD501      0.0000 
     28 O4        -21.1660   -2.5110    2.3620 O.2       1 FAD501      0.0000 
     29 C4X       -22.4340   -1.2770    0.7500 C.2       1 FAD501      0.0000 
     30 N5        -21.3940   -1.0190   -0.0080 N.2       1 FAD501      0.0000 
     31 C5X       -21.6000   -0.2720   -1.1630 C.ar      1 FAD501      0.0000 
     32 C6        -20.5110    0.0190   -1.9860 C.ar      1 FAD501      0.0000 
     33 C7        -20.6720    0.7640   -3.1520 C.ar      1 FAD501      0.0000 
     34 C7M       -19.4750    1.0590   -4.0170 C.3       1 FAD501      0.0000 
     35 C8        -21.9490    1.2290   -3.5060 C.ar      1 FAD501      0.0000 
     36 C8M       -22.1600    2.0380   -4.7590 C.3       1 FAD501      0.0000 
     37 C9        -23.0360    0.9410   -2.6880 C.ar      1 FAD501      0.0000 
     38 C9A       -22.8710    0.1980   -1.5250 C.ar      1 FAD501      0.0000 
     39 N10       -23.9570   -0.1100   -0.6820 N.pl3     1 FAD501      0.0000 
     40 C10       -23.7740   -0.8410    0.4640 C.2       1 FAD501      0.0000 
     41 C1'       -25.3060    0.3600   -1.0020 C.3       1 FAD501      0.0000 
     42 C2'       -26.1300   -0.6600   -1.7750 C.3       1 FAD501      0.0000 
     43 O2'       -25.3770   -1.1740   -2.8750 O.3       1 FAD501      0.0000 
     44 C3'       -27.3960    0.0190   -2.2950 C.3       1 FAD501      0.0000 
     45 O3'       -27.6510    1.1720   -1.5000 O.3       1 FAD501      0.0000 
     46 C4'       -28.6350   -0.8740   -2.2810 C.3       1 FAD501      0.0000 
     47 O4'       -28.4250   -1.9890   -3.1470 O.3       1 FAD501      0.0000 
     48 C5'       -29.8850   -0.1180   -2.6760 C.3       1 FAD501      0.0000 
     49 O5'       -30.7950   -1.0240   -3.3340 O.3       1 FAD501      0.0000 
     50 P         -32.1710   -0.5210   -3.9090 P.3       1 FAD501      0.0000 
     51 O1P       -33.3030   -1.2870   -3.2170 O.co2     1 FAD501      0.0000 
     52 O2P       -32.2540    0.9590   -3.8420 O.co2     1 FAD501      0.0000 
     53 O3P       -32.1350   -0.9920   -5.4200 O.3       1 FAD501      0.0000 
@<TRIPOS>BOND
     1    1    2 ar   
     2    1    3 ar   
     3    1    4 1    
     4    1   53 1    
     5    4    5 1    
     6    5    6 1    
     7    6    7 1    
     8    6    8 1    
     9    7   12 1    
    10    8    9 1    
    11    8   10 1    
    12   10   11 1    
    13   10   12 1    
    14   12   13 1    
    15   13   14 1    
    16   13   22 1    
    17   14   15 2    
    18   15   16 1    
    19   16   17 ar   
    20   16   22 ar   
    21   17   18 1    
    22   17   19 ar   
    23   19   20 ar   
    24   20   21 ar   
    25   21   22 ar   
    26   23   24 1    
    27   23   40 2    
    28   24   25 2    
    29   24   26 am   
    30   26   27 am   
    31   27   28 2    
    32   27   29 1    
    33   29   30 2    
    34   29   40 1    
    35   30   31 1    
    36   31   32 ar   
    37   31   38 ar   
    38   32   33 ar   
    39   33   34 1    
    40   33   35 ar   
    41   35   36 1    
    42   35   37 ar   
    43   37   38 ar   
    44   38   39 1    
    45   39   40 1    
    46   39   41 1    
    47   41   42 1    
    48   42   43 1    
    49   42   44 1    
    50   44   45 1    
    51   44   46 1    
    52   46   47 1    
    53   46   48 1    
    54   48   49 1    
    55   49   50 1    
    56   50   51 ar   
    57   50   52 ar   
    58   50   53 1    
@<TRIPOS>SUBSTRUCTURE
     1 FAD501      1 GROUP   
@<TRIPOS>SET
ATOM$ORANGE STATIC     ATOMS   COLORGROUP SYSTEM 
54 5 5 6 6 8 8 10 10 12 12 14 14 16 16 17 17 20 \
20 22 22 24 24 27 27 29 29 31 31 32 32 33 33 34 34 35 \
35 36 36 37 37 38 38 40 40 41 41 42 42 44 44 46 46 48 \
48 

