#    Name: 6kod_4_FAD
#    Modification time : Fri May 22 19:33:31 2020

@<TRIPOS>MOLECULE
6kod_4_FAD
   53    58     1     0     1
SMALL
NO_CHARGES


@<TRIPOS>ATOM
      1 PA        -66.9680  -61.4810   84.7380 P.3       1 FAD501      0.0000 
      2 O1A       -66.1740  -62.7260   84.6040 O.co2     1 FAD501      0.0000 
      3 O2A       -66.2140  -60.1930   84.3860 O.co2     1 FAD501      0.0000 
      4 O5B       -67.5900  -61.3400   86.1840 O.3       1 FAD501      0.0000 
      5 C5B       -67.4650  -62.3930   87.1610 C.3       1 FAD501      0.0000 
      6 C4B       -67.7780  -61.8340   88.5260 C.3       1 FAD501      0.0000 
      7 O4B       -68.8240  -62.6130   89.1520 O.3       1 FAD501      0.0000 
      8 C3B       -66.6010  -61.8080   89.5050 C.3       1 FAD501      0.0000 
      9 O3B       -66.4520  -60.5130   90.0760 O.3       1 FAD501      0.0000 
     10 C2B       -66.9800  -62.8610   90.5540 C.3       1 FAD501      0.0000 
     11 O2B       -66.4990  -62.5280   91.8510 O.3       1 FAD501      0.0000 
     12 C1B       -68.5010  -62.7860   90.5120 C.3       1 FAD501      0.0000 
     13 N9A       -69.1810  -63.9790   91.0110 N.pl3     1 FAD501      0.0000 
     14 C8A       -68.8990  -65.2840   90.7030 C.2       1 FAD501      0.0000 
     15 N7A       -69.6740  -66.1550   91.3040 N.2       1 FAD501      0.0000 
     16 C5A       -70.5250  -65.3670   92.0640 C.ar      1 FAD501      0.0000 
     17 C6A       -71.5870  -65.6820   92.9360 C.ar      1 FAD501      0.0000 
     18 N6A       -71.9870  -66.9280   93.2010 N.pl3     1 FAD501      0.0000 
     19 N1A       -72.2310  -64.6550   93.5370 N.ar      1 FAD501      0.0000 
     20 C2A       -71.8350  -63.4070   93.2770 C.ar      1 FAD501      0.0000 
     21 N3A       -70.8520  -62.9900   92.4760 N.ar      1 FAD501      0.0000 
     22 C4A       -70.2320  -64.0240   91.8950 C.ar      1 FAD501      0.0000 
     23 N1        -60.7580  -60.6830   77.3950 N.2       1 FAD501      0.0000 
     24 C2        -60.5590  -59.8810   76.3090 C.2       1 FAD501      0.0000 
     25 O2        -61.4840  -59.5870   75.5430 O.2       1 FAD501      0.0000 
     26 N3        -59.2950  -59.3820   76.0480 N.am      1 FAD501      0.0000 
     27 C4        -58.1600  -59.6110   76.7960 C.2       1 FAD501      0.0000 
     28 O4        -57.0890  -59.1080   76.4620 O.2       1 FAD501      0.0000 
     29 C4X       -58.3820  -60.4640   77.9490 C.2       1 FAD501      0.0000 
     30 N5        -57.3610  -60.7380   78.7200 N.2       1 FAD501      0.0000 
     31 C5X       -57.5790  -61.5530   79.8230 C.ar      1 FAD501      0.0000 
     32 C6        -56.5060  -61.8570   80.6590 C.ar      1 FAD501      0.0000 
     33 C7        -56.6760  -62.6700   81.7760 C.ar      1 FAD501      0.0000 
     34 C7M       -55.4930  -62.9770   82.6560 C.3       1 FAD501      0.0000 
     35 C8        -57.9480  -63.1920   82.0660 C.ar      1 FAD501      0.0000 
     36 C8M       -58.1670  -64.0750   83.2660 C.3       1 FAD501      0.0000 
     37 C9        -59.0210  -62.8910   81.2340 C.ar      1 FAD501      0.0000 
     38 C9A       -58.8450  -62.0790   80.1200 C.ar      1 FAD501      0.0000 
     39 N10       -59.9150  -61.7540   79.2620 N.pl3     1 FAD501      0.0000 
     40 C10       -59.7190  -60.9510   78.1650 C.2       1 FAD501      0.0000 
     41 C1'       -61.2610  -62.2750   79.5160 C.3       1 FAD501      0.0000 
     42 C2'       -62.1470  -61.3020   80.2830 C.3       1 FAD501      0.0000 
     43 O2'       -61.4360  -60.7610   81.3970 O.3       1 FAD501      0.0000 
     44 C3'       -63.3860  -62.0440   80.7840 C.3       1 FAD501      0.0000 
     45 O3'       -63.6470  -63.1380   79.9130 O.3       1 FAD501      0.0000 
     46 C4'       -64.6430  -61.1810   80.8720 C.3       1 FAD501      0.0000 
     47 O4'       -64.4800  -60.2020   81.8980 O.3       1 FAD501      0.0000 
     48 C5'       -65.8850  -62.0090   81.1250 C.3       1 FAD501      0.0000 
     49 O5'       -66.8580  -61.1950   81.8100 O.3       1 FAD501      0.0000 
     50 P         -68.2490  -61.7840   82.2470 P.3       1 FAD501      0.0000 
     51 O1P       -69.3760  -60.9390   81.6430 O.co2     1 FAD501      0.0000 
     52 O2P       -68.3160  -63.2360   81.9450 O.co2     1 FAD501      0.0000 
     53 O3P       -68.2570  -61.5550   83.8170 O.3       1 FAD501      0.0000 
@<TRIPOS>BOND
     1    1    2 ar   
     2    1    3 ar   
     3    1    4 1    
     4    1   53 1    
     5    4    5 1    
     6    5    6 1    
     7    6    7 1    
     8    6    8 1    
     9    7   12 1    
    10    8    9 1    
    11    8   10 1    
    12   10   11 1    
    13   10   12 1    
    14   12   13 1    
    15   13   14 1    
    16   13   22 1    
    17   14   15 2    
    18   15   16 1    
    19   16   17 ar   
    20   16   22 ar   
    21   17   18 1    
    22   17   19 ar   
    23   19   20 ar   
    24   20   21 ar   
    25   21   22 ar   
    26   23   24 1    
    27   23   40 2    
    28   24   25 2    
    29   24   26 am   
    30   26   27 am   
    31   27   28 2    
    32   27   29 1    
    33   29   30 2    
    34   29   40 1    
    35   30   31 1    
    36   31   32 ar   
    37   31   38 ar   
    38   32   33 ar   
    39   33   34 1    
    40   33   35 ar   
    41   35   36 1    
    42   35   37 ar   
    43   37   38 ar   
    44   38   39 1    
    45   39   40 1    
    46   39   41 1    
    47   41   42 1    
    48   42   43 1    
    49   42   44 1    
    50   44   45 1    
    51   44   46 1    
    52   46   47 1    
    53   46   48 1    
    54   48   49 1    
    55   49   50 1    
    56   50   51 ar   
    57   50   52 ar   
    58   50   53 1    
@<TRIPOS>SUBSTRUCTURE
     1 FAD501      1 GROUP   
@<TRIPOS>SET
ATOM$ORANGE STATIC     ATOMS   COLORGROUP SYSTEM 
54 5 5 6 6 8 8 10 10 12 12 14 14 16 16 17 17 20 \
20 22 22 24 24 27 27 29 29 31 31 32 32 33 33 34 34 35 \
35 36 36 37 37 38 38 40 40 41 41 42 42 44 44 46 46 48 \
48 

