#    Name: 5us6_10_NAD
#    Modification time : Fri May 22 19:18:30 2020

@<TRIPOS>MOLECULE
5us6_10_NAD
   44    48     1     0     1
SMALL
NO_CHARGES


@<TRIPOS>ATOM
      1 PA         63.5280   -6.4210   11.2310 P.3       1 NAD1001     0.0000 
      2 O1A        64.9860   -6.2880   10.7310 O.co2     1 NAD1001     0.0000 
      3 O2A        63.2210   -6.8380   12.6480 O.co2     1 NAD1001     0.0000 
      4 O5B        62.7260   -7.5030   10.4290 O.3       1 NAD1001     0.0000 
      5 C5B        62.7440   -7.6720    9.0060 C.3       1 NAD1001     0.0000 
      6 C4B        62.4510   -9.1690    8.7350 C.3       1 NAD1001     0.0000 
      7 O4B        62.2790   -9.5100    7.3650 O.3       1 NAD1001     0.0000 
      8 C3B        63.6010  -10.0150    9.2710 C.3       1 NAD1001     0.0000 
      9 O3B        63.0900  -11.0550   10.0940 O.3       1 NAD1001     0.0000 
     10 C2B        64.2750  -10.5790    8.0630 C.3       1 NAD1001     0.0000 
     11 O2B        64.8580  -11.8430    8.4100 O.3       1 NAD1001     0.0000 
     12 C1B        63.0740  -10.6550    7.1340 C.3       1 NAD1001     0.0000 
     13 N9A        63.5240  -10.7260    5.7440 N.pl3     1 NAD1001     0.0000 
     14 C8A        64.4960  -10.0060    5.1490 C.2       1 NAD1001     0.0000 
     15 N7A        64.6500  -10.3860    3.8540 N.2       1 NAD1001     0.0000 
     16 C5A        63.7630  -11.3810    3.6290 C.ar      1 NAD1001     0.0000 
     17 C6A        63.3790  -12.2700    2.5030 C.ar      1 NAD1001     0.0000 
     18 N6A        63.9660  -12.1400    1.3130 N.pl3     1 NAD1001     0.0000 
     19 N1A        62.4040  -13.1880    2.6650 N.ar      1 NAD1001     0.0000 
     20 C2A        61.7760  -13.3190    3.8420 C.ar      1 NAD1001     0.0000 
     21 N3A        62.0690  -12.5510    4.9240 N.ar      1 NAD1001     0.0000 
     22 C4A        63.0310  -11.5920    4.8830 C.ar      1 NAD1001     0.0000 
     23 O3         62.7270   -5.1110   10.7190 O.3       1 NAD1001     0.0000 
     24 PN         61.4380   -4.4120   11.4330 P.3       1 NAD1001     0.0000 
     25 O1N        61.9650   -3.6290   12.6100 O.co2     1 NAD1001     0.0000 
     26 O2N        60.3430   -5.4020   11.7260 O.co2     1 NAD1001     0.0000 
     27 O5D        60.9990   -3.4360   10.2470 O.3       1 NAD1001     0.0000 
     28 C5D        60.8590   -3.9300    8.9160 C.3       1 NAD1001     0.0000 
     29 C4D        60.6110   -2.8150    7.8990 C.3       1 NAD1001     0.0000 
     30 O4D        59.3060   -2.2650    8.0800 O.3       1 NAD1001     0.0000 
     31 C3D        61.5630   -1.6500    8.0730 C.3       1 NAD1001     0.0000 
     32 O3D        61.8360   -1.1220    6.7660 O.3       1 NAD1001     0.0000 
     33 C2D        60.8300   -0.6480    8.9370 C.3       1 NAD1001     0.0000 
     34 O2D        61.2270    0.6870    8.6350 O.3       1 NAD1001     0.0000 
     35 C1D        59.3960   -0.8760    8.4680 C.3       1 NAD1001     0.0000 
     36 N1N        58.2640   -0.5680    9.3800 N.pl3     1 NAD1001     0.0000 
     37 C2N        57.2140    0.0780    8.8730 C.ar      1 NAD1001     0.0000 
     38 C3N        56.1210    0.4100    9.6600 C.ar      1 NAD1001     0.0000 
     39 C7N        54.9120    1.0760    9.0530 C.2       1 NAD1001     0.0000 
     40 O7N        53.8850    1.1630    9.7190 O.2       1 NAD1001     0.0000 
     41 N7N        54.8700    1.4780    7.7750 N.am      1 NAD1001     0.0000 
     42 C4N        56.0830   -0.0110   10.9800 C.ar      1 NAD1001     0.0000 
     43 C5N        57.1490   -0.7020   11.4730 C.ar      1 NAD1001     0.0000 
     44 C6N        58.2480   -0.9460   10.6570 C.ar      1 NAD1001     0.0000 
@<TRIPOS>BOND
     1    1    2 ar   
     2    1    3 ar   
     3    1    4 1    
     4    1   23 1    
     5    4    5 1    
     6    5    6 1    
     7    6    7 1    
     8    6    8 1    
     9    7   12 1    
    10    8    9 1    
    11    8   10 1    
    12   10   11 1    
    13   10   12 1    
    14   12   13 1    
    15   13   14 1    
    16   13   22 1    
    17   14   15 2    
    18   15   16 1    
    19   16   17 ar   
    20   16   22 ar   
    21   17   18 1    
    22   17   19 ar   
    23   19   20 ar   
    24   20   21 ar   
    25   21   22 ar   
    26   23   24 1    
    27   24   25 ar   
    28   24   26 ar   
    29   24   27 1    
    30   27   28 1    
    31   28   29 1    
    32   29   30 1    
    33   29   31 1    
    34   30   35 1    
    35   31   32 1    
    36   31   33 1    
    37   33   34 1    
    38   33   35 1    
    39   35   36 1    
    40   36   37 ar   
    41   36   44 ar   
    42   37   38 ar   
    43   38   39 1    
    44   38   42 ar   
    45   39   40 2    
    46   39   41 am   
    47   42   43 ar   
    48   43   44 ar   
@<TRIPOS>SUBSTRUCTURE
     1 NAD1001     1 GROUP   
@<TRIPOS>SET
ATOM$ORANGE STATIC     ATOMS   COLORGROUP SYSTEM 
42 5 5 6 6 8 8 10 10 12 12 14 14 16 16 17 17 20 \
20 22 22 28 28 29 29 31 31 33 33 35 35 37 37 38 38 39 \
39 42 42 43 43 44 44 

