#    Name: 5us6_8_NAD_CAVITY_N1_12
#    Modification time : Fri May 22 19:18:44 2020

@<TRIPOS>MOLECULE
5us6_8_NAD_CAVITY_N1_12
  131     0     7     0     0
SMALL
NO_CHARGES


@<TRIPOS>ATOM
      1 OG          6.6500  -58.2900   36.5500 O.3       1 SER1        0.0000 
      2 OG          5.8500  -58.5300   37.7900 O.3       1 SER1        0.0000 
      3 OG          8.1800  -56.9300   36.0000 O.3       1 SER1        0.0000 
      4 OG          7.1500  -55.9600   35.5100 O.3       1 SER1        0.0000 
      5 OG          7.3800  -57.1700   37.2400 O.3       1 SER1        0.0000 
      6 OG          6.3400  -56.2000   36.7500 O.3       1 SER1        0.0000 
      7 OG          5.9900  -58.8700   41.4400 O.3       1 SER1        0.0000 
      8 OG          7.5200  -57.5100   40.8900 O.3       1 SER1        0.0000 
      9 OG          6.7100  -57.7500   42.1300 O.3       1 SER1        0.0000 
     10 OG          9.6300  -54.6900   37.3800 O.3       1 SER1        0.0000 
     11 OG         10.3500  -53.5700   38.0700 O.3       1 SER1        0.0000 
     12 OG          8.5100  -52.8400   38.8200 O.3       1 SER1        0.0000 
     13 O           4.2200  -65.1900   37.2400 O.2       2 ALA2        0.0000 
     14 O           7.5100  -63.6800   37.8600 O.2       2 ALA2        0.0000 
     15 N           7.7400  -64.8900   39.5900 N.am      2 ALA2        0.0000 
     16 N           6.7000  -63.9200   39.1000 N.am      2 ALA2        0.0000 
     17 N           6.9300  -65.1300   40.8300 N.am      2 ALA2        0.0000 
     18 N           5.8900  -64.1600   40.3400 N.am      2 ALA2        0.0000 
     19 N           5.0900  -64.4100   41.5800 N.am      2 ALA2        0.0000 
     20 N           4.0500  -63.4400   41.1000 N.am      2 ALA2        0.0000 
     21 N           4.2800  -64.6500   42.8200 N.am      2 ALA2        0.0000 
     22 N           3.2400  -63.6800   42.3400 N.am      2 ALA2        0.0000 
     23 N           7.4200  -62.8000   39.7900 N.am      2 ALA2        0.0000 
     24 N           6.6200  -63.0400   41.0300 N.am      2 ALA2        0.0000 
     25 N           5.5800  -62.0800   40.5500 N.am      2 ALA2        0.0000 
     26 N           4.7700  -62.3200   41.7900 N.am      2 ALA2        0.0000 
     27 N           3.7300  -61.3500   41.3000 N.am      2 ALA2        0.0000 
     28 N           2.9300  -61.5900   42.5400 N.am      2 ALA2        0.0000 
     29 N           8.1500  -61.6800   40.4800 N.am      2 ALA2        0.0000 
     30 N           6.3000  -60.9600   41.2400 N.am      2 ALA2        0.0000 
     31 N           4.4600  -60.2300   41.9900 N.am      2 ALA2        0.0000 
     32 N           3.6500  -60.4700   43.2300 N.am      2 ALA2        0.0000 
     33 N           8.0600  -60.8100   42.4100 N.am      2 ALA2        0.0000 
     34 N           7.0200  -59.8400   41.9300 N.am      2 ALA2        0.0000 
     35 N           6.2200  -60.0800   43.1700 N.am      2 ALA2        0.0000 
     36 N           5.1800  -59.1100   42.6800 N.am      2 ALA2        0.0000 
     37 N           4.3700  -59.3600   43.9200 N.am      2 ALA2        0.0000 
     38 N           9.7100  -55.5600   35.4500 N.am      2 ALA2        0.0000 
     39 N           9.3600  -58.2300   40.1400 N.am      2 ALA2        0.0000 
     40 N           9.5900  -59.4500   41.8600 N.am      2 ALA2        0.0000 
     41 N           8.5600  -58.4800   41.3800 N.am      2 ALA2        0.0000 
     42 O           7.7500  -58.7200   42.6200 O.2       2 ALA2        0.0000 
     43 N           5.9000  -57.9900   43.3700 N.am      2 ALA2        0.0000 
     44 N          10.8900  -56.8700   39.5900 N.am      2 ALA2        0.0000 
     45 N           9.2800  -57.3600   42.0700 N.am      2 ALA2        0.0000 
     46 O          12.2000  -54.3000   37.3100 O.2       2 ALA2        0.0000 
     47 N          13.4600  -56.4800   39.5200 N.am      2 ALA2        0.0000 
     48 N          12.4200  -55.5100   39.0400 N.am      2 ALA2        0.0000 
     49 N          11.3900  -54.5400   38.5500 N.am      2 ALA2        0.0000 
     50 N          12.6500  -56.7200   40.7600 N.am      2 ALA2        0.0000 
     51 N          11.6200  -55.7500   40.2800 N.am      2 ALA2        0.0000 
     52 N          10.5800  -54.7800   39.7900 N.am      2 ALA2        0.0000 
     53 N           9.5400  -53.8100   39.3100 N.am      2 ALA2        0.0000 
     54 OD1         4.9400  -64.0700   37.9300 O.co2     3 ASP3        0.0000 
     55 OD1         3.1000  -63.3400   38.6800 O.co2     3 ASP3        0.0000 
     56 OD1         5.6700  -62.9500   38.6200 O.co2     3 ASP3        0.0000 
     57 OD1         3.8200  -62.2200   39.3700 O.co2     3 ASP3        0.0000 
     58 OD1         6.9700  -60.3800   36.3400 O.co2     3 ASP3        0.0000 
     59 OD1         7.2000  -61.5900   38.0700 O.co2     3 ASP3        0.0000 
     60 OD1         6.1600  -60.6200   37.5800 O.co2     3 ASP3        0.0000 
     61 OD1         5.3500  -60.8600   38.8200 O.co2     3 ASP3        0.0000 
     62 OD1         8.5000  -59.0100   35.7900 O.co2     3 ASP3        0.0000 
     63 OD1         6.5700  -57.4100   38.4800 O.co2     3 ASP3        0.0000 
     64 OD1         5.7600  -57.6600   39.7200 O.co2     3 ASP3        0.0000 
     65 OD1         8.1000  -56.0500   37.9300 O.co2     3 ASP3        0.0000 
     66 OD1         7.0600  -55.0800   37.4400 O.co2     3 ASP3        0.0000 
     67 OD1         8.3300  -57.2600   39.6500 O.co2     3 ASP3        0.0000 
     68 OD1         8.8200  -54.9300   38.6200 O.co2     3 ASP3        0.0000 
     69 OD1         7.7800  -53.9600   38.1300 O.co2     3 ASP3        0.0000 
     70 NZ          4.6800  -67.6100   40.6900 N.4       4 LYS4        0.0000 
     71 CZ         10.0300  -57.6500   35.2400 C.ar      5 PHE5        0.0000 
     72 CZ          9.6800  -60.3200   39.9300 C.ar      5 PHE5        0.0000 
     73 CZ         11.7900  -57.5000   36.4200 C.ar      5 PHE5        0.0000 
     74 CZ         10.7500  -56.5300   35.9300 C.ar      5 PHE5        0.0000 
     75 CZ         12.0200  -58.7200   38.1400 C.ar      5 PHE5        0.0000 
     76 CZ          8.9100  -55.8100   36.6900 C.ar      5 PHE5        0.0000 
     77 CZ          7.8700  -54.8400   36.2000 C.ar      5 PHE5        0.0000 
     78 CZ         11.2100  -58.9600   39.3800 C.ar      5 PHE5        0.0000 
     79 CZ         10.4000  -59.2000   40.6200 C.ar      5 PHE5        0.0000 
     80 CZ         13.5500  -57.3500   37.5900 C.ar      5 PHE5        0.0000 
     81 CZ         12.5100  -56.3800   37.1100 C.ar      5 PHE5        0.0000 
     82 CZ         11.4700  -55.4200   36.6200 C.ar      5 PHE5        0.0000 
     83 CZ         12.7400  -57.6000   38.8300 C.ar      5 PHE5        0.0000 
     84 CZ         11.9300  -57.8400   40.0700 C.ar      5 PHE5        0.0000 
     85 CZ         13.2300  -55.2700   37.8000 C.ar      5 PHE5        0.0000 
     86 CA          5.4900  -67.3700   39.4500 C.3       6 GLY6        0.0000 
     87 CA          4.4500  -66.4000   38.9600 C.3       6 GLY6        0.0000 
     88 CA          5.9800  -65.0400   38.4100 C.3       6 GLY6        0.0000 
     89 CA          6.2100  -66.2500   40.1400 C.3       6 GLY6        0.0000 
     90 CA          5.1700  -65.2800   39.6500 C.3       6 GLY6        0.0000 
     91 CA          6.4700  -62.7100   37.3800 C.3       6 GLY6        0.0000 
     92 CA          8.0000  -61.3500   36.8300 C.3       6 GLY6        0.0000 
     93 CA          8.2300  -62.5600   38.5500 C.3       6 GLY6        0.0000 
     94 CA          8.7300  -60.2300   37.5200 C.3       6 GLY6        0.0000 
     95 CA          8.9600  -61.4400   39.2400 C.3       6 GLY6        0.0000 
     96 CA          7.9200  -60.4700   38.7600 C.3       6 GLY6        0.0000 
     97 CA         11.0700  -58.6200   35.7300 C.3       6 GLY6        0.0000 
     98 CA         10.2600  -58.8700   36.9700 C.3       6 GLY6        0.0000 
     99 CA          9.4500  -59.1100   38.2100 C.3       6 GLY6        0.0000 
    100 CA          8.8700  -60.5600   41.1700 C.3       6 GLY6        0.0000 
    101 CA         10.9800  -57.7500   37.6600 C.3       6 GLY6        0.0000 
    102 CA          9.0500  -56.1400   40.3400 C.3       6 GLY6        0.0000 
    103 CA         10.8100  -56.0000   41.5200 C.3       6 GLY6        0.0000 
    104 CA          8.7300  -54.0600   40.5500 C.3       6 GLY6        0.0000 
    105 DU          3.4100  -65.4300   38.4800 H         7 CUB7        0.0000 
    106 DU          3.6400  -66.6400   40.2000 H         7 CUB7        0.0000 
    107 DU          4.1300  -64.3100   39.1700 H         7 CUB7        0.0000 
    108 DU          5.4000  -66.4900   41.3800 H         7 CUB7        0.0000 
    109 DU          4.3600  -65.5300   40.8900 H         7 CUB7        0.0000 
    110 DU          3.3300  -64.5600   40.4100 H         7 CUB7        0.0000 
    111 DU          3.5500  -65.7700   42.1300 H         7 CUB7        0.0000 
    112 DU          4.8600  -63.1900   39.8600 H         7 CUB7        0.0000 
    113 DU          3.0100  -62.4700   40.6100 H         7 CUB7        0.0000 
    114 DU          6.3900  -61.8300   39.3100 H         7 CUB7        0.0000 
    115 DU          4.5400  -61.1100   40.0600 H         7 CUB7        0.0000 
    116 DU          7.6900  -59.2600   37.0300 H         7 CUB7        0.0000 
    117 DU          6.8800  -59.5000   38.2700 H         7 CUB7        0.0000 
    118 DU          7.1100  -60.7100   40.0000 H         7 CUB7        0.0000 
    119 DU          6.0700  -59.7400   39.5100 H         7 CUB7        0.0000 
    120 DU          9.2200  -57.9000   36.4800 H         7 CUB7        0.0000 
    121 DU          8.4100  -58.1400   37.7200 H         7 CUB7        0.0000 
    122 DU          8.6400  -59.3500   39.4500 H         7 CUB7        0.0000 
    123 DU          7.6000  -58.3800   38.9600 H         7 CUB7        0.0000 
    124 DU          7.8300  -59.5900   40.6900 H         7 CUB7        0.0000 
    125 DU          6.8000  -58.6300   40.2000 H         7 CUB7        0.0000 
    126 DU          9.9400  -56.7800   37.1700 H         7 CUB7        0.0000 
    127 DU         10.1700  -57.9900   38.9000 H         7 CUB7        0.0000 
    128 DU          9.1400  -57.0200   38.4100 H         7 CUB7        0.0000 
    129 DU         11.7000  -56.6300   38.3500 H         7 CUB7        0.0000 
    130 DU         10.6700  -55.6600   37.8600 H         7 CUB7        0.0000 
    131 DU          9.8600  -55.9000   39.1000 H         7 CUB7        0.0000 
@<TRIPOS>BOND
@<TRIPOS>SUBSTRUCTURE
     1 SER1        1 GROUP   
     2 ALA2       13 GROUP   
     3 ASP3       54 GROUP   
     4 LYS4       70 GROUP   
     5 PHE5       71 GROUP   
     6 GLY6       86 GROUP   
     7 CUB7      105 GROUP   
@<TRIPOS>SET

