#    Name: 5us6_9_NAD
#    Modification time : Fri May 22 19:18:36 2020

@<TRIPOS>MOLECULE
5us6_9_NAD
   44    48     1     0     1
SMALL
NO_CHARGES


@<TRIPOS>ATOM
      1 PA         21.1260   -6.2490   59.8210 P.3       1 NAD1001     0.0000 
      2 O1A        22.5100   -6.1210   59.2430 O.co2     1 NAD1001     0.0000 
      3 O2A        20.9310   -6.4970   61.2890 O.co2     1 NAD1001     0.0000 
      4 O5B        20.3720   -7.3920   59.0630 O.3       1 NAD1001     0.0000 
      5 C5B        20.2700   -7.4140   57.6460 C.3       1 NAD1001     0.0000 
      6 C4B        19.9800   -8.8790   57.2820 C.3       1 NAD1001     0.0000 
      7 O4B        19.7660   -9.0490   55.8610 O.3       1 NAD1001     0.0000 
      8 C3B        21.1700   -9.7590   57.7050 C.3       1 NAD1001     0.0000 
      9 O3B        20.7690  -10.9230   58.4080 O.3       1 NAD1001     0.0000 
     10 C2B        21.7410  -10.1620   56.3830 C.3       1 NAD1001     0.0000 
     11 O2B        22.4180  -11.3960   56.4650 O.3       1 NAD1001     0.0000 
     12 C1B        20.4580  -10.2610   55.5800 C.3       1 NAD1001     0.0000 
     13 N9A        20.7950  -10.4140   54.1810 N.pl3     1 NAD1001     0.0000 
     14 C8A        21.6930   -9.7090   53.4890 C.2       1 NAD1001     0.0000 
     15 N7A        21.7520  -10.1090   52.2010 N.2       1 NAD1001     0.0000 
     16 C5A        20.8710  -11.1220   52.0850 C.ar      1 NAD1001     0.0000 
     17 C6A        20.4390  -12.0530   51.0330 C.ar      1 NAD1001     0.0000 
     18 N6A        20.9790  -11.9240   49.8360 N.pl3     1 NAD1001     0.0000 
     19 N1A        19.4950  -12.9940   51.2630 N.ar      1 NAD1001     0.0000 
     20 C2A        18.9590  -13.1240   52.4760 C.ar      1 NAD1001     0.0000 
     21 N3A        19.3200  -12.3180   53.5060 N.ar      1 NAD1001     0.0000 
     22 C4A        20.2510  -11.3290   53.3910 C.ar      1 NAD1001     0.0000 
     23 O3         20.3300   -4.9790   59.2370 O.3       1 NAD1001     0.0000 
     24 PN         19.1950   -4.1040   59.9800 P.3       1 NAD1001     0.0000 
     25 O1N        19.7910   -3.3490   61.1240 O.co2     1 NAD1001     0.0000 
     26 O2N        18.1330   -5.0830   60.3410 O.co2     1 NAD1001     0.0000 
     27 O5D        18.7620   -3.1330   58.8090 O.3       1 NAD1001     0.0000 
     28 C5D        18.5620   -3.6560   57.5170 C.3       1 NAD1001     0.0000 
     29 C4D        18.2300   -2.5350   56.5240 C.3       1 NAD1001     0.0000 
     30 O4D        16.9320   -2.0120   56.8430 O.3       1 NAD1001     0.0000 
     31 C3D        19.1460   -1.3160   56.5200 C.3       1 NAD1001     0.0000 
     32 O3D        19.1250   -0.7050   55.2200 O.3       1 NAD1001     0.0000 
     33 C2D        18.4980   -0.3570   57.4800 C.3       1 NAD1001     0.0000 
     34 O2D        18.8800    0.9840   57.1630 O.3       1 NAD1001     0.0000 
     35 C1D        17.0250   -0.6180   57.1500 C.3       1 NAD1001     0.0000 
     36 N1N        15.9660   -0.2970   58.1290 N.pl3     1 NAD1001     0.0000 
     37 C2N        14.8760    0.2960   57.6320 C.ar      1 NAD1001     0.0000 
     38 C3N        13.8340    0.6320   58.4610 C.ar      1 NAD1001     0.0000 
     39 C7N        12.6260    1.2770   57.9250 C.2       1 NAD1001     0.0000 
     40 O7N        11.7290    1.5660   58.6910 O.2       1 NAD1001     0.0000 
     41 N7N        12.4850    1.5110   56.6230 N.am      1 NAD1001     0.0000 
     42 C4N        13.8880    0.2970   59.7940 C.ar      1 NAD1001     0.0000 
     43 C5N        14.9790   -0.3790   60.2850 C.ar      1 NAD1001     0.0000 
     44 C6N        16.0460   -0.6180   59.4250 C.ar      1 NAD1001     0.0000 
@<TRIPOS>BOND
     1    1    2 ar   
     2    1    3 ar   
     3    1    4 1    
     4    1   23 1    
     5    4    5 1    
     6    5    6 1    
     7    6    7 1    
     8    6    8 1    
     9    7   12 1    
    10    8    9 1    
    11    8   10 1    
    12   10   11 1    
    13   10   12 1    
    14   12   13 1    
    15   13   14 1    
    16   13   22 1    
    17   14   15 2    
    18   15   16 1    
    19   16   17 ar   
    20   16   22 ar   
    21   17   18 1    
    22   17   19 ar   
    23   19   20 ar   
    24   20   21 ar   
    25   21   22 ar   
    26   23   24 1    
    27   24   25 ar   
    28   24   26 ar   
    29   24   27 1    
    30   27   28 1    
    31   28   29 1    
    32   29   30 1    
    33   29   31 1    
    34   30   35 1    
    35   31   32 1    
    36   31   33 1    
    37   33   34 1    
    38   33   35 1    
    39   35   36 1    
    40   36   37 ar   
    41   36   44 ar   
    42   37   38 ar   
    43   38   39 1    
    44   38   42 ar   
    45   39   40 2    
    46   39   41 am   
    47   42   43 ar   
    48   43   44 ar   
@<TRIPOS>SUBSTRUCTURE
     1 NAD1001     1 GROUP   
@<TRIPOS>SET
ATOM$ORANGE STATIC     ATOMS   COLORGROUP SYSTEM 
42 5 5 6 6 8 8 10 10 12 12 14 14 16 16 17 17 20 \
20 22 22 28 28 29 29 31 31 33 33 35 35 37 37 38 38 39 \
39 42 42 43 43 44 44 

