#    Name: 5us6_10_NAD_CAVITY_N1_8
#    Modification time : Fri May 22 19:18:32 2020

@<TRIPOS>MOLECULE
5us6_10_NAD_CAVITY_N1_8
  105     0     6     0     0
SMALL
NO_CHARGES


@<TRIPOS>ATOM
      1 OG         61.1100   -0.8700    7.1000 O.3       1 SER1        0.0000 
      2 OG         60.3000   -1.1100    8.3400 O.3       1 SER1        0.0000 
      3 OG         59.9900    0.9800    8.5400 O.3       1 SER1        0.0000 
      4 OG         60.3600   -0.5700   13.9200 O.3       1 SER1        0.0000 
      5 OG         58.5500    4.9100   10.1900 O.3       1 SER1        0.0000 
      6 OG         59.8200    2.7300   12.4000 O.3       1 SER1        0.0000 
      7 OG         58.7800    3.7000   11.9200 O.3       1 SER1        0.0000 
      8 OG         57.7400    4.6700   11.4300 O.3       1 SER1        0.0000 
      9 OG         57.9700    3.4500   13.1500 O.3       1 SER1        0.0000 
     10 N          63.8100   -6.9800    7.6600 N.am      2 ALA2        0.0000 
     11 N          61.9700   -6.2600    8.4100 N.am      2 ALA2        0.0000 
     12 N          61.1600   -6.5000    9.6500 N.am      2 ALA2        0.0000 
     13 O          60.3500   -6.7400   10.8900 O.2       2 ALA2        0.0000 
     14 N          65.3400   -5.6200    7.1100 N.am      2 ALA2        0.0000 
     15 N          64.5400   -5.8600    8.3500 N.am      2 ALA2        0.0000 
     16 N          62.6900   -5.1400    9.1000 N.am      2 ALA2        0.0000 
     17 N          61.6500   -4.1700    8.6200 N.am      2 ALA2        0.0000 
     18 N          60.6200   -3.2000    8.1300 N.am      2 ALA2        0.0000 
     19 N          60.8500   -4.4100    9.8600 N.am      2 ALA2        0.0000 
     20 N          57.7400   -1.5000    8.4000 N.am      2 ALA2        0.0000 
     21 O          63.1500   -7.5600   12.5500 O.2       2 ALA2        0.0000 
     22 O          62.1100   -6.5900   12.0700 O.2       2 ALA2        0.0000 
     23 O          61.0700   -5.6200   11.5800 O.2       2 ALA2        0.0000 
     24 N          65.0300   -3.5300    7.3100 N.am      2 ALA2        0.0000 
     25 N          63.9900   -2.5600    6.8300 N.am      2 ALA2        0.0000 
     26 N          64.2200   -3.7800    8.5500 N.am      2 ALA2        0.0000 
     27 N          63.1900   -2.8100    8.0700 N.am      2 ALA2        0.0000 
     28 N          62.1500   -1.8400    7.5800 N.am      2 ALA2        0.0000 
     29 N          59.2700   -0.1400    7.8500 N.am      2 ALA2        0.0000 
     30 N          58.4600   -0.3800    9.0900 N.am      2 ALA2        0.0000 
     31 N          57.4200    0.5800    8.6000 N.am      2 ALA2        0.0000 
     32 N          55.5800    1.3100    9.3600 N.am      2 ALA2        0.0000 
     33 N          57.3400    1.4600   10.5300 N.am      2 ALA2        0.0000 
     34 N          56.3000    2.4300   10.0500 N.am      2 ALA2        0.0000 
     35 N          57.8300    3.7900    9.5000 N.am      2 ALA2        0.0000 
     36 N          57.0200    3.5500   10.7400 N.am      2 ALA2        0.0000 
     37 O          56.2100    3.3000   11.9800 O.2       2 ALA2        0.0000 
     38 N          60.0500    1.5200   14.1300 N.am      2 ALA2        0.0000 
     39 N          59.0100    2.4900   13.6400 N.am      2 ALA2        0.0000 
     40 O          56.9400    4.4200   12.6700 O.2       2 ALA2        0.0000 
     41 OD1        63.9600   -7.3200   11.3100 O.co2     3 ASP3        0.0000 
     42 OD1        65.4900   -5.9600   10.7600 O.co2     3 ASP3        0.0000 
     43 OD1        64.4500   -4.9900   10.2800 O.co2     3 ASP3        0.0000 
     44 OD1        63.6400   -5.2300   11.5200 O.co2     3 ASP3        0.0000 
     45 OD1        62.6100   -4.2600   11.0300 O.co2     3 ASP3        0.0000 
     46 OD1        61.8000   -4.5000   12.2700 O.co2     3 ASP3        0.0000 
     47 OD1        65.1700   -3.8700   10.9700 O.co2     3 ASP3        0.0000 
     48 OD1        62.0600   -0.9600    9.5100 O.co2     3 ASP3        0.0000 
     49 OD1        61.0300    0.0100    9.0300 O.co2     3 ASP3        0.0000 
     50 OD1        60.2200   -0.2400   10.2700 O.co2     3 ASP3        0.0000 
     51 OD1        59.1800    0.7300    9.7800 O.co2     3 ASP3        0.0000 
     52 OD1        59.6400   -1.6900   13.2300 O.co2     3 ASP3        0.0000 
     53 OD1        59.6800    3.0700    8.7400 O.co2     3 ASP3        0.0000 
     54 OD1        60.9400    0.8800   10.9600 O.co2     3 ASP3        0.0000 
     55 OD1        59.9000    1.8500   10.4700 O.co2     3 ASP3        0.0000 
     56 OD1        58.8700    2.8200    9.9800 O.co2     3 ASP3        0.0000 
     57 OD1        58.5200    0.1500   14.6800 O.co2     3 ASP3        0.0000 
     58 OD1        59.5900    3.9400   10.6800 O.co2     3 ASP3        0.0000 
     59 CZ         58.7700   -2.4700    8.8900 C.ar      4 PHE5        0.0000 
     60 CZ         57.6500   -0.6300   10.3300 C.ar      4 PHE5        0.0000 
     61 CZ         56.6100    0.3400    9.8400 C.ar      4 PHE5        0.0000 
     62 CZ         55.8100    0.1000   11.0800 C.ar      4 PHE5        0.0000 
     63 CZ         57.5600    0.2500   12.2600 C.ar      4 PHE5        0.0000 
     64 CZ         56.5300    1.2200   11.7700 C.ar      4 PHE5        0.0000 
     65 CZ         55.4900    2.1900   11.2900 C.ar      4 PHE5        0.0000 
     66 CZ         58.2900    1.3700   12.9500 C.ar      4 PHE5        0.0000 
     67 CZ         57.2500    2.3400   12.4600 C.ar      4 PHE5        0.0000 
     68 CZ         60.8500    1.7600   12.8900 C.ar      4 PHE5        0.0000 
     69 CA         62.2000   -7.4700   10.1400 C.3       5 GLY6        0.0000 
     70 CA         61.3900   -7.7100   11.3800 C.3       5 GLY6        0.0000 
     71 CA         59.5800   -2.2300    7.6500 C.3       5 GLY6        0.0000 
     72 CA         60.0400   -4.6500   11.1000 C.3       5 GLY6        0.0000 
     73 CA         59.0000   -3.6800   10.6100 C.3       5 GLY6        0.0000 
     74 CA         57.9600   -2.7200   10.1200 C.3       5 GLY6        0.0000 
     75 CA         66.0700   -4.5000    7.8000 C.3       5 GLY6        0.0000 
     76 CA         60.7600   -3.5400   11.7900 C.3       5 GLY6        0.0000 
     77 CA         59.7200   -2.5700   11.3000 C.3       5 GLY6        0.0000 
     78 CA         58.6900   -1.6000   10.8200 C.3       5 GLY6        0.0000 
     79 CA         59.9500   -3.7800   13.0300 C.3       5 GLY6        0.0000 
     80 CA         56.8400   -0.8700   11.5700 C.3       5 GLY6        0.0000 
     81 CA         67.8300   -4.3500    8.9700 C.3       5 GLY6        0.0000 
     82 CA         67.0200   -4.5900   10.2100 C.3       5 GLY6        0.0000 
     83 CA         65.9800   -3.6300    9.7300 C.3       5 GLY6        0.0000 
     84 CA         58.1400    1.7000    9.2900 C.3       5 GLY6        0.0000 
     85 CA         58.6000   -0.7200   12.7500 C.3       5 GLY6        0.0000 
     86 CA         57.7900   -0.9600   13.9900 C.3       5 GLY6        0.0000 
     87 DU         63.0100   -7.2200    8.9000 H         6 CUB7        0.0000 
     88 DU         64.7600   -7.0800   10.0700 H         6 CUB7        0.0000 
     89 DU         63.7300   -6.1100    9.5900 H         6 CUB7        0.0000 
     90 DU         62.9200   -6.3500   10.8300 H         6 CUB7        0.0000 
     91 DU         61.8800   -5.3800   10.3400 H         6 CUB7        0.0000 
     92 DU         65.2600   -4.7400    9.0400 H         6 CUB7        0.0000 
     93 DU         63.4100   -4.0200    9.7900 H         6 CUB7        0.0000 
     94 DU         62.3800   -3.0500    9.3100 H         6 CUB7        0.0000 
     95 DU         61.3400   -2.0800    8.8200 H         6 CUB7        0.0000 
     96 DU         61.5700   -3.2900   10.5500 H         6 CUB7        0.0000 
     97 DU         60.5300   -2.3200   10.0600 H         6 CUB7        0.0000 
     98 DU         59.5000   -1.3500    9.5800 H         6 CUB7        0.0000 
     99 DU         60.4500   -1.4500   11.9900 H         6 CUB7        0.0000 
    100 DU         59.4100   -0.4800   11.5100 H         6 CUB7        0.0000 
    101 DU         58.3700    0.4900   11.0200 H         6 CUB7        0.0000 
    102 DU         60.1300    0.6400   12.2000 H         6 CUB7        0.0000 
    103 DU         59.1000    1.6100   11.7100 H         6 CUB7        0.0000 
    104 DU         58.0600    2.5800   11.2200 H         6 CUB7        0.0000 
    105 DU         59.3200    0.4000   13.4400 H         6 CUB7        0.0000 
@<TRIPOS>BOND
@<TRIPOS>SUBSTRUCTURE
     1 SER1        1 GROUP   
     2 ALA2       10 GROUP   
     3 ASP3       41 GROUP   
     4 PHE5       59 GROUP   
     5 GLY6       69 GROUP   
     6 CUB7       87 GROUP   
@<TRIPOS>SET

