#    Name: 5us6_8_NAD
#    Modification time : Fri May 22 19:18:42 2020

@<TRIPOS>MOLECULE
5us6_8_NAD
   44    48     1     0     1
SMALL
NO_CHARGES


@<TRIPOS>ATOM
      1 PA          4.7420  -64.0560   38.3050 P.3       1 NAD302      0.0000 
      2 O1A         3.4510  -64.0370   39.0900 O.co2     1 NAD302      0.0000 
      3 O2A         4.8180  -64.3540   36.8320 O.co2     1 NAD302      0.0000 
      4 O5B         5.7310  -65.1110   38.9740 O.3       1 NAD302      0.0000 
      5 C5B         5.6930  -65.3050   40.3870 C.3       1 NAD302      0.0000 
      6 C4B         5.9890  -66.7880   40.6130 C.3       1 NAD302      0.0000 
      7 O4B         6.2610  -67.0260   41.9970 O.3       1 NAD302      0.0000 
      8 C3B         4.8020  -67.6740   40.2070 C.3       1 NAD302      0.0000 
      9 O3B         5.2550  -68.8770   39.5890 O.3       1 NAD302      0.0000 
     10 C2B         4.1700  -68.0220   41.5270 C.3       1 NAD302      0.0000 
     11 O2B         3.4040  -69.2300   41.4860 O.3       1 NAD302      0.0000 
     12 C1B         5.4470  -68.1180   42.3640 C.3       1 NAD302      0.0000 
     13 N9A         5.1160  -68.1830   43.7900 N.pl3     1 NAD302      0.0000 
     14 C8A         4.2380  -67.4740   44.5060 C.2       1 NAD302      0.0000 
     15 N7A         4.2200  -67.8970   45.8090 N.2       1 NAD302      0.0000 
     16 C5A         5.1040  -68.9100   45.9010 C.ar      1 NAD302      0.0000 
     17 C6A         5.5880  -69.8490   46.9340 C.ar      1 NAD302      0.0000 
     18 N6A         5.1060  -69.7470   48.1680 N.pl3     1 NAD302      0.0000 
     19 N1A         6.5050  -70.7940   46.6410 N.ar      1 NAD302      0.0000 
     20 C2A         7.0060  -70.8770   45.4040 C.ar      1 NAD302      0.0000 
     21 N3A         6.6200  -70.0700   44.3770 N.ar      1 NAD302      0.0000 
     22 C4A         5.6760  -69.1040   44.5620 C.ar      1 NAD302      0.0000 
     23 O3          5.4260  -62.6420   38.7160 O.3       1 NAD302      0.0000 
     24 PN          6.7140  -61.9660   38.0360 P.3       1 NAD302      0.0000 
     25 O1N         6.3880  -60.9480   36.9420 O.co2     1 NAD302      0.0000 
     26 O2N         7.6770  -63.1400   37.7780 O.co2     1 NAD302      0.0000 
     27 O5D         7.0520  -61.0510   39.2770 O.3       1 NAD302      0.0000 
     28 C5D         7.5500  -61.5490   40.5090 C.3       1 NAD302      0.0000 
     29 C4D         7.8090  -60.3920   41.5090 C.3       1 NAD302      0.0000 
     30 O4D         9.0600  -59.7880   41.1680 O.3       1 NAD302      0.0000 
     31 C3D         6.7950  -59.2400   41.5310 C.3       1 NAD302      0.0000 
     32 O3D         6.6590  -58.6980   42.8510 O.3       1 NAD302      0.0000 
     33 C2D         7.4170  -58.2220   40.6100 C.3       1 NAD302      0.0000 
     34 O2D         6.9590  -56.9050   40.9360 O.3       1 NAD302      0.0000 
     35 C1D         8.8960  -58.4050   40.9050 C.3       1 NAD302      0.0000 
     36 N1N         9.9180  -58.1380   39.8980 N.pl3     1 NAD302      0.0000 
     37 C2N        11.0170  -57.5560   40.3210 C.ar      1 NAD302      0.0000 
     38 C3N        12.0870  -57.2760   39.4950 C.ar      1 NAD302      0.0000 
     39 C7N        13.2890  -56.6320   40.0500 C.2       1 NAD302      0.0000 
     40 O7N        14.1700  -56.3590   39.2570 O.2       1 NAD302      0.0000 
     41 N7N        13.4190  -56.4210   41.3730 N.am      1 NAD302      0.0000 
     42 C4N        12.0600  -57.6350   38.1890 C.ar      1 NAD302      0.0000 
     43 C5N        10.9200  -58.2740   37.7510 C.ar      1 NAD302      0.0000 
     44 C6N         9.8560  -58.5120   38.6300 C.ar      1 NAD302      0.0000 
@<TRIPOS>BOND
     1    1    2 ar   
     2    1    3 ar   
     3    1    4 1    
     4    1   23 1    
     5    4    5 1    
     6    5    6 1    
     7    6    7 1    
     8    6    8 1    
     9    7   12 1    
    10    8    9 1    
    11    8   10 1    
    12   10   11 1    
    13   10   12 1    
    14   12   13 1    
    15   13   14 1    
    16   13   22 1    
    17   14   15 2    
    18   15   16 1    
    19   16   17 ar   
    20   16   22 ar   
    21   17   18 1    
    22   17   19 ar   
    23   19   20 ar   
    24   20   21 ar   
    25   21   22 ar   
    26   23   24 1    
    27   24   25 ar   
    28   24   26 ar   
    29   24   27 1    
    30   27   28 1    
    31   28   29 1    
    32   29   30 1    
    33   29   31 1    
    34   30   35 1    
    35   31   32 1    
    36   31   33 1    
    37   33   34 1    
    38   33   35 1    
    39   35   36 1    
    40   36   37 ar   
    41   36   44 ar   
    42   37   38 ar   
    43   38   39 1    
    44   38   42 ar   
    45   39   40 2    
    46   39   41 am   
    47   42   43 ar   
    48   43   44 ar   
@<TRIPOS>SUBSTRUCTURE
     1 NAD302      1 GROUP   
@<TRIPOS>SET
ATOM$ORANGE STATIC     ATOMS   COLORGROUP SYSTEM 
42 5 5 6 6 8 8 10 10 12 12 14 14 16 16 17 17 20 \
20 22 22 28 28 29 29 31 31 33 33 35 35 37 37 38 38 39 \
39 42 42 43 43 44 44 

