#    Name: 6brf_5_ACP
#    Modification time : Fri May 22 19:32:21 2020

@<TRIPOS>MOLECULE
6brf_5_ACP
   45    47     1     0     1
SMALL
NO_CHARGES


@<TRIPOS>ATOM
      1 PG          8.8120  -50.3300  -93.5400 P.3       1 ACP402      0.0000 
      2 O1G         8.0010  -51.1450  -94.5180 O.co2     1 ACP402      0.0000 
      3 O2G         8.0260  -49.0910  -93.1720 O.co2     1 ACP402      0.0000 
      4 O3G         9.0490  -51.1450  -92.2830 O.co2     1 ACP402      0.0000 
      5 PB         10.1300  -49.4820  -96.1490 P.3       1 ACP402      0.0000 
      6 O1B         8.6570  -49.6510  -96.4300 O.co2     1 ACP402      0.0000 
      7 O2B        10.5160  -48.0420  -96.3840 O.co2     1 ACP402      0.0000 
      8 C3B        10.4340  -49.8660  -94.3520 C.3       1 ACP402      0.0000 
      9 PA         10.2940  -51.2680  -98.4800 P.3       1 ACP402      0.0000 
     10 O1A        11.1490  -52.4470  -98.8820 O.co2     1 ACP402      0.0000 
     11 O2A         8.9220  -51.7670  -98.0970 O.co2     1 ACP402      0.0000 
     12 O3A        10.9670  -50.4570  -97.1950 O.3       1 ACP402      0.0000 
     13 O5'        10.1410  -50.2790  -99.7950 O.3       1 ACP402      0.0000 
     14 C5'         9.5800  -49.0000  -99.6540 C.3       1 ACP402      0.0000 
     15 C4'         8.7030  -48.6550 -100.8940 C.3       1 ACP402      0.0000 
     16 O4'         9.3180  -48.9920 -101.9960 O.3       1 ACP402      0.0000 
     17 C3'         7.4010  -49.4760 -100.8830 C.3       1 ACP402      0.0000 
     18 O3'         6.3930  -48.7470 -100.3360 O.3       1 ACP402      0.0000 
     19 C2'         7.1130  -49.7760 -102.3670 C.3       1 ACP402      0.0000 
     20 O2'         6.1850  -48.7420 -102.9160 O.3       1 ACP402      0.0000 
     21 C1'         8.2590  -49.7050 -102.9890 C.3       1 ACP402      0.0000 
     22 N9          8.7720  -51.0110 -103.2900 N.pl3     1 ACP402      0.0000 
     23 C8          9.5680  -51.7520 -102.5170 C.2       1 ACP402      0.0000 
     24 N7          9.8230  -52.8940 -103.1610 N.2       1 ACP402      0.0000 
     25 C5          9.1840  -52.8590 -104.3370 C.ar      1 ACP402      0.0000 
     26 C6          9.1120  -53.7700 -105.3690 C.ar      1 ACP402      0.0000 
     27 N6          9.6860  -55.0850 -105.5810 N.pl3     1 ACP402      0.0000 
     28 N1          8.3970  -53.4850 -106.4470 N.ar      1 ACP402      0.0000 
     29 C2          7.7390  -52.3000 -106.5290 C.ar      1 ACP402      0.0000 
     30 N3          7.8110  -51.4040 -105.5120 N.ar      1 ACP402      0.0000 
     31 C4          8.5360  -51.6930 -104.4200 C.ar      1 ACP402      0.0000 
     32 H3B1       10.8050  -49.0860  -93.9110 H         1 ACP402      0.0000 
     33 H3B2       11.0560  -50.6070  -94.2790 H         1 ACP402      0.0000 
     34 H5'1       10.2910  -48.3450  -99.5710 H         1 ACP402      0.0000 
     35 H5'2        9.0290  -48.9770  -98.8560 H         1 ACP402      0.0000 
     36 H4'         8.4970  -47.7070 -100.9080 H         1 ACP402      0.0000 
     37 H3'         7.5300  -50.3030 -100.3930 H         1 ACP402      0.0000 
     38 HO3'        6.7150  -48.0600  -99.9530 H         1 ACP402      0.0000 
     39 H2'         6.7330  -50.6630 -102.4630 H         1 ACP402      0.0000 
     40 HO2'        5.3820  -49.0040 -102.8220 H         1 ACP402      0.0000 
     41 H1'         8.1640  -49.1840 -103.8020 H         1 ACP402      0.0000 
     42 H8          9.8880  -51.5150 -101.6770 H         1 ACP402      0.0000 
     43 HN61        9.7890  -55.6210 -104.9160 H         1 ACP402      0.0000 
     44 HN62        9.9230  -55.3290 -106.3710 H         1 ACP402      0.0000 
     45 H2          7.2370  -52.1010 -107.2860 H         1 ACP402      0.0000 
@<TRIPOS>BOND
     1    1    2 ar   
     2    1    3 ar   
     3    1    4 ar   
     4    1    8 1    
     5    5    6 ar   
     6    5    7 ar   
     7    5    8 1    
     8    5   12 1    
     9    8   32 1    
    10    8   33 1    
    11    9   10 ar   
    12    9   11 ar   
    13    9   12 1    
    14    9   13 1    
    15   13   14 1    
    16   14   15 1    
    17   14   34 1    
    18   14   35 1    
    19   15   16 1    
    20   15   17 1    
    21   15   36 1    
    22   16   21 1    
    23   17   18 1    
    24   17   19 1    
    25   17   37 1    
    26   18   38 1    
    27   19   20 1    
    28   19   21 1    
    29   19   39 1    
    30   21   41 1    
    31   21   22 1    
    32   20   40 1    
    33   22   23 1    
    34   22   31 1    
    35   23   24 2    
    36   24   25 1    
    37   23   42 1    
    38   25   26 ar   
    39   25   31 ar   
    40   26   27 1    
    41   26   28 ar   
    42   28   29 ar   
    43   27   43 1    
    44   27   44 1    
    45   29   30 ar   
    46   30   31 ar   
    47   29   45 1    
@<TRIPOS>SUBSTRUCTURE
     1 ACP402      1 GROUP   
@<TRIPOS>SET
ATOM$ORANGE STATIC     ATOMS   COLORGROUP SYSTEM 
22 8 8 14 14 15 15 17 17 19 19 21 21 23 23 25 25 26 \
26 29 29 31 31 

