#    Name: 6dbz_2_IPR
#    Modification time : Fri May 22 19:23:20 2020

@<TRIPOS>MOLECULE
6dbz_2_IPR
   23    22     1     0     0
SMALL
NO_CHARGES


@<TRIPOS>ATOM
      1 P11         3.5360   -7.6480   29.0160 P.3       1 IPR201      0.0000 
      2 O14         2.3800   -6.8060   29.3430 O.co2     1 IPR201      0.0000 
      3 O12         3.7290   -8.5170   30.1860 O.co2     1 IPR201      0.0000 
      4 O13         3.0320   -8.5470   27.9660 O.co2     1 IPR201      0.0000 
      5 O10         4.8770   -6.7740   28.5700 O.3       1 IPR201      0.0000 
      6 P7          5.5310   -5.5090   29.4210 P.3       1 IPR201      0.0000 
      7 O8          6.4400   -5.9860   30.4720 O.co2     1 IPR201      0.0000 
      8 O9          4.4870   -4.8160   30.1830 O.co2     1 IPR201      0.0000 
      9 O6          6.3120   -4.4600   28.3970 O.3       1 IPR201      0.0000 
     10 C5          7.3810   -4.9470   27.6290 C.3       1 IPR201      0.0000 
     11 C4          8.2030   -3.8120   26.9990 C.3       1 IPR201      0.0000 
     12 C2          9.1170   -3.0480   27.9670 C.3       1 IPR201      0.0000 
     13 C1          9.9040   -3.9560   28.9160 C.3       1 IPR201      0.0000 
     14 C3         10.0190   -2.0480   27.2100 C.3       1 IPR201      0.0000 
     15 HC51        7.0300   -5.4850   26.9440 H         1 IPR201      0.0000 
     16 HC52        7.9370   -5.4780   28.1700 H         1 IPR201      0.0000 
     17 HC41        7.6390   -3.2070   26.5540 H         1 IPR201      0.0000 
     18 HC42        8.7600   -4.2180   26.3620 H         1 IPR201      0.0000 
     19 HC11       10.4620   -3.4310   29.4600 H         1 IPR201      0.0000 
     20 HC12       10.4270   -4.5540   28.4150 H         1 IPR201      0.0000 
     21 HC13        9.3060   -4.4390   29.4550 H         1 IPR201      0.0000 
     22 HC31       10.1430   -2.3550   26.3190 H         1 IPR201      0.0000 
     23 HC32       10.8670   -2.0080   27.6390 H         1 IPR201      0.0000 
@<TRIPOS>BOND
     1    1    2 ar   
     2    1    3 ar   
     3    1    4 ar   
     4    1    5 1    
     5    5    6 1    
     6    6    7 ar   
     7    6    8 ar   
     8    6    9 1    
     9    9   10 1    
    10   10   11 1    
    11   11   12 1    
    12   10   15 1    
    13   10   16 1    
    14   12   13 1    
    15   11   17 1    
    16   11   18 1    
    17   12   14 1    
    18   14   22 1    
    19   13   19 1    
    20   13   20 1    
    21   13   21 1    
    22   14   23 1    
@<TRIPOS>SUBSTRUCTURE
     1 IPR201      1 GROUP   
@<TRIPOS>SET

