#    Name: 6dbz_2_IPR_CAVITY_N1_12
#    Modification time : Fri May 22 19:23:21 2020

@<TRIPOS>MOLECULE
6dbz_2_IPR_CAVITY_N1_12
  102     0     6     0     0
SMALL
NO_CHARGES


@<TRIPOS>ATOM
      1 OG         11.5500  -11.7800   27.2100 O.3       1 SER1        0.0000 
      2 OG          8.0100   -7.6900   27.4700 O.3       1 SER1        0.0000 
      3 OG          9.3700  -10.5000   29.4200 O.3       1 SER1        0.0000 
      4 OG         10.7400  -10.9400   28.9800 O.3       1 SER1        0.0000 
      5 OG         12.1000  -11.3800   28.5500 O.3       1 SER1        0.0000 
      6 OG          8.2800   -8.6800   29.3300 O.3       1 SER1        0.0000 
      7 OG          9.6500   -9.1200   28.9000 O.3       1 SER1        0.0000 
      8 OG         11.0200   -9.5600   28.4600 O.3       1 SER1        0.0000 
      9 OG          8.5600   -7.3000   28.8100 O.3       1 SER1        0.0000 
     10 OG          8.3200   -1.3500   27.1600 O.3       1 SER1        0.0000 
     11 OG          8.5600   -9.6600   31.1900 O.3       1 SER1        0.0000 
     12 OG         12.9300  -11.9700   31.7500 O.3       1 SER1        0.0000 
     13 OG          7.7400   -8.8300   32.9600 O.3       1 SER1        0.0000 
     14 OG         10.4700   -9.7100   32.0900 O.3       1 SER1        0.0000 
     15 OG         11.8400  -10.1500   31.6600 O.3       1 SER1        0.0000 
     16 OG          8.0200   -7.4500   32.4400 O.3       1 SER1        0.0000 
     17 OG         10.7500   -8.3300   31.5700 O.3       1 SER1        0.0000 
     18 O           4.4700   -3.6100   27.7300 O.2       2 ALA2        0.0000 
     19 N           4.7400   -4.6000   29.5900 N.am      2 ALA2        0.0000 
     20 N           5.0200   -3.2200   29.0700 N.am      2 ALA2        0.0000 
     21 O           9.6800   -1.7900   26.7300 O.2       2 ALA2        0.0000 
     22 O          11.0500   -2.2300   26.2900 O.2       2 ALA2        0.0000 
     23 OD1         2.5200  -10.9000   29.0000 O.co2     3 ASP3        0.0000 
     24 OD1         2.8000   -9.5200   28.4800 O.co2     3 ASP3        0.0000 
     25 OD1         3.3500   -9.1300   29.8200 O.co2     3 ASP3        0.0000 
     26 OD1         4.7200   -9.5700   29.3800 O.co2     3 ASP3        0.0000 
     27 OD1         3.6300   -7.7500   29.2900 O.co2     3 ASP3        0.0000 
     28 OD1         6.6400   -9.6200   30.2900 O.co2     3 ASP3        0.0000 
     29 OD1         4.1800   -7.3600   30.6300 O.co2     3 ASP3        0.0000 
     30 OD1         5.5500   -7.8000   30.2000 O.co2     3 ASP3        0.0000 
     31 OD1         4.4600   -5.9800   30.1100 O.co2     3 ASP3        0.0000 
     32 OD1         7.2000   -6.8600   29.2400 O.co2     3 ASP3        0.0000 
     33 OD1         6.1100   -5.0400   29.1600 O.co2     3 ASP3        0.0000 
     34 OD1         7.4800   -5.4800   28.7200 O.co2     3 ASP3        0.0000 
     35 OD1         6.3900   -3.6600   28.6400 O.co2     3 ASP3        0.0000 
     36 OD1         6.9100  -10.6000   32.1400 O.co2     3 ASP3        0.0000 
     37 OD1         5.8200   -8.7800   32.0600 O.co2     3 ASP3        0.0000 
     38 OD1         7.1900   -9.2200   31.6200 O.co2     3 ASP3        0.0000 
     39 OD1         4.7400   -6.9600   31.9700 O.co2     3 ASP3        0.0000 
     40 OD1         6.1000   -7.4000   31.5400 O.co2     3 ASP3        0.0000 
     41 OD1         7.4700   -7.8400   31.1000 O.co2     3 ASP3        0.0000 
     42 OD1         8.8400   -8.2900   30.6700 O.co2     3 ASP3        0.0000 
     43 OD1         5.0200   -5.5800   31.4500 O.co2     3 ASP3        0.0000 
     44 OD1         6.3800   -6.0200   31.0200 O.co2     3 ASP3        0.0000 
     45 OD1         9.1100   -6.9100   30.1500 O.co2     3 ASP3        0.0000 
     46 OD1         5.3000   -4.2000   30.9300 O.co2     3 ASP3        0.0000 
     47 OD1         6.6600   -4.6500   30.5000 O.co2     3 ASP3        0.0000 
     48 OD1         9.3900   -5.5300   29.6300 O.co2     3 ASP3        0.0000 
     49 OD1         6.9400   -3.2700   29.9700 O.co2     3 ASP3        0.0000 
     50 OD1         8.3100   -3.7100   29.5400 O.co2     3 ASP3        0.0000 
     51 OD1         9.6700   -4.1500   29.1100 O.co2     3 ASP3        0.0000 
     52 OD1         6.6500   -7.0100   32.8800 O.co2     3 ASP3        0.0000 
     53 OD1         5.5700   -5.1900   32.7900 O.co2     3 ASP3        0.0000 
     54 OD1        10.2300   -3.7600   30.4400 O.co2     3 ASP3        0.0000 
     55 CZ          6.3700   -6.2700   26.0500 C.ar      4 PHE5        0.0000 
     56 CZ          6.0800  -10.0100   28.9500 C.ar      4 PHE5        0.0000 
     57 CZ          5.0000   -8.1900   28.8600 C.ar      4 PHE5        0.0000 
     58 CZ          7.7300   -9.0700   27.9900 C.ar      4 PHE5        0.0000 
     59 CZ          5.2800   -6.8100   28.3400 C.ar      4 PHE5        0.0000 
     60 CZ          6.6400   -7.2500   27.9100 C.ar      4 PHE5        0.0000 
     61 CZ          6.9200   -5.8700   27.3900 C.ar      4 PHE5        0.0000 
     62 CZ          8.2900   -6.3200   26.9500 C.ar      4 PHE5        0.0000 
     63 CZ          8.5700   -4.9400   26.4300 C.ar      4 PHE5        0.0000 
     64 CZ          6.9200   -8.2400   29.7700 C.ar      4 PHE5        0.0000 
     65 CZ          9.9300   -7.7400   28.3800 C.ar      4 PHE5        0.0000 
     66 CZ          8.8400   -5.9200   28.2900 C.ar      4 PHE5        0.0000 
     67 CZ          9.1200   -4.5400   27.7700 C.ar      4 PHE5        0.0000 
     68 CZ          9.4000   -3.1700   27.2500 C.ar      4 PHE5        0.0000 
     69 CZ         10.7600   -5.9700   29.1900 C.ar      4 PHE5        0.0000 
     70 CZ         11.0400   -4.5900   28.6700 C.ar      4 PHE5        0.0000 
     71 CZ          8.5900   -2.3300   29.0200 C.ar      4 PHE5        0.0000 
     72 CZ          9.9500   -2.7700   28.5900 C.ar      4 PHE5        0.0000 
     73 CZ         11.3200   -3.2100   28.1500 C.ar      4 PHE5        0.0000 
     74 CZ          8.8700   -0.9500   28.5000 C.ar      4 PHE5        0.0000 
     75 CZ         10.2300   -1.3900   28.0600 C.ar      4 PHE5        0.0000 
     76 CA          5.0100   -5.8300   26.4800 C.3       5 GLY6        0.0000 
     77 CA          3.9100   -6.3700   28.7700 C.3       5 GLY6        0.0000 
     78 CA          5.5600   -5.4300   27.8200 C.3       5 GLY6        0.0000 
     79 CA          5.8400   -4.0500   27.3000 C.3       5 GLY6        0.0000 
     80 CA          7.2000   -4.5000   26.8600 C.3       5 GLY6        0.0000 
     81 CA          6.1200   -2.6800   26.7800 C.3       5 GLY6        0.0000 
     82 CA          7.4800   -3.1200   26.3400 C.3       5 GLY6        0.0000 
     83 CA          8.8500   -3.5600   25.9100 C.3       5 GLY6        0.0000 
     84 CA          7.7600   -1.7400   25.8200 C.3       5 GLY6        0.0000 
     85 CA          9.1300   -2.1800   25.3900 C.3       5 GLY6        0.0000 
     86 CA         11.8200  -12.7600   29.0700 C.3       5 GLY6        0.0000 
     87 CA          6.6700   -2.2800   28.1200 C.3       5 GLY6        0.0000 
     88 CA          8.0400   -2.7200   27.6800 C.3       5 GLY6        0.0000 
     89 CA         10.7700   -3.6100   26.8100 C.3       5 GLY6        0.0000 
     90 CA         12.3700  -12.3700   30.4100 C.3       5 GLY6        0.0000 
     91 CA         11.2900  -10.5500   30.3200 C.3       5 GLY6        0.0000 
     92 CA         12.6500  -10.9900   29.8900 C.3       5 GLY6        0.0000 
     93 CA         10.2000   -8.7300   30.2400 C.3       5 GLY6        0.0000 
     94 CA         11.5700   -9.1700   29.8000 C.3       5 GLY6        0.0000 
     95 CA         10.4800   -7.3500   29.7100 C.3       5 GLY6        0.0000 
     96 CA          6.3700   -8.3900   33.4000 C.3       5 GLY6        0.0000 
     97 CA         13.2100  -10.5900   31.2300 C.3       5 GLY6        0.0000 
     98 CA          5.2900   -6.5700   33.3100 C.3       5 GLY6        0.0000 
     99 DU          8.0000  -10.0600   29.8500 H         6 CUB7        0.0000 
    100 DU          5.8300   -6.4200   29.6800 H         6 CUB7        0.0000 
    101 DU          7.7600   -4.1000   28.2000 H         6 CUB7        0.0000 
    102 DU          9.9200  -10.1100   30.7600 H         6 CUB7        0.0000 
@<TRIPOS>BOND
@<TRIPOS>SUBSTRUCTURE
     1 SER1        1 GROUP   
     2 ALA2       18 GROUP   
     3 ASP3       23 GROUP   
     4 PHE5       55 GROUP   
     5 GLY6       76 GROUP   
     6 CUB7       99 GROUP   
@<TRIPOS>SET

