#    Name: 6kgy_3_FAD
#    Modification time : Fri May 22 19:29:16 2020

@<TRIPOS>MOLECULE
6kgy_3_FAD
   53    58     1     0     1
SMALL
NO_CHARGES


@<TRIPOS>ATOM
      1 PA        -43.5860  -34.7050   45.7490 P.3       1 FAD501      0.0000 
      2 O1A       -44.1070  -33.4230   46.2830 O.co2     1 FAD501      0.0000 
      3 O2A       -42.8350  -35.5780   46.7580 O.co2     1 FAD501      0.0000 
      4 O5B       -42.6550  -34.4570   44.4950 O.3       1 FAD501      0.0000 
      5 C5B       -41.4800  -33.6240   44.5870 C.3       1 FAD501      0.0000 
      6 C4B       -40.3590  -34.2380   43.7850 C.3       1 FAD501      0.0000 
      7 O4B       -40.2290  -33.5580   42.5130 O.3       1 FAD501      0.0000 
      8 C3B       -38.9800  -34.1870   44.4480 C.3       1 FAD501      0.0000 
      9 O3B       -38.3270  -35.4470   44.3340 O.3       1 FAD501      0.0000 
     10 C2B       -38.2500  -33.1000   43.6530 C.3       1 FAD501      0.0000 
     11 O2B       -36.8430  -33.3060   43.6190 O.3       1 FAD501      0.0000 
     12 C1B       -38.8620  -33.3080   42.2730 C.3       1 FAD501      0.0000 
     13 N9A       -38.7360  -32.1670   41.3700 N.pl3     1 FAD501      0.0000 
     14 C8A       -38.9660  -30.8470   41.6560 C.2       1 FAD501      0.0000 
     15 N7A       -38.7590  -30.0360   40.6450 N.2       1 FAD501      0.0000 
     16 C5A       -38.3670  -30.8840   39.6200 C.ar      1 FAD501      0.0000 
     17 C6A       -38.0020  -30.6500   38.2800 C.ar      1 FAD501      0.0000 
     18 N6A       -37.9760  -29.4390   37.7160 N.pl3     1 FAD501      0.0000 
     19 N1A       -37.6590  -31.7190   37.5270 N.ar      1 FAD501      0.0000 
     20 C2A       -37.6830  -32.9320   38.0830 C.ar      1 FAD501      0.0000 
     21 N3A       -38.0090  -33.2740   39.3320 N.ar      1 FAD501      0.0000 
     22 C4A       -38.3440  -32.1990   40.0540 C.ar      1 FAD501      0.0000 
     23 N1        -49.0150  -35.4340   53.6710 N.2       1 FAD501      0.0000 
     24 C2        -49.8680  -36.2730   54.3290 C.2       1 FAD501      0.0000 
     25 O2        -50.7670  -36.8810   53.7370 O.2       1 FAD501      0.0000 
     26 N3        -49.7340  -36.4560   55.6940 N.am      1 FAD501      0.0000 
     27 C4        -48.7910  -35.8590   56.5060 C.2       1 FAD501      0.0000 
     28 O4        -48.7710  -36.1010   57.7110 O.2       1 FAD501      0.0000 
     29 C4X       -47.8890  -34.9700   55.7990 C.2       1 FAD501      0.0000 
     30 N5        -46.9630  -34.3620   56.4870 N.2       1 FAD501      0.0000 
     31 C5X       -46.1020  -33.5130   55.8120 C.ar      1 FAD501      0.0000 
     32 C6        -45.1070  -32.8550   56.5330 C.ar      1 FAD501      0.0000 
     33 C7        -44.2170  -31.9920   55.9010 C.ar      1 FAD501      0.0000 
     34 C7M       -43.1540  -31.2980   56.7120 C.3       1 FAD501      0.0000 
     35 C8        -44.3210  -31.7810   54.5160 C.ar      1 FAD501      0.0000 
     36 C8M       -43.3730  -30.8550   53.8020 C.3       1 FAD501      0.0000 
     37 C9        -45.3130  -32.4360   53.7930 C.ar      1 FAD501      0.0000 
     38 C9A       -46.2000  -33.2970   54.4290 C.ar      1 FAD501      0.0000 
     39 N10       -47.2140  -33.9780   53.7240 N.pl3     1 FAD501      0.0000 
     40 C10       -48.0800  -34.8210   54.3790 C.2       1 FAD501      0.0000 
     41 C1'       -47.3740  -33.7940   52.2750 C.3       1 FAD501      0.0000 
     42 C2'       -46.6980  -34.8870   51.4550 C.3       1 FAD501      0.0000 
     43 O2'       -45.5090  -35.3350   52.1060 O.3       1 FAD501      0.0000 
     44 C3'       -46.3440  -34.3350   50.0730 C.3       1 FAD501      0.0000 
     45 O3'       -46.7010  -32.9590   50.0120 O.3       1 FAD501      0.0000 
     46 C4'       -47.0200  -35.0740   48.9180 C.3       1 FAD501      0.0000 
     47 O4'       -46.5740  -36.4310   48.8990 O.3       1 FAD501      0.0000 
     48 C5'       -46.7680  -34.4140   47.5790 C.3       1 FAD501      0.0000 
     49 O5'       -46.8310  -35.4160   46.5410 O.3       1 FAD501      0.0000 
     50 P         -46.2940  -35.1220   45.0900 P.3       1 FAD501      0.0000 
     51 O1P       -47.0040  -36.0490   44.0970 O.co2     1 FAD501      0.0000 
     52 O2P       -46.3780  -33.6780   44.7730 O.co2     1 FAD501      0.0000 
     53 O3P       -44.7770  -35.5750   45.1680 O.3       1 FAD501      0.0000 
@<TRIPOS>BOND
     1    1    2 ar   
     2    1    3 ar   
     3    1    4 1    
     4    1   53 1    
     5    4    5 1    
     6    5    6 1    
     7    6    7 1    
     8    6    8 1    
     9    7   12 1    
    10    8    9 1    
    11    8   10 1    
    12   10   11 1    
    13   10   12 1    
    14   12   13 1    
    15   13   14 1    
    16   13   22 1    
    17   14   15 2    
    18   15   16 1    
    19   16   17 ar   
    20   16   22 ar   
    21   17   18 1    
    22   17   19 ar   
    23   19   20 ar   
    24   20   21 ar   
    25   21   22 ar   
    26   23   24 1    
    27   23   40 2    
    28   24   25 2    
    29   24   26 am   
    30   26   27 am   
    31   27   28 2    
    32   27   29 1    
    33   29   30 2    
    34   29   40 1    
    35   30   31 1    
    36   31   32 ar   
    37   31   38 ar   
    38   32   33 ar   
    39   33   34 1    
    40   33   35 ar   
    41   35   36 1    
    42   35   37 ar   
    43   37   38 ar   
    44   38   39 1    
    45   39   40 1    
    46   39   41 1    
    47   41   42 1    
    48   42   43 1    
    49   42   44 1    
    50   44   45 1    
    51   44   46 1    
    52   46   47 1    
    53   46   48 1    
    54   48   49 1    
    55   49   50 1    
    56   50   51 ar   
    57   50   52 ar   
    58   50   53 1    
@<TRIPOS>SUBSTRUCTURE
     1 FAD501      1 GROUP   
@<TRIPOS>SET
ATOM$ORANGE STATIC     ATOMS   COLORGROUP SYSTEM 
54 5 5 6 6 8 8 10 10 12 12 14 14 16 16 17 17 20 \
20 22 22 24 24 27 27 29 29 31 31 32 32 33 33 34 34 35 \
35 36 36 37 37 38 38 40 40 41 41 42 42 44 44 46 46 48 \
48 

