#    Name: 6kgy_1_FAD
#    Modification time : Fri May 22 19:28:50 2020

@<TRIPOS>MOLECULE
6kgy_1_FAD
   53    58     1     0     1
SMALL
NO_CHARGES


@<TRIPOS>ATOM
      1 PA        -30.6120   -0.1160   -7.7820 P.3       1 FAD501      0.0000 
      2 O1A       -29.7290    1.0260   -7.4400 O.co2     1 FAD501      0.0000 
      3 O2A       -29.9730   -1.5060   -7.6900 O.co2     1 FAD501      0.0000 
      4 O5B       -31.2190    0.0780   -9.2200 O.3       1 FAD501      0.0000 
      5 C5B       -30.3750    0.3560  -10.3570 C.3       1 FAD501      0.0000 
      6 C4B       -30.7980   -0.5110  -11.5150 C.3       1 FAD501      0.0000 
      7 O4B       -31.9060    0.1100  -12.2080 O.3       1 FAD501      0.0000 
      8 C3B       -29.7190   -0.7560  -12.5680 C.3       1 FAD501      0.0000 
      9 O3B       -29.7780   -2.0890  -13.0640 O.3       1 FAD501      0.0000 
     10 C2B       -30.0540    0.2780  -13.6450 C.3       1 FAD501      0.0000 
     11 O2B       -29.6270   -0.1400  -14.9360 O.3       1 FAD501      0.0000 
     12 C1B       -31.5790    0.2960  -13.5700 C.3       1 FAD501      0.0000 
     13 N9A       -32.1870    1.5410  -14.0290 N.pl3     1 FAD501      0.0000 
     14 C8A       -31.8450    2.8150  -13.6570 C.2       1 FAD501      0.0000 
     15 N7A       -32.5600    3.7510  -14.2350 N.2       1 FAD501      0.0000 
     16 C5A       -33.4330    3.0430  -15.0460 C.ar      1 FAD501      0.0000 
     17 C6A       -34.4570    3.4510  -15.9240 C.ar      1 FAD501      0.0000 
     18 N6A       -34.7860    4.7270  -16.1390 N.pl3     1 FAD501      0.0000 
     19 N1A       -35.1400    2.4880  -16.5820 N.ar      1 FAD501      0.0000 
     20 C2A       -34.8150    1.2100  -16.3700 C.ar      1 FAD501      0.0000 
     21 N3A       -33.8740    0.7060  -15.5690 N.ar      1 FAD501      0.0000 
     22 C4A       -33.2140    1.6800  -14.9300 C.ar      1 FAD501      0.0000 
     23 N1        -24.7570   -0.6300   -0.1490 N.2       1 FAD501      0.0000 
     24 C2        -24.6190   -1.3270    1.0170 C.2       1 FAD501      0.0000 
     25 O2        -25.5880   -1.5790    1.7410 O.2       1 FAD501      0.0000 
     26 N3        -23.3670   -1.7670    1.4080 N.am      1 FAD501      0.0000 
     27 C4        -22.1860   -1.5730    0.7230 C.2       1 FAD501      0.0000 
     28 O4        -21.1300   -2.0140    1.1730 O.2       1 FAD501      0.0000 
     29 C4X       -22.3420   -0.8330   -0.5140 C.2       1 FAD501      0.0000 
     30 N5        -21.2760   -0.6050   -1.2280 N.2       1 FAD501      0.0000 
     31 C5X       -21.4240    0.1010   -2.4090 C.ar      1 FAD501      0.0000 
     32 C6        -20.2940    0.3550   -3.1860 C.ar      1 FAD501      0.0000 
     33 C7        -20.3910    1.0600   -4.3820 C.ar      1 FAD501      0.0000 
     34 C7M       -19.1490    1.3160   -5.1950 C.3       1 FAD501      0.0000 
     35 C8        -21.6450    1.5230   -4.8130 C.ar      1 FAD501      0.0000 
     36 C8M       -21.7890    2.2900   -6.1020 C.3       1 FAD501      0.0000 
     37 C9        -22.7730    1.2670   -4.0400 C.ar      1 FAD501      0.0000 
     38 C9A       -22.6730    0.5670   -2.8460 C.ar      1 FAD501      0.0000 
     39 N10       -23.8010    0.2890   -2.0470 N.pl3     1 FAD501      0.0000 
     40 C10       -23.6700   -0.4030   -0.8680 C.2       1 FAD501      0.0000 
     41 C1'       -25.1370    0.7630   -2.4440 C.3       1 FAD501      0.0000 
     42 C2'       -25.9880   -0.3070   -3.1210 C.3       1 FAD501      0.0000 
     43 O2'       -25.3760   -0.7320   -4.3390 O.3       1 FAD501      0.0000 
     44 C3'       -27.3710    0.2710   -3.4280 C.3       1 FAD501      0.0000 
     45 O3'       -27.6760    1.2730   -2.4640 O.3       1 FAD501      0.0000 
     46 C4'       -28.4990   -0.7610   -3.4410 C.3       1 FAD501      0.0000 
     47 O4'       -28.2930   -1.6800   -4.5140 O.3       1 FAD501      0.0000 
     48 C5'       -29.8720   -0.1290   -3.5430 C.3       1 FAD501      0.0000 
     49 O5'       -30.3870   -0.3320   -4.8760 O.3       1 FAD501      0.0000 
     50 P         -31.8260    0.1660   -5.2820 P.3       1 FAD501      0.0000 
     51 O1P       -32.8840   -0.7170   -4.6120 O.co2     1 FAD501      0.0000 
     52 O2P       -31.9760    1.6180   -5.0230 O.co2     1 FAD501      0.0000 
     53 O3P       -31.8860   -0.1160   -6.8400 O.3       1 FAD501      0.0000 
@<TRIPOS>BOND
     1    1    2 ar   
     2    1    3 ar   
     3    1    4 1    
     4    1   53 1    
     5    4    5 1    
     6    5    6 1    
     7    6    7 1    
     8    6    8 1    
     9    7   12 1    
    10    8    9 1    
    11    8   10 1    
    12   10   11 1    
    13   10   12 1    
    14   12   13 1    
    15   13   14 1    
    16   13   22 1    
    17   14   15 2    
    18   15   16 1    
    19   16   17 ar   
    20   16   22 ar   
    21   17   18 1    
    22   17   19 ar   
    23   19   20 ar   
    24   20   21 ar   
    25   21   22 ar   
    26   23   24 1    
    27   23   40 2    
    28   24   25 2    
    29   24   26 am   
    30   26   27 am   
    31   27   28 2    
    32   27   29 1    
    33   29   30 2    
    34   29   40 1    
    35   30   31 1    
    36   31   32 ar   
    37   31   38 ar   
    38   32   33 ar   
    39   33   34 1    
    40   33   35 ar   
    41   35   36 1    
    42   35   37 ar   
    43   37   38 ar   
    44   38   39 1    
    45   39   40 1    
    46   39   41 1    
    47   41   42 1    
    48   42   43 1    
    49   42   44 1    
    50   44   45 1    
    51   44   46 1    
    52   46   47 1    
    53   46   48 1    
    54   48   49 1    
    55   49   50 1    
    56   50   51 ar   
    57   50   52 ar   
    58   50   53 1    
@<TRIPOS>SUBSTRUCTURE
     1 FAD501      1 GROUP   
@<TRIPOS>SET
ATOM$ORANGE STATIC     ATOMS   COLORGROUP SYSTEM 
54 5 5 6 6 8 8 10 10 12 12 14 14 16 16 17 17 20 \
20 22 22 24 24 27 27 29 29 31 31 32 32 33 33 34 34 35 \
35 36 36 37 37 38 38 40 40 41 41 42 42 44 44 46 46 48 \
48 

