#    Name: 6kgy_4_FAD
#    Modification time : Fri May 22 19:29:29 2020

@<TRIPOS>MOLECULE
6kgy_4_FAD
   53    58     1     0     1
SMALL
NO_CHARGES


@<TRIPOS>ATOM
      1 PA        -66.7680  -60.7470   85.0620 P.3       1 FAD501      0.0000 
      2 O1A       -65.7360  -61.8030   85.1940 O.co2     1 FAD501      0.0000 
      3 O2A       -66.2750  -59.4210   84.4740 O.co2     1 FAD501      0.0000 
      4 O5B       -67.4760  -60.4820   86.4420 O.3       1 FAD501      0.0000 
      5 C5B       -67.4590  -61.4680   87.4950 C.3       1 FAD501      0.0000 
      6 C4B       -67.8610  -60.7950   88.7830 C.3       1 FAD501      0.0000 
      7 O4B       -68.8550  -61.5930   89.4670 O.3       1 FAD501      0.0000 
      8 C3B       -66.7240  -60.5590   89.7800 C.3       1 FAD501      0.0000 
      9 O3B       -66.7600  -59.2220   90.2640 O.3       1 FAD501      0.0000 
     10 C2B       -67.0080  -61.5780   90.8890 C.3       1 FAD501      0.0000 
     11 O2B       -66.5710  -61.1170   92.1620 O.3       1 FAD501      0.0000 
     12 C1B       -68.5290  -61.6490   90.8360 C.3       1 FAD501      0.0000 
     13 N9A       -69.1000  -62.8660   91.4060 N.pl3     1 FAD501      0.0000 
     14 C8A       -68.7860  -64.1600   91.0860 C.2       1 FAD501      0.0000 
     15 N7A       -69.4600  -65.0580   91.7650 N.2       1 FAD501      0.0000 
     16 C5A       -70.2740  -64.3000   92.5930 C.ar      1 FAD501      0.0000 
     17 C6A       -71.2320  -64.6520   93.5640 C.ar      1 FAD501      0.0000 
     18 N6A       -71.5460  -65.9120   93.8770 N.pl3     1 FAD501      0.0000 
     19 N1A       -71.8660  -63.6490   94.2110 N.ar      1 FAD501      0.0000 
     20 C2A       -71.5560  -62.3870   93.9040 C.ar      1 FAD501      0.0000 
     21 N3A       -70.6740  -61.9350   93.0100 N.ar      1 FAD501      0.0000 
     22 C4A       -70.0620  -62.9480   92.3840 C.ar      1 FAD501      0.0000 
     23 N1        -61.1920  -60.0020   77.4320 N.2       1 FAD501      0.0000 
     24 C2        -61.0070  -59.2760   76.2910 C.2       1 FAD501      0.0000 
     25 O2        -61.9580  -58.9180   75.5880 O.2       1 FAD501      0.0000 
     26 N3        -59.7260  -58.9280   75.9010 N.am      1 FAD501      0.0000 
     27 C4        -58.5600  -59.2430   76.5650 C.2       1 FAD501      0.0000 
     28 O4        -57.4740  -58.8760   76.1190 O.2       1 FAD501      0.0000 
     29 C4X       -58.7660  -60.0130   77.7770 C.2       1 FAD501      0.0000 
     30 N5        -57.7160  -60.3570   78.4720 N.2       1 FAD501      0.0000 
     31 C5X       -57.9140  -61.0920   79.6300 C.ar      1 FAD501      0.0000 
     32 C6        -56.8040  -61.4680   80.3850 C.ar      1 FAD501      0.0000 
     33 C7        -56.9500  -62.2060   81.5550 C.ar      1 FAD501      0.0000 
     34 C7M       -55.7280  -62.5930   82.3450 C.3       1 FAD501      0.0000 
     35 C8        -58.2350  -62.5790   81.9830 C.ar      1 FAD501      0.0000 
     36 C8M       -58.4300  -63.3780   83.2450 C.3       1 FAD501      0.0000 
     37 C9        -59.3460  -62.2050   81.2320 C.ar      1 FAD501      0.0000 
     38 C9A       -59.1950  -61.4680   80.0640 C.ar      1 FAD501      0.0000 
     39 N10       -60.3000  -61.0710   79.2840 N.pl3     1 FAD501      0.0000 
     40 C10       -60.1220  -60.3460   78.1300 C.2       1 FAD501      0.0000 
     41 C1'       -61.6670  -61.4370   79.6810 C.3       1 FAD501      0.0000 
     42 C2'       -62.4090  -60.3110   80.3930 C.3       1 FAD501      0.0000 
     43 O2'       -61.5730  -59.7110   81.3840 O.3       1 FAD501      0.0000 
     44 C3'       -63.6630  -60.8770   81.0610 C.3       1 FAD501      0.0000 
     45 O3'       -63.6060  -62.2990   81.0290 O.3       1 FAD501      0.0000 
     46 C4'       -64.9740  -60.4220   80.4200 C.3       1 FAD501      0.0000 
     47 O4'       -65.2540  -59.0790   80.8140 O.3       1 FAD501      0.0000 
     48 C5'       -66.1360  -61.3280   80.7670 C.3       1 FAD501      0.0000 
     49 O5'       -66.5310  -61.0850   82.1330 O.3       1 FAD501      0.0000 
     50 P         -68.0370  -61.1980   82.5800 P.3       1 FAD501      0.0000 
     51 O1P       -68.7900  -59.9200   82.2010 O.co2     1 FAD501      0.0000 
     52 O2P       -68.6280  -62.4470   82.0470 O.co2     1 FAD501      0.0000 
     53 O3P       -67.9650  -61.2680   84.1630 O.3       1 FAD501      0.0000 
@<TRIPOS>BOND
     1    1    2 ar   
     2    1    3 ar   
     3    1    4 1    
     4    1   53 1    
     5    4    5 1    
     6    5    6 1    
     7    6    7 1    
     8    6    8 1    
     9    7   12 1    
    10    8    9 1    
    11    8   10 1    
    12   10   11 1    
    13   10   12 1    
    14   12   13 1    
    15   13   14 1    
    16   13   22 1    
    17   14   15 2    
    18   15   16 1    
    19   16   17 ar   
    20   16   22 ar   
    21   17   18 1    
    22   17   19 ar   
    23   19   20 ar   
    24   20   21 ar   
    25   21   22 ar   
    26   23   24 1    
    27   23   40 2    
    28   24   25 2    
    29   24   26 am   
    30   26   27 am   
    31   27   28 2    
    32   27   29 1    
    33   29   30 2    
    34   29   40 1    
    35   30   31 1    
    36   31   32 ar   
    37   31   38 ar   
    38   32   33 ar   
    39   33   34 1    
    40   33   35 ar   
    41   35   36 1    
    42   35   37 ar   
    43   37   38 ar   
    44   38   39 1    
    45   39   40 1    
    46   39   41 1    
    47   41   42 1    
    48   42   43 1    
    49   42   44 1    
    50   44   45 1    
    51   44   46 1    
    52   46   47 1    
    53   46   48 1    
    54   48   49 1    
    55   49   50 1    
    56   50   51 ar   
    57   50   52 ar   
    58   50   53 1    
@<TRIPOS>SUBSTRUCTURE
     1 FAD501      1 GROUP   
@<TRIPOS>SET
ATOM$ORANGE STATIC     ATOMS   COLORGROUP SYSTEM 
54 5 5 6 6 8 8 10 10 12 12 14 14 16 16 17 17 20 \
20 22 22 24 24 27 27 29 29 31 31 32 32 33 33 34 34 35 \
35 36 36 37 37 38 38 40 40 41 41 42 42 44 44 46 46 48 \
48 

