#    Name: 6kgy_2_FAD
#    Modification time : Fri May 22 19:29:03 2020

@<TRIPOS>MOLECULE
6kgy_2_FAD
   53    58     1     0     1
SMALL
NO_CHARGES


@<TRIPOS>ATOM
      1 PA         -7.3160  -26.3220   31.5720 P.3       1 FAD501      0.0000 
      2 O1A        -7.7530  -27.3690   30.6160 O.co2     1 FAD501      0.0000 
      3 O2A        -6.7430  -25.0580   30.9220 O.co2     1 FAD501      0.0000 
      4 O5B        -6.2850  -26.9330   32.6040 O.3       1 FAD501      0.0000 
      5 C5B        -5.8220  -26.1740   33.7400 C.3       1 FAD501      0.0000 
      6 C4B        -4.3460  -26.4100   33.9510 C.3       1 FAD501      0.0000 
      7 O4B        -4.1400  -27.1760   35.1470 O.3       1 FAD501      0.0000 
      8 C3B        -3.6370  -27.2040   32.8560 C.3       1 FAD501      0.0000 
      9 O3B        -3.0760  -26.3260   31.8880 O.3       1 FAD501      0.0000 
     10 C2B        -2.5470  -27.9880   33.6130 C.3       1 FAD501      0.0000 
     11 O2B        -1.2400  -27.5510   33.2580 O.3       1 FAD501      0.0000 
     12 C1B        -2.8280  -27.6750   35.0870 C.3       1 FAD501      0.0000 
     13 N9A        -2.7220  -28.8240   35.9820 N.pl3     1 FAD501      0.0000 
     14 C8A        -3.0180  -30.1310   35.6980 C.2       1 FAD501      0.0000 
     15 N7A        -2.8220  -30.9550   36.6990 N.2       1 FAD501      0.0000 
     16 C5A        -2.3610  -30.1310   37.7160 C.ar      1 FAD501      0.0000 
     17 C6A        -1.9700  -30.3890   39.0440 C.ar      1 FAD501      0.0000 
     18 N6A        -1.9810  -31.6030   39.6010 N.pl3     1 FAD501      0.0000 
     19 N1A        -1.5620  -29.3400   39.7930 N.ar      1 FAD501      0.0000 
     20 C2A        -1.5490  -28.1230   39.2420 C.ar      1 FAD501      0.0000 
     21 N3A        -1.8940  -27.7600   38.0050 N.ar      1 FAD501      0.0000 
     22 C4A        -2.2930  -28.8160   37.2880 C.ar      1 FAD501      0.0000 
     23 N1        -12.6330  -25.2850   23.6480 N.2       1 FAD501      0.0000 
     24 C2        -13.4760  -24.4050   23.0340 C.2       1 FAD501      0.0000 
     25 O2        -14.3260  -23.7700   23.6680 O.2       1 FAD501      0.0000 
     26 N3        -13.3880  -24.2130   21.6660 N.am      1 FAD501      0.0000 
     27 C4        -12.5020  -24.8380   20.8130 C.2       1 FAD501      0.0000 
     28 O4        -12.5180  -24.5840   19.6090 O.2       1 FAD501      0.0000 
     29 C4X       -11.6100  -25.7700   21.4740 C.2       1 FAD501      0.0000 
     30 N5        -10.7370  -26.4060   20.7440 N.2       1 FAD501      0.0000 
     31 C5X        -9.8840  -27.2970   21.3780 C.ar      1 FAD501      0.0000 
     32 C6         -8.9450  -27.9860   20.6110 C.ar      1 FAD501      0.0000 
     33 C7         -8.0670  -28.8900   21.1990 C.ar      1 FAD501      0.0000 
     34 C7M        -7.0650  -29.6160   20.3390 C.3       1 FAD501      0.0000 
     35 C8         -8.1250  -29.1130   22.5850 C.ar      1 FAD501      0.0000 
     36 C8M        -7.1880  -30.0840   23.2530 C.3       1 FAD501      0.0000 
     37 C9         -9.0610  -28.4260   23.3530 C.ar      1 FAD501      0.0000 
     38 C9A        -9.9370  -27.5240   22.7610 C.ar      1 FAD501      0.0000 
     39 N10       -10.8940  -26.8110   23.5120 N.pl3     1 FAD501      0.0000 
     40 C10       -11.7500  -25.9260   22.8990 C.2       1 FAD501      0.0000 
     41 C1'       -11.0030  -27.0050   24.9650 C.3       1 FAD501      0.0000 
     42 C2'       -10.3380  -25.8930   25.7700 C.3       1 FAD501      0.0000 
     43 O2'        -9.0540  -25.5830   25.2280 O.3       1 FAD501      0.0000 
     44 C3'       -10.1850  -26.3440   27.2240 C.3       1 FAD501      0.0000 
     45 O3'       -10.8670  -27.5790   27.4050 O.3       1 FAD501      0.0000 
     46 C4'       -10.7090  -25.3330   28.2440 C.3       1 FAD501      0.0000 
     47 O4'        -9.7380  -24.3030   28.4310 O.3       1 FAD501      0.0000 
     48 C5'       -11.0630  -25.9700   29.5710 C.3       1 FAD501      0.0000 
     49 O5'        -9.9020  -25.9460   30.4270 O.3       1 FAD501      0.0000 
     50 P         -10.0400  -25.8330   31.9920 P.3       1 FAD501      0.0000 
     51 O1P       -10.6060  -24.4580   32.3600 O.co2     1 FAD501      0.0000 
     52 O2P       -10.7930  -26.9830   32.5440 O.co2     1 FAD501      0.0000 
     53 O3P        -8.5330  -25.8840   32.4880 O.3       1 FAD501      0.0000 
@<TRIPOS>BOND
     1    1    2 ar   
     2    1    3 ar   
     3    1    4 1    
     4    1   53 1    
     5    4    5 1    
     6    5    6 1    
     7    6    7 1    
     8    6    8 1    
     9    7   12 1    
    10    8    9 1    
    11    8   10 1    
    12   10   11 1    
    13   10   12 1    
    14   12   13 1    
    15   13   14 1    
    16   13   22 1    
    17   14   15 2    
    18   15   16 1    
    19   16   17 ar   
    20   16   22 ar   
    21   17   18 1    
    22   17   19 ar   
    23   19   20 ar   
    24   20   21 ar   
    25   21   22 ar   
    26   23   24 1    
    27   23   40 2    
    28   24   25 2    
    29   24   26 am   
    30   26   27 am   
    31   27   28 2    
    32   27   29 1    
    33   29   30 2    
    34   29   40 1    
    35   30   31 1    
    36   31   32 ar   
    37   31   38 ar   
    38   32   33 ar   
    39   33   34 1    
    40   33   35 ar   
    41   35   36 1    
    42   35   37 ar   
    43   37   38 ar   
    44   38   39 1    
    45   39   40 1    
    46   39   41 1    
    47   41   42 1    
    48   42   43 1    
    49   42   44 1    
    50   44   45 1    
    51   44   46 1    
    52   46   47 1    
    53   46   48 1    
    54   48   49 1    
    55   49   50 1    
    56   50   51 ar   
    57   50   52 ar   
    58   50   53 1    
@<TRIPOS>SUBSTRUCTURE
     1 FAD501      1 GROUP   
@<TRIPOS>SET
ATOM$ORANGE STATIC     ATOMS   COLORGROUP SYSTEM 
54 5 5 6 6 8 8 10 10 12 12 14 14 16 16 17 17 20 \
20 22 22 24 24 27 27 29 29 31 31 32 32 33 33 34 34 35 \
35 36 36 37 37 38 38 40 40 41 41 42 42 44 44 46 46 48 \
48 

