#    Name: 5x2k_1_0UN
#    Modification time : Fri May 22 19:17:48 2020

@<TRIPOS>MOLECULE
5x2k_1_0UN
   35    38     1     0     0
SMALL
NO_CHARGES


@<TRIPOS>ATOM
      1 CAT       -51.9230   -0.3750  -15.8110 C.3       1 0UN1101     0.0000 
      2 CAR       -50.6410   -0.6840  -15.0510 C.3       1 0UN1101     0.0000 
      3 NBN       -50.2460   -2.0610  -15.3260 N.4       1 0UN1101     0.0000 
      4 CAB       -49.1600   -2.4480  -14.4190 C.3       1 0UN1101     0.0000 
      5 CAS       -49.7700   -2.0980  -16.7040 C.3       1 0UN1101     0.0000 
      6 CAU       -50.9660   -1.9690  -17.6350 C.3       1 0UN1101     0.0000 
      7 NBO       -51.8760   -0.8880  -17.1990 N.3       1 0UN1101     0.0000 
      8 CBH       -52.7770   -0.3720  -18.1180 C.ar      1 0UN1101     0.0000 
      9 CAO       -53.5090    0.7600  -17.8090 C.ar      1 0UN1101     0.0000 
     10 CBK       -54.4000    1.2570  -18.7350 C.ar      1 0UN1101     0.0000 
     11 OBA       -55.1260    2.3540  -18.4670 O.3       1 0UN1101     0.0000 
     12 CAA       -54.5810    3.0050  -17.3440 C.3       1 0UN1101     0.0000 
     13 CAK       -52.9370   -0.9980  -19.3400 C.ar      1 0UN1101     0.0000 
     14 CAL       -53.8350   -0.4900  -20.2630 C.ar      1 0UN1101     0.0000 
     15 CBJ       -54.5620    0.6390  -19.9500 C.ar      1 0UN1101     0.0000 
     16 NAZ       -55.4220    1.1460  -20.8050 N.pl3     1 0UN1101     0.0000 
     17 C2        -55.2650    1.0080  -22.1060 C.ar      1 0UN1101     0.0000 
     18 N3        -54.3340    0.1910  -22.6110 N.ar      1 0UN1101     0.0000 
     19 N1        -56.0730    1.7180  -22.8920 N.ar      1 0UN1101     0.0000 
     20 C6        -55.9900    1.6460  -24.1980 C.ar      1 0UN1101     0.0000 
     21 C5        -55.0420    0.8140  -24.7470 C.ar      1 0UN1101     0.0000 
     22 CL5       -54.8740    0.6670  -26.4470 Cl        1 0UN1101     0.0000 
     23 C4        -54.2140    0.0860  -23.9340 C.ar      1 0UN1101     0.0000 
     24 OBB       -53.3060   -0.7100  -24.5330 O.3       1 0UN1101     0.0000 
     25 CBG       -52.5020   -1.3520  -23.6640 C.ar      1 0UN1101     0.0000 
     26 CAN       -52.5300   -2.7320  -23.6180 C.ar      1 0UN1101     0.0000 
     27 CAJ       -51.6610   -0.6470  -22.8290 C.ar      1 0UN1101     0.0000 
     28 CAH       -50.8430   -1.3280  -21.9430 C.ar      1 0UN1101     0.0000 
     29 CAI       -50.8700   -2.7120  -21.8960 C.ar      1 0UN1101     0.0000 
     30 CBF       -51.7150   -3.4110  -22.7360 C.ar      1 0UN1101     0.0000 
     31 NAY       -51.7370   -4.7300  -22.6870 N.am      1 0UN1101     0.0000 
     32 CBD       -51.1710   -5.3130  -21.6440 C.2       1 0UN1101     0.0000 
     33 OAE       -50.6550   -4.6970  -20.7190 O.2       1 0UN1101     0.0000 
     34 CAQ       -51.2040   -6.8310  -21.6520 C.2       1 0UN1101     0.0000 
     35 CAP       -50.7640   -7.3670  -23.0090 C.2       1 0UN1101     0.0000 
@<TRIPOS>BOND
     1    1    2 1    
     2    1    7 1    
     3    2    3 1    
     4    3    4 1    
     5    3    5 1    
     6    5    6 1    
     7    6    7 1    
     8    7    8 1    
     9    8    9 ar   
    10    8   13 ar   
    11    9   10 ar   
    12   10   11 1    
    13   10   15 ar   
    14   11   12 1    
    15   13   14 ar   
    16   14   15 ar   
    17   15   16 1    
    18   16   17 1    
    19   17   18 ar   
    20   17   19 ar   
    21   18   23 ar   
    22   19   20 ar   
    23   20   21 ar   
    24   21   22 1    
    25   21   23 ar   
    26   23   24 1    
    27   24   25 1    
    28   25   26 ar   
    29   25   27 ar   
    30   26   30 ar   
    31   27   28 ar   
    32   28   29 ar   
    33   29   30 ar   
    34   30   31 1    
    35   31   32 am   
    36   32   33 2    
    37   32   34 1    
    38   34   35 2    
@<TRIPOS>SUBSTRUCTURE
     1 0UN1101     1 GROUP   
@<TRIPOS>SET

