#    Name: 6fyq_1_PLP_CAVITY_N1_4
#    Modification time : Fri May 22 19:24:57 2020

@<TRIPOS>MOLECULE
6fyq_1_PLP_CAVITY_N1_4
   49     0     6     0     0
SMALL
NO_CHARGES


@<TRIPOS>ATOM
      1 OG         35.0400    4.3900   11.1800 O.3       1 SER1        0.0000 
      2 OG         33.8800    6.1700   11.0700 O.3       1 SER1        0.0000 
      3 O          35.9400    6.2700   11.5900 O.2       2 ALA2        0.0000 
      4 O          34.6600    6.7500   12.2100 O.2       2 ALA2        0.0000 
      5 N          32.4600   11.5900   11.2500 N.am      2 ALA2        0.0000 
      6 OD1        37.1700    6.7600    6.5600 O.co2     3 ASP3        0.0000 
      7 OD1        37.2900    8.0600    5.8200 O.co2     3 ASP3        0.0000 
      8 OD1        35.9000    7.2400    7.1900 O.co2     3 ASP3        0.0000 
      9 OD1        36.0200    8.5400    6.4500 O.co2     3 ASP3        0.0000 
     10 OD1        37.8300    6.0400    8.4500 O.co2     3 ASP3        0.0000 
     11 OD1        36.5600    6.5200    9.0700 O.co2     3 ASP3        0.0000 
     12 OD1        35.4000    8.2900    8.9600 O.co2     3 ASP3        0.0000 
     13 OD1        37.3300    7.1000   10.2200 O.co2     3 ASP3        0.0000 
     14 CZ         35.1200    6.6600    6.0500 C.ar      4 PHE5        0.0000 
     15 CZ         35.3600    9.2500    4.5700 C.ar      4 PHE5        0.0000 
     16 CZ         33.9600    8.4300    5.9300 C.ar      4 PHE5        0.0000 
     17 CZ         34.0800    9.7300    5.1900 C.ar      4 PHE5        0.0000 
     18 CZ         36.1300    9.8300    5.7100 C.ar      4 PHE5        0.0000 
     19 CZ         34.6200    7.7100    7.8200 C.ar      4 PHE5        0.0000 
     20 CZ         34.7400    9.0100    7.0800 C.ar      4 PHE5        0.0000 
     21 CZ         34.8600   10.3100    6.3400 C.ar      4 PHE5        0.0000 
     22 CZ         34.9800   11.6100    5.6000 C.ar      4 PHE5        0.0000 
     23 CZ         34.0000    7.4600   10.3300 C.ar      4 PHE5        0.0000 
     24 CZ         34.1200    8.7600    9.5900 C.ar      4 PHE5        0.0000 
     25 CZ         34.2400   10.0600    8.8500 C.ar      4 PHE5        0.0000 
     26 CZ         34.3600   11.3600    8.1100 C.ar      4 PHE5        0.0000 
     27 CZ         32.8400    9.2400   10.2200 C.ar      4 PHE5        0.0000 
     28 CZ         33.0800   11.8400    8.7400 C.ar      4 PHE5        0.0000 
     29 CA         35.5200    9.5900    8.2200 C.3       5 GLY6        0.0000 
     30 CA         35.6400   10.8900    7.4800 C.3       5 GLY6        0.0000 
     31 CA         32.7200    7.9400   10.9600 C.3       5 GLY6        0.0000 
     32 CA         36.0600    7.5700   10.8500 C.3       5 GLY6        0.0000 
     33 CA         34.7800    8.0400   11.4700 C.3       5 GLY6        0.0000 
     34 CA         34.9000    9.3400   10.7300 C.3       5 GLY6        0.0000 
     35 CA         35.0200   10.6400    9.9900 C.3       5 GLY6        0.0000 
     36 CA         35.1400   11.9400    9.2500 C.3       5 GLY6        0.0000 
     37 CA         33.5000    8.5200   12.1000 C.3       5 GLY6        0.0000 
     38 CA         33.6200    9.8200   11.3600 C.3       5 GLY6        0.0000 
     39 CA         33.7400   11.1200   10.6200 C.3       5 GLY6        0.0000 
     40 CA         33.8600   12.4200    9.8800 C.3       5 GLY6        0.0000 
     41 CA         32.3400   10.2900   11.9900 C.3       5 GLY6        0.0000 
     42 CA         36.8300    8.1500   11.9900 C.3       5 GLY6        0.0000 
     43 CA         35.5600    8.6200   12.6200 C.3       5 GLY6        0.0000 
     44 CA         34.2800    9.1000   13.2500 C.3       5 GLY6        0.0000 
     45 DU         35.2400    7.9600    5.3100 H         6 CUB7        0.0000 
     46 DU         37.7100    4.7400    9.1900 H         6 CUB7        0.0000 
     47 DU         36.4400    5.2200    9.8100 H         6 CUB7        0.0000 
     48 DU         35.2800    6.9900    9.7000 H         6 CUB7        0.0000 
     49 DU         37.2100    5.8000   10.9600 H         6 CUB7        0.0000 
@<TRIPOS>BOND
@<TRIPOS>SUBSTRUCTURE
     1 SER1        1 GROUP   
     2 ALA2        3 GROUP   
     3 ASP3        6 GROUP   
     4 PHE5       14 GROUP   
     5 GLY6       29 GROUP   
     6 CUB7       45 GROUP   
@<TRIPOS>SET

