#    Name: 6fyq_1_PLP_CAVITY_N1_ALL
#    Modification time : Fri May 22 19:24:57 2020

@<TRIPOS>MOLECULE
6fyq_1_PLP_CAVITY_N1_ALL
   82     0     6     0     0
SMALL
NO_CHARGES


@<TRIPOS>ATOM
      1 OG         32.2400    6.9300   -0.0100 O.3       1 SER1        0.0000 
      2 OG         32.3600    8.2300   -0.7500 O.3       1 SER1        0.0000 
      3 OG         32.4800    9.5300   -1.4900 O.3       1 SER1        0.0000 
      4 OG         31.7500    7.9900    1.7600 O.3       1 SER1        0.0000 
      5 OG         31.8600    9.2900    1.0200 O.3       1 SER1        0.0000 
      6 OG         31.9800   10.5900    0.2800 O.3       1 SER1        0.0000 
      7 OG         32.6400    9.8700    2.1700 O.3       1 SER1        0.0000 
      8 OG         35.0400    4.3900   11.1800 O.3       1 SER1        0.0000 
      9 OG         33.8800    6.1700   11.0700 O.3       1 SER1        0.0000 
     10 O          35.9400    6.2700   11.5900 O.2       2 ALA2        0.0000 
     11 O          34.6600    6.7500   12.2100 O.2       2 ALA2        0.0000 
     12 N          32.4600   11.5900   11.2500 N.am      2 ALA2        0.0000 
     13 OD1        33.0200    7.5100    1.1400 O.co2     3 ASP3        0.0000 
     14 OD1        33.1400    8.8100    0.4000 O.co2     3 ASP3        0.0000 
     15 OD1        36.2400    5.8500    1.7600 O.co2     3 ASP3        0.0000 
     16 OD1        33.8000    8.0900    2.2800 O.co2     3 ASP3        0.0000 
     17 OD1        35.8600    8.2000    2.8000 O.co2     3 ASP3        0.0000 
     18 OD1        34.5800    8.6700    3.4200 O.co2     3 ASP3        0.0000 
     19 OD1        37.1700    6.7600    6.5600 O.co2     3 ASP3        0.0000 
     20 OD1        37.2900    8.0600    5.8200 O.co2     3 ASP3        0.0000 
     21 OD1        35.9000    7.2400    7.1900 O.co2     3 ASP3        0.0000 
     22 OD1        36.0200    8.5400    6.4500 O.co2     3 ASP3        0.0000 
     23 OD1        37.8300    6.0400    8.4500 O.co2     3 ASP3        0.0000 
     24 OD1        36.5600    6.5200    9.0700 O.co2     3 ASP3        0.0000 
     25 OD1        35.4000    8.2900    8.9600 O.co2     3 ASP3        0.0000 
     26 OD1        37.3300    7.1000   10.2200 O.co2     3 ASP3        0.0000 
     27 CZ         32.9000    6.2200    1.8700 C.ar      4 PHE5        0.0000 
     28 CZ         31.6300    6.6900    2.5000 C.ar      4 PHE5        0.0000 
     29 CZ         33.6800    6.8000    3.0200 C.ar      4 PHE5        0.0000 
     30 CZ         32.4000    7.2700    3.6500 C.ar      4 PHE5        0.0000 
     31 CZ         32.5200    8.5700    2.9100 C.ar      4 PHE5        0.0000 
     32 CZ         31.2500    9.0400    3.5300 C.ar      4 PHE5        0.0000 
     33 CZ         36.8900    5.1300    3.6500 C.ar      4 PHE5        0.0000 
     34 CZ         35.6200    5.6000    4.2700 C.ar      4 PHE5        0.0000 
     35 CZ         35.7400    6.9000    3.5300 C.ar      4 PHE5        0.0000 
     36 CZ         34.3400    6.0800    4.9000 C.ar      4 PHE5        0.0000 
     37 CZ         34.4600    7.3800    4.1600 C.ar      4 PHE5        0.0000 
     38 CZ         33.1800    7.8500    4.7900 C.ar      4 PHE5        0.0000 
     39 CZ         32.0200    9.6200    4.6800 C.ar      4 PHE5        0.0000 
     40 CZ         35.1200    6.6600    6.0500 C.ar      4 PHE5        0.0000 
     41 CZ         35.3600    9.2500    4.5700 C.ar      4 PHE5        0.0000 
     42 CZ         33.9600    8.4300    5.9300 C.ar      4 PHE5        0.0000 
     43 CZ         34.0800    9.7300    5.1900 C.ar      4 PHE5        0.0000 
     44 CZ         36.1300    9.8300    5.7100 C.ar      4 PHE5        0.0000 
     45 CZ         34.6200    7.7100    7.8200 C.ar      4 PHE5        0.0000 
     46 CZ         34.7400    9.0100    7.0800 C.ar      4 PHE5        0.0000 
     47 CZ         34.8600   10.3100    6.3400 C.ar      4 PHE5        0.0000 
     48 CZ         34.9800   11.6100    5.6000 C.ar      4 PHE5        0.0000 
     49 CZ         34.0000    7.4600   10.3300 C.ar      4 PHE5        0.0000 
     50 CZ         34.1200    8.7600    9.5900 C.ar      4 PHE5        0.0000 
     51 CZ         34.2400   10.0600    8.8500 C.ar      4 PHE5        0.0000 
     52 CZ         34.3600   11.3600    8.1100 C.ar      4 PHE5        0.0000 
     53 CZ         32.8400    9.2400   10.2200 C.ar      4 PHE5        0.0000 
     54 CZ         33.0800   11.8400    8.7400 C.ar      4 PHE5        0.0000 
     55 CA         34.9600    6.3200    2.3900 C.3       5 GLY6        0.0000 
     56 CA         31.3700   10.3400    2.7900 C.3       5 GLY6        0.0000 
     57 CA         37.0100    6.4300    2.9100 C.3       5 GLY6        0.0000 
     58 CA         36.4000    6.1800    5.4200 C.3       5 GLY6        0.0000 
     59 CA         36.5100    7.4800    4.6800 C.3       5 GLY6        0.0000 
     60 CA         36.6300    8.7800    3.9400 C.3       5 GLY6        0.0000 
     61 CA         35.5200    9.5900    8.2200 C.3       5 GLY6        0.0000 
     62 CA         35.6400   10.8900    7.4800 C.3       5 GLY6        0.0000 
     63 CA         32.7200    7.9400   10.9600 C.3       5 GLY6        0.0000 
     64 CA         36.0600    7.5700   10.8500 C.3       5 GLY6        0.0000 
     65 CA         34.7800    8.0400   11.4700 C.3       5 GLY6        0.0000 
     66 CA         34.9000    9.3400   10.7300 C.3       5 GLY6        0.0000 
     67 CA         35.0200   10.6400    9.9900 C.3       5 GLY6        0.0000 
     68 CA         35.1400   11.9400    9.2500 C.3       5 GLY6        0.0000 
     69 CA         33.5000    8.5200   12.1000 C.3       5 GLY6        0.0000 
     70 CA         33.6200    9.8200   11.3600 C.3       5 GLY6        0.0000 
     71 CA         33.7400   11.1200   10.6200 C.3       5 GLY6        0.0000 
     72 CA         33.8600   12.4200    9.8800 C.3       5 GLY6        0.0000 
     73 CA         32.3400   10.2900   11.9900 C.3       5 GLY6        0.0000 
     74 CA         36.8300    8.1500   11.9900 C.3       5 GLY6        0.0000 
     75 CA         35.5600    8.6200   12.6200 C.3       5 GLY6        0.0000 
     76 CA         34.2800    9.1000   13.2500 C.3       5 GLY6        0.0000 
     77 DU         33.3000    9.1500    4.0500 H         6 CUB7        0.0000 
     78 DU         35.2400    7.9600    5.3100 H         6 CUB7        0.0000 
     79 DU         37.7100    4.7400    9.1900 H         6 CUB7        0.0000 
     80 DU         36.4400    5.2200    9.8100 H         6 CUB7        0.0000 
     81 DU         35.2800    6.9900    9.7000 H         6 CUB7        0.0000 
     82 DU         37.2100    5.8000   10.9600 H         6 CUB7        0.0000 
@<TRIPOS>BOND
@<TRIPOS>SUBSTRUCTURE
     1 SER1        1 GROUP   
     2 ALA2       10 GROUP   
     3 ASP3       13 GROUP   
     4 PHE5       27 GROUP   
     5 GLY6       55 GROUP   
     6 CUB7       77 GROUP   
@<TRIPOS>SET

