#    Name: 6fyq_1_PLP
#    Modification time : Fri May 22 19:24:56 2020

@<TRIPOS>MOLECULE
6fyq_1_PLP
   24    24     1     0     0
SMALL
NO_CHARGES


@<TRIPOS>ATOM
      1 N1         32.7240   11.1130   12.2800 N.ar      1 PLP501      0.0000 
      2 C2         33.2070   11.8460   11.1970 C.ar      1 PLP501      0.0000 
      3 C2A        32.9770   13.3340   11.1540 C.3       1 PLP501      0.0000 
      4 C3         33.8900   11.2090   10.1420 C.ar      1 PLP501      0.0000 
      5 O3         34.3680   11.9490    9.0770 O.3       1 PLP501      0.0000 
      6 C4         34.1050    9.8130   10.1980 C.ar      1 PLP501      0.0000 
      7 C4A        34.9620    9.0970    9.1850 C.2       1 PLP501      0.0000 
      8 O4A        35.2870    9.7100    8.1620 O.2       1 PLP501      0.0000 
      9 C5         33.6030    9.0980   11.2840 C.ar      1 PLP501      0.0000 
     10 C6         32.9100    9.7520   12.3120 C.ar      1 PLP501      0.0000 
     11 C5A        33.8130    7.5870   11.3660 C.3       1 PLP501      0.0000 
     12 O4P        35.1510    7.3140   11.8050 O.3       1 PLP501      0.0000 
     13 P          35.7880    5.8450   11.5390 P.3       1 PLP501      0.0000 
     14 O1P        35.8620    5.7270   10.0510 O.co2     1 PLP501      0.0000 
     15 O2P        34.9100    4.8270   12.2210 O.co2     1 PLP501      0.0000 
     16 O3P        37.1390    5.8310   12.2620 O.co2     1 PLP501      0.0000 
     17 H2A1       33.4330   13.7470   10.2540 H         1 PLP501      0.0000 
     18 H2A2       33.4260   13.7970   12.0330 H         1 PLP501      0.0000 
     19 H2A3       31.9060   13.5360   11.1440 H         1 PLP501      0.0000 
     20 HO3        34.8880   11.3690    8.4830 H         1 PLP501      0.0000 
     21 H4A        35.3390    8.0950    9.3860 H         1 PLP501      0.0000 
     22 H6         32.5140    9.1740   13.1480 H         1 PLP501      0.0000 
     23 H5A1       33.0980    7.1500   12.0640 H         1 PLP501      0.0000 
     24 H5A2       33.6450    7.1350   10.3880 H         1 PLP501      0.0000 
@<TRIPOS>BOND
     1    1    2 ar   
     2    1   10 ar   
     3    2    3 1    
     4    2    4 ar   
     5    3   17 1    
     6    3   18 1    
     7    3   19 1    
     8    4    5 1    
     9    4    6 ar   
    10    5   20 1    
    11    6    7 1    
    12    6    9 ar   
    13    7    8 2    
    14    7   21 1    
    15    9   10 ar   
    16    9   11 1    
    17   10   22 1    
    18   11   12 1    
    19   11   23 1    
    20   11   24 1    
    21   12   13 1    
    22   13   14 ar   
    23   13   15 ar   
    24   13   16 ar   
@<TRIPOS>SUBSTRUCTURE
     1 PLP501      1 GROUP   
@<TRIPOS>SET

