#    Name: 6hiq_3_SRO
#    Modification time : Fri May 22 19:24:13 2020

@<TRIPOS>MOLECULE
6hiq_3_SRO
   13    14     1     0     0
SMALL
NO_CHARGES


@<TRIPOS>ATOM
      1 OH        110.0330  112.6840  158.3950 O.3       1 SRO506      0.0000 
      2 CZ3       108.6530  112.4840  158.3280 C.ar      1 SRO506      0.0000 
      3 CH2       108.1080  111.2610  157.9890 C.ar      1 SRO506      0.0000 
      4 CZ2       106.7370  111.1070  157.9340 C.ar      1 SRO506      0.0000 
      5 CE2       105.9090  112.1970  158.2230 C.ar      1 SRO506      0.0000 
      6 NE1       104.5490  112.3270  158.2440 N.pl3     1 SRO506      0.0000 
      7 CD1       104.2530  113.6020  158.5880 C.2       1 SRO506      0.0000 
      8 CG        105.4330  114.2730  158.7800 C.2       1 SRO506      0.0000 
      9 CD2       106.4510  113.4020  158.5550 C.ar      1 SRO506      0.0000 
     10 CE3       107.8390  113.5580  158.6120 C.ar      1 SRO506      0.0000 
     11 CB        105.3420  115.7370  159.1860 C.3       1 SRO506      0.0000 
     12 CA        105.4200  116.6360  157.9630 C.3       1 SRO506      0.0000 
     13 NZ        105.0170  117.9740  158.3480 N.4       1 SRO506      0.0000 
@<TRIPOS>BOND
     1    1    2 1    
     2    2    3 ar   
     3    2   10 ar   
     4    3    4 ar   
     5    4    5 ar   
     6    5    6 1    
     7    5    9 ar   
     8    6    7 1    
     9    7    8 2    
    10    8    9 1    
    11    8   11 1    
    12    9   10 ar   
    13   11   12 1    
    14   12   13 1    
@<TRIPOS>SUBSTRUCTURE
     1 SRO506      1 GROUP   
@<TRIPOS>SET

