#    Name: 6hiq_3_SRO_CAVITY_N1_4
#    Modification time : Fri May 22 19:24:14 2020

@<TRIPOS>MOLECULE
6hiq_3_SRO_CAVITY_N1_4
   65     0     5     0     0
SMALL
NO_CHARGES


@<TRIPOS>ATOM
      1 N         104.8400  117.7200  156.1100 N.am      1 ALA2        0.0000 
      2 O         109.4900  111.9200  157.9200 O.2       1 ALA2        0.0000 
      3 N         105.1500  118.0200  157.5400 N.am      1 ALA2        0.0000 
      4 N         109.8000  112.2200  159.3600 N.am      1 ALA2        0.0000 
      5 N         106.0100  115.0800  159.5600 N.am      1 ALA2        0.0000 
      6 N         107.4100  114.5900  159.3600 N.am      1 ALA2        0.0000 
      7 O         108.8200  114.1000  159.1600 O.2       1 ALA2        0.0000 
      8 N         105.0300  116.9500  159.3700 N.am      1 ALA2        0.0000 
      9 N         106.4400  116.4600  159.1700 N.am      1 ALA2        0.0000 
     10 N         105.4600  118.3300  158.9800 N.am      1 ALA2        0.0000 
     11 OD1       106.4900  107.9400  157.8500 O.co2     2 ASP3        0.0000 
     12 OD1       105.8200  110.1300  159.1000 O.co2     2 ASP3        0.0000 
     13 OD1       106.1300  110.4300  160.5300 O.co2     2 ASP3        0.0000 
     14 CZ        105.6300  110.8900  155.8400 C.ar      3 PHE5        0.0000 
     15 CZ        105.9400  111.2000  157.2700 C.ar      3 PHE5        0.0000 
     16 CZ        103.5600  113.5600  157.2800 C.ar      3 PHE5        0.0000 
     17 CZ        104.9600  113.0700  157.0800 C.ar      3 PHE5        0.0000 
     18 CZ        106.3700  112.5900  156.8800 C.ar      3 PHE5        0.0000 
     19 CZ        107.7700  112.1000  156.6800 C.ar      3 PHE5        0.0000 
     20 CZ        103.9900  114.9500  156.8900 C.ar      3 PHE5        0.0000 
     21 CZ        103.0100  116.8200  156.6900 C.ar      3 PHE5        0.0000 
     22 CZ        104.4100  116.3300  156.5000 C.ar      3 PHE5        0.0000 
     23 CZ        103.4400  112.4900  159.1000 C.ar      3 PHE5        0.0000 
     24 CZ        103.8700  113.8700  158.7100 C.ar      3 PHE5        0.0000 
     25 CZ        106.6800  112.8900  158.3200 C.ar      3 PHE5        0.0000 
     26 CZ        102.8900  115.7500  158.5200 C.ar      3 PHE5        0.0000 
     27 CZ        104.3000  115.2600  158.3200 C.ar      3 PHE5        0.0000 
     28 CZ        105.7000  114.7700  158.1200 C.ar      3 PHE5        0.0000 
     29 CZ        107.1000  114.2800  157.9300 C.ar      3 PHE5        0.0000 
     30 CZ        108.5100  113.7900  157.7300 C.ar      3 PHE5        0.0000 
     31 CZ        106.1300  116.1500  157.7300 C.ar      3 PHE5        0.0000 
     32 CZ        107.5300  115.6600  157.5400 C.ar      3 PHE5        0.0000 
     33 CZ        106.5500  117.5400  157.3400 C.ar      3 PHE5        0.0000 
     34 CZ        104.7300  110.9200  160.7300 C.ar      3 PHE5        0.0000 
     35 CZ        105.1600  112.3100  160.3400 C.ar      3 PHE5        0.0000 
     36 CZ        106.5600  111.8200  160.1400 C.ar      3 PHE5        0.0000 
     37 CZ        107.9600  111.3300  159.9400 C.ar      3 PHE5        0.0000 
     38 CZ        105.5800  113.6900  159.9500 C.ar      3 PHE5        0.0000 
     39 CZ        106.9900  113.2000  159.7500 C.ar      3 PHE5        0.0000 
     40 CZ        108.3900  112.7100  159.5500 C.ar      3 PHE5        0.0000 
     41 CZ        104.6100  115.5600  159.7600 C.ar      3 PHE5        0.0000 
     42 CZ        103.6300  117.4400  159.5600 C.ar      3 PHE5        0.0000 
     43 CA        104.7800  108.1200  156.6100 C.3       4 GLY6        0.0000 
     44 CA        105.2000  109.5100  156.2300 C.3       4 GLY6        0.0000 
     45 CA        107.0400  110.4000  155.6400 C.3       4 GLY6        0.0000 
     46 CA        105.0900  108.4300  158.0500 C.3       4 GLY6        0.0000 
     47 CA        105.5100  109.8200  157.6600 C.3       4 GLY6        0.0000 
     48 CA        106.9200  109.3300  157.4600 C.3       4 GLY6        0.0000 
     49 CA        108.3200  108.8400  157.2700 C.3       4 GLY6        0.0000 
     50 CA        104.5400  111.6900  157.4700 C.3       4 GLY6        0.0000 
     51 CA        107.3500  110.7100  157.0700 C.3       4 GLY6        0.0000 
     52 CA        108.7500  110.2200  156.8800 C.3       4 GLY6        0.0000 
     53 CA        103.9900  109.2300  159.6800 C.3       4 GLY6        0.0000 
     54 CA        103.0100  111.1000  159.4900 C.3       4 GLY6        0.0000 
     55 CA        104.4200  110.6100  159.2900 C.3       4 GLY6        0.0000 
     56 CA        107.2300  109.6400  158.9000 C.3       4 GLY6        0.0000 
     57 CA        104.8500  112.0000  158.9000 C.3       4 GLY6        0.0000 
     58 CA        107.6500  111.0200  158.5100 C.3       4 GLY6        0.0000 
     59 CA        109.0600  110.5300  158.3100 C.3       4 GLY6        0.0000 
     60 CA        108.0800  112.4100  158.1200 C.3       4 GLY6        0.0000 
     61 CA        103.3200  117.1300  158.1300 C.3       4 GLY6        0.0000 
     62 CA        103.7500  118.5100  157.7400 C.3       4 GLY6        0.0000 
     63 DU        106.2500  111.5100  158.7100 H         5 CUB7        0.0000 
     64 DU        105.2700  113.3800  158.5100 H         5 CUB7        0.0000 
     65 DU        104.7200  116.6400  157.9300 H         5 CUB7        0.0000 
@<TRIPOS>BOND
@<TRIPOS>SUBSTRUCTURE
     1 ALA2        1 GROUP   
     2 ASP3       11 GROUP   
     3 PHE5       14 GROUP   
     4 GLY6       43 GROUP   
     5 CUB7       63 GROUP   
@<TRIPOS>SET

