#    Name: 6a5y_1_9CR
#    Modification time : Fri May 22 19:24:20 2020

@<TRIPOS>MOLECULE
6a5y_1_9CR
   22    22     1     0     0
SMALL
NO_CHARGES


@<TRIPOS>ATOM
      1 C1        -15.1740   24.2330   27.3040 C.3       1 9CR501      0.0000 
      2 C2        -15.2500   25.5860   28.0250 C.3       1 9CR501      0.0000 
      3 C3        -16.6490   26.1700   28.1100 C.3       1 9CR501      0.0000 
      4 C4        -17.2030   26.3580   26.7050 C.3       1 9CR501      0.0000 
      5 C5        -17.3180   25.0160   25.9820 C.2       1 9CR501      0.0000 
      6 C6        -15.9650   24.2770   25.9340 C.2       1 9CR501      0.0000 
      7 C7        -15.9440   22.8920   25.2350 C.2       1 9CR501      0.0000 
      8 C8        -17.1930   22.0770   25.1200 C.2       1 9CR501      0.0000 
      9 C9        -17.2600   20.9350   24.3130 C.2       1 9CR501      0.0000 
     10 C10       -18.4830   20.2660   24.1330 C.2       1 9CR501      0.0000 
     11 C11       -19.6720   20.4840   24.8100 C.2       1 9CR501      0.0000 
     12 C12       -20.8650   19.7410   24.7380 C.2       1 9CR501      0.0000 
     13 C13       -22.0710   20.0250   25.1970 C.2       1 9CR501      0.0000 
     14 C14       -23.1900   19.1950   24.6320 C.2       1 9CR501      0.0000 
     15 C15       -24.6740   19.4890   24.8230 C.2       1 9CR501      0.0000 
     16 C16       -15.6870   23.1280   28.2420 C.3       1 9CR501      0.0000 
     17 C17       -13.6940   23.9730   26.9690 C.3       1 9CR501      0.0000 
     18 C18       -17.9330   25.2380   24.6190 C.3       1 9CR501      0.0000 
     19 C19       -16.0560   20.3590   23.7120 C.3       1 9CR501      0.0000 
     20 C20       -22.3920   21.0610   26.2340 C.3       1 9CR501      0.0000 
     21 O1        -25.4460   19.1660   23.8960 O.co2     1 9CR501      0.0000 
     22 O2        -25.0720   19.9250   25.9090 O.co2     1 9CR501      0.0000 
@<TRIPOS>BOND
     1    1    2 1    
     2    1    6 1    
     3    1   16 1    
     4    1   17 1    
     5    2    3 1    
     6    3    4 1    
     7    4    5 1    
     8    5    6 2    
     9    5   18 1    
    10    6    7 1    
    11    7    8 2    
    12    8    9 1    
    13    9   10 2    
    14    9   19 1    
    15   10   11 1    
    16   11   12 2    
    17   12   13 1    
    18   13   14 2    
    19   13   20 1    
    20   14   15 1    
    21   15   21 ar   
    22   15   22 ar   
@<TRIPOS>SUBSTRUCTURE
     1 9CR501      1 GROUP   
@<TRIPOS>SET

