#    Name: 6ovx_1_NAP
#    Modification time : Fri May 22 19:31:47 2020

@<TRIPOS>MOLECULE
6ovx_1_NAP
   48    52     1     0     1
SMALL
NO_CHARGES


@<TRIPOS>ATOM
      1 PA         13.8880   86.5590   18.2420 P.3       1 NAP401      0.0000 
      2 O1A        14.1300   86.0170   19.6330 O.co2     1 NAP401      0.0000 
      3 O2A        12.5040   87.0370   17.8410 O.co2     1 NAP401      0.0000 
      4 O5B        14.3860   85.4800   17.1350 O.3       1 NAP401      0.0000 
      5 C5B        13.6130   85.1140   15.9870 C.3       1 NAP401      0.0000 
      6 C4B        14.4290   84.1610   15.1180 C.3       1 NAP401      0.0000 
      7 O4B        14.3190   82.7940   15.5660 O.3       1 NAP401      0.0000 
      8 C3B        13.9900   84.1610   13.6560 C.3       1 NAP401      0.0000 
      9 O3B        14.6530   85.1600   12.8740 O.3       1 NAP401      0.0000 
     10 C2B        14.3140   82.7540   13.1870 C.3       1 NAP401      0.0000 
     11 O2B        15.6520   82.6650   12.6800 O.3       1 NAP401      0.0000 
     12 C1B        14.1470   81.9100   14.4460 C.3       1 NAP401      0.0000 
     13 N9A        12.7880   81.2990   14.4690 N.pl3     1 NAP401      0.0000 
     14 C8A        11.6690   81.9240   14.8940 C.2       1 NAP401      0.0000 
     15 N7A        10.5910   81.1080   14.7940 N.2       1 NAP401      0.0000 
     16 C5A        11.0090   79.9330   14.2890 C.ar      1 NAP401      0.0000 
     17 C6A        10.3740   78.6320   13.9360 C.ar      1 NAP401      0.0000 
     18 N6A         9.0400   78.4500   14.1100 N.pl3     1 NAP401      0.0000 
     19 N1A        11.1730   77.6510   13.4300 N.ar      1 NAP401      0.0000 
     20 C2A        12.5020   77.8220   13.2560 C.ar      1 NAP401      0.0000 
     21 N3A        13.1400   78.9790   13.5630 N.ar      1 NAP401      0.0000 
     22 C4A        12.4650   80.0570   14.0700 C.ar      1 NAP401      0.0000 
     23 O3         14.9340   87.7960   18.0890 O.3       1 NAP401      0.0000 
     24 PN         15.2200   88.6620   16.7430 P.3       1 NAP401      0.0000 
     25 O1N        14.9630   87.8500   15.4910 O.co2     1 NAP401      0.0000 
     26 O2N        16.5820   89.2910   16.9510 O.co2     1 NAP401      0.0000 
     27 O5D        14.0690   89.7990   16.7380 O.3       1 NAP401      0.0000 
     28 C5D        13.8330   90.6120   17.8820 C.3       1 NAP401      0.0000 
     29 C4D        12.9370   91.7920   17.5060 C.3       1 NAP401      0.0000 
     30 O4D        12.7700   92.6340   18.6610 O.3       1 NAP401      0.0000 
     31 C3D        13.4900   92.6570   16.3720 C.3       1 NAP401      0.0000 
     32 O3D        12.8810   92.3610   15.1060 O.3       1 NAP401      0.0000 
     33 C2D        13.2410   94.0870   16.8390 C.3       1 NAP401      0.0000 
     34 O2D        12.0660   94.6650   16.2350 O.3       1 NAP401      0.0000 
     35 C1D        13.0910   93.9950   18.3660 C.3       1 NAP401      0.0000 
     36 N1N        14.3230   94.4230   19.0730 N.pl3     1 NAP401      0.0000 
     37 C2N        14.2520   95.4330   19.9670 C.ar      1 NAP401      0.0000 
     38 C3N        15.3890   95.8840   20.6560 C.ar      1 NAP401      0.0000 
     39 C7N        15.3230   97.0080   21.6640 C.2       1 NAP401      0.0000 
     40 O7N        16.3480   97.3360   22.2450 O.2       1 NAP401      0.0000 
     41 N7N        14.1750   97.6380   21.9370 N.am      1 NAP401      0.0000 
     42 C4N        16.6160   95.2650   20.4020 C.ar      1 NAP401      0.0000 
     43 C5N        16.6760   94.2270   19.4790 C.ar      1 NAP401      0.0000 
     44 C6N        15.5120   93.8220   18.8270 C.ar      1 NAP401      0.0000 
     45 P2B        16.1710   81.5160   11.6530 P.3       1 NAP401      0.0000 
     46 O1X        17.3830   80.9320   12.3410 O.co2     1 NAP401      0.0000 
     47 O2X        14.9910   80.5680   11.5230 O.co2     1 NAP401      0.0000 
     48 O3X        16.5160   82.2560   10.3790 O.co2     1 NAP401      0.0000 
@<TRIPOS>BOND
     1    1    2 ar   
     2    1    3 ar   
     3    1    4 1    
     4    1   23 1    
     5    4    5 1    
     6    5    6 1    
     7    6    7 1    
     8    6    8 1    
     9    7   12 1    
    10    8    9 1    
    11    8   10 1    
    12   10   11 1    
    13   10   12 1    
    14   11   45 1    
    15   12   13 1    
    16   13   14 1    
    17   13   22 1    
    18   14   15 2    
    19   15   16 1    
    20   16   17 ar   
    21   16   22 ar   
    22   17   18 1    
    23   17   19 ar   
    24   19   20 ar   
    25   20   21 ar   
    26   21   22 ar   
    27   23   24 1    
    28   24   25 ar   
    29   24   26 ar   
    30   24   27 1    
    31   27   28 1    
    32   28   29 1    
    33   29   30 1    
    34   29   31 1    
    35   30   35 1    
    36   31   32 1    
    37   31   33 1    
    38   33   34 1    
    39   33   35 1    
    40   35   36 1    
    41   36   37 ar   
    42   36   44 ar   
    43   37   38 ar   
    44   38   39 1    
    45   38   42 ar   
    46   39   40 2    
    47   39   41 am   
    48   42   43 ar   
    49   43   44 ar   
    50   45   46 ar   
    51   45   47 ar   
    52   45   48 ar   
@<TRIPOS>SUBSTRUCTURE
     1 NAP401      1 GROUP   
@<TRIPOS>SET
ATOM$ORANGE STATIC     ATOMS   COLORGROUP SYSTEM 
42 5 5 6 6 8 8 10 10 12 12 14 14 16 16 17 17 20 \
20 22 22 28 28 29 29 31 31 33 33 35 35 37 37 38 38 39 \
39 42 42 43 43 44 44 

