#    Name: 6ovx_2_NAP
#    Modification time : Fri May 22 19:31:53 2020

@<TRIPOS>MOLECULE
6ovx_2_NAP
   17    17     1     0     1
SMALL
NO_CHARGES


@<TRIPOS>ATOM
      1 PA         46.0960   99.0130   35.7310 P.3       1 NAP401      0.0000 
      2 O1A        46.4500   99.7800   34.4820 O.co2     1 NAP401      0.0000 
      3 O2A        44.9260   98.0530   35.7040 O.co2     1 NAP401      0.0000 
      4 O5B        45.8670  100.0610   36.9370 O.3       1 NAP401      0.0000 
      5 C5B        45.0360   99.7830   38.0620 C.3       1 NAP401      0.0000 
      6 C4B        44.7970  101.1030   38.7790 C.3       1 NAP401      0.0000 
      7 O4B        43.5250  101.6880   38.4650 O.3       1 NAP401      0.0000 
      8 C3B        44.8200  100.9430   40.2860 C.3       1 NAP401      0.0000 
      9 O3B        46.1630  100.9770   40.7830 O.3       1 NAP401      0.0000 
     10 C2B        43.9720  102.1070   40.7610 C.3       1 NAP401      0.0000 
     11 O2B        44.8230  103.2110   41.0700 O.3       1 NAP401      0.0000 
     12 C1B        43.0380  102.4280   39.5930 C.3       1 NAP401      0.0000 
     13 O3         47.4220   98.2350   36.2320 O.3       1 NAP401      0.0000 
     14 P2B        44.4200  104.3970   42.0870 P.3       1 NAP401      0.0000 
     15 O1X        43.4370  105.2300   41.2900 O.co2     1 NAP401      0.0000 
     16 O2X        45.7380  105.0820   42.3680 O.co2     1 NAP401      0.0000 
     17 O3X        43.8330  103.7010   43.2930 O.co2     1 NAP401      0.0000 
@<TRIPOS>BOND
     1    1    2 ar   
     2    1    3 ar   
     3    1    4 1    
     4    1   13 1    
     5    4    5 1    
     6    5    6 1    
     7    6    7 1    
     8    6    8 1    
     9    7   12 1    
    10    8    9 1    
    11    8   10 1    
    12   10   11 1    
    13   10   12 1    
    14   11   14 1    
    15   14   15 ar   
    16   14   16 ar   
    17   14   17 ar   
@<TRIPOS>SUBSTRUCTURE
     1 NAP401      1 GROUP   
@<TRIPOS>SET
ATOM$ORANGE STATIC     ATOMS   COLORGROUP SYSTEM 
10 5 5 6 6 8 8 10 10 12 12 

