#    Name: 6u9c_2_ACO
#    Modification time : Fri May 22 19:26:19 2020

@<TRIPOS>MOLECULE
6u9c_2_ACO
   41    43     1     0     1
SMALL
NO_CHARGES


@<TRIPOS>ATOM
      1 N1A       -48.6750   19.9860   -8.2600 N.ar      1 ACO303      0.0000 
      2 C2A       -48.7330   19.9560   -9.6050 C.ar      1 ACO303      0.0000 
      3 N3A       -47.6950   20.2200  -10.4170 N.ar      1 ACO303      0.0000 
      4 C4A       -46.4820   20.5440   -9.9030 C.ar      1 ACO303      0.0000 
      5 C5A       -46.3410   20.5940   -8.4330 C.ar      1 ACO303      0.0000 
      6 C6A       -47.5360   20.2900   -7.6050 C.ar      1 ACO303      0.0000 
      7 N6A       -47.4880   20.3150   -6.2480 N.pl3     1 ACO303      0.0000 
      8 N7A       -45.0630   20.9280   -8.1830 N.2       1 ACO303      0.0000 
      9 C8A       -44.4410   21.0780   -9.3810 C.2       1 ACO303      0.0000 
     10 N9A       -45.2790   20.8600  -10.4130 N.pl3     1 ACO303      0.0000 
     11 C1B       -44.8880   20.9320  -11.8530 C.3       1 ACO303      0.0000 
     12 C2B       -44.7870   22.3550  -12.3850 C.3       1 ACO303      0.0000 
     13 O2B       -46.0380   22.8050  -12.9200 O.3       1 ACO303      0.0000 
     14 C3B       -43.6820   22.2940  -13.4340 C.3       1 ACO303      0.0000 
     15 O3B       -44.1780   22.0100  -14.7490 O.3       1 ACO303      0.0000 
     16 P3B       -44.8290   23.0960  -15.7630 P.3       1 ACO303      0.0000 
     17 O7A       -46.1860   23.3910  -15.1650 O.co2     1 ACO303      0.0000 
     18 O8A       -43.8650   24.2620  -15.7320 O.co2     1 ACO303      0.0000 
     19 O9A       -44.8920   22.3810  -17.0970 O.co2     1 ACO303      0.0000 
     20 C4B       -42.8290   21.1010  -13.0210 C.3       1 ACO303      0.0000 
     21 O4B       -43.5710   20.3900  -12.0210 O.3       1 ACO303      0.0000 
     22 C5B       -41.4380   21.4540  -12.4900 C.3       1 ACO303      0.0000 
     23 O5B       -40.8330   20.2490  -12.0080 O.3       1 ACO303      0.0000 
     24 P1A       -39.3780   20.1990  -11.3040 P.3       1 ACO303      0.0000 
     25 O1A       -38.6850   18.9090  -11.6860 O.co2     1 ACO303      0.0000 
     26 O2A       -38.6980   21.5230  -11.5700 O.co2     1 ACO303      0.0000 
     27 O3A       -39.8190   20.1270   -9.7420 O.3       1 ACO303      0.0000 
     28 P2A       -39.7940   18.7970   -8.8070 P.3       1 ACO303      0.0000 
     29 O4A       -40.6250   17.7330   -9.4910 O.co2     1 ACO303      0.0000 
     30 O5A       -38.3730   18.4830   -8.3860 O.co2     1 ACO303      0.0000 
     31 O6A       -40.6330   19.2540   -7.4940 O.3       1 ACO303      0.0000 
     32 CBP       -40.1170   19.5300   -5.1430 C.3       1 ACO303      0.0000 
     33 CCP       -40.1040   20.1690   -6.5250 C.3       1 ACO303      0.0000 
     34 CDP       -39.3430   18.2380   -5.3000 C.3       1 ACO303      0.0000 
     35 CEP       -41.5420   19.2390   -4.6820 C.3       1 ACO303      0.0000 
     36 CAP       -39.3550   20.4070   -4.1330 C.3       1 ACO303      0.0000 
     37 OAP       -39.1480   21.7290   -4.6510 O.3       1 ACO303      0.0000 
     38 C9P       -40.0380   20.5130   -2.7930 C.2       1 ACO303      0.0000 
     39 O9P       -40.6950   21.5060   -2.5230 O.2       1 ACO303      0.0000 
     40 N8P       -39.8800   19.5060   -1.9340 N.am      1 ACO303      0.0000 
     41 C7P       -40.6240   19.4630   -0.6900 C.3       1 ACO303      0.0000 
@<TRIPOS>BOND
     1    1    2 ar   
     2    1    6 ar   
     3    2    3 ar   
     4    3    4 ar   
     5    4    5 ar   
     6    4   10 1    
     7    5    6 ar   
     8    5    8 1    
     9    6    7 1    
    10    8    9 2    
    11    9   10 1    
    12   10   11 1    
    13   11   12 1    
    14   11   21 1    
    15   12   13 1    
    16   12   14 1    
    17   14   15 1    
    18   14   20 1    
    19   15   16 1    
    20   16   17 ar   
    21   16   18 ar   
    22   16   19 ar   
    23   20   21 1    
    24   20   22 1    
    25   22   23 1    
    26   23   24 1    
    27   24   25 ar   
    28   24   26 ar   
    29   24   27 1    
    30   27   28 1    
    31   28   29 ar   
    32   28   30 ar   
    33   28   31 1    
    34   31   33 1    
    35   32   33 1    
    36   32   34 1    
    37   32   35 1    
    38   32   36 1    
    39   36   37 1    
    40   36   38 1    
    41   38   39 2    
    42   38   40 am   
    43   40   41 1    
@<TRIPOS>SUBSTRUCTURE
     1 ACO303      1 GROUP   
@<TRIPOS>SET
ATOM$ORANGE STATIC     ATOMS   COLORGROUP SYSTEM 
34 2 2 4 4 5 5 6 6 9 9 11 11 12 12 14 14 20 \
20 22 22 32 32 33 33 34 34 35 35 36 36 38 38 41 41 

