#    Name: 6u9c_3_ACO
#    Modification time : Fri May 22 19:26:23 2020

@<TRIPOS>MOLECULE
6u9c_3_ACO
   45    47     1     0     1
SMALL
NO_CHARGES


@<TRIPOS>ATOM
      1 N1A       -59.9770   27.6980   -5.9600 N.ar      1 ACO301      0.0000 
      2 C2A       -59.9820   27.6230   -7.3040 C.ar      1 ACO301      0.0000 
      3 N3A       -60.7560   28.3870   -8.0930 N.ar      1 ACO301      0.0000 
      4 C4A       -61.6040   29.3020   -7.5610 C.ar      1 ACO301      0.0000 
      5 C5A       -61.6580   29.4450   -6.0970 C.ar      1 ACO301      0.0000 
      6 C6A       -60.7710   28.5650   -5.2940 C.ar      1 ACO301      0.0000 
      7 N6A       -60.7510   28.6260   -3.9390 N.pl3     1 ACO301      0.0000 
      8 N7A       -62.5670   30.4070   -5.8440 N.2       1 ACO301      0.0000 
      9 C8A       -63.0520   30.8410   -7.0380 C.2       1 ACO301      0.0000 
     10 N9A       -62.4820   30.1790   -8.0620 N.pl3     1 ACO301      0.0000 
     11 C1B       -62.7460   30.3760   -9.5130 C.3       1 ACO301      0.0000 
     12 C2B       -64.0790   29.8110   -9.9750 C.3       1 ACO301      0.0000 
     13 O2B       -64.0760   28.3860  -10.0770 O.3       1 ACO301      0.0000 
     14 C3B       -64.1930   30.4700  -11.3310 C.3       1 ACO301      0.0000 
     15 O3B       -63.2770   29.8280  -12.2120 O.3       1 ACO301      0.0000 
     16 P3B       -63.7130   29.0740  -13.5680 P.3       1 ACO301      0.0000 
     17 O7A       -64.5550   30.0820  -14.3170 O.co2     1 ACO301      0.0000 
     18 O8A       -62.3890   28.7620  -14.2250 O.co2     1 ACO301      0.0000 
     19 O9A       -64.4570   27.8560  -13.0740 O.co2     1 ACO301      0.0000 
     20 C4B       -63.6380   31.8580  -11.0770 C.3       1 ACO301      0.0000 
     21 O4B       -62.8390   31.7530   -9.8900 O.3       1 ACO301      0.0000 
     22 C5B       -64.7480   32.8790  -10.8760 C.3       1 ACO301      0.0000 
     23 O5B       -64.2590   33.8480   -9.9590 O.3       1 ACO301      0.0000 
     24 P1A       -65.2340   34.7520   -9.0540 P.3       1 ACO301      0.0000 
     25 O1A       -65.5360   36.0400   -9.7840 O.co2     1 ACO301      0.0000 
     26 O2A       -66.3560   33.8720   -8.5520 O.co2     1 ACO301      0.0000 
     27 O3A       -64.2230   35.0430   -7.8340 O.3       1 ACO301      0.0000 
     28 P2A       -64.0250   36.4690   -7.1090 P.3       1 ACO301      0.0000 
     29 O4A       -65.1320   36.6910   -6.1080 O.co2     1 ACO301      0.0000 
     30 O5A       -63.7320   37.5110   -8.1630 O.co2     1 ACO301      0.0000 
     31 O6A       -62.6690   36.1330   -6.3070 O.3       1 ACO301      0.0000 
     32 CBP       -62.3040   34.6020   -4.5210 C.3       1 ACO301      0.0000 
     33 CCP       -62.6580   36.0360   -4.8860 C.3       1 ACO301      0.0000 
     34 CDP       -61.0210   34.2010   -5.2360 C.3       1 ACO301      0.0000 
     35 CEP       -63.4620   33.7070   -4.9400 C.3       1 ACO301      0.0000 
     36 CAP       -62.1390   34.5200   -3.0030 C.3       1 ACO301      0.0000 
     37 OAP       -63.4450   34.5710   -2.4110 O.3       1 ACO301      0.0000 
     38 C9P       -61.4420   33.2720   -2.5210 C.2       1 ACO301      0.0000 
     39 O9P       -61.5850   32.1780   -3.0460 O.2       1 ACO301      0.0000 
     40 N8P       -60.6840   33.4150   -1.4420 N.am      1 ACO301      0.0000 
     41 C7P       -60.9730   32.5860   -0.2920 C.3       1 ACO301      0.0000 
     42 C6P       -60.1650   32.9650    0.9380 C.3       1 ACO301      0.0000 
     43 C5P       -60.7900   32.2930    2.1360 C.2       1 ACO301      0.0000 
     44 O5P       -61.8430   31.6860    2.0230 O.2       1 ACO301      0.0000 
     45 N4P       -60.1320   32.3960    3.2860 N.am      1 ACO301      0.0000 
@<TRIPOS>BOND
     1    1    2 ar   
     2    1    6 ar   
     3    2    3 ar   
     4    3    4 ar   
     5    4    5 ar   
     6    4   10 1    
     7    5    6 ar   
     8    5    8 1    
     9    6    7 1    
    10    8    9 2    
    11    9   10 1    
    12   10   11 1    
    13   11   12 1    
    14   11   21 1    
    15   12   13 1    
    16   12   14 1    
    17   14   15 1    
    18   14   20 1    
    19   15   16 1    
    20   16   17 ar   
    21   16   18 ar   
    22   16   19 ar   
    23   20   21 1    
    24   20   22 1    
    25   22   23 1    
    26   23   24 1    
    27   24   25 ar   
    28   24   26 ar   
    29   24   27 1    
    30   27   28 1    
    31   28   29 ar   
    32   28   30 ar   
    33   28   31 1    
    34   31   33 1    
    35   32   33 1    
    36   32   34 1    
    37   32   35 1    
    38   32   36 1    
    39   36   37 1    
    40   36   38 1    
    41   38   39 2    
    42   38   40 am   
    43   40   41 1    
    44   41   42 1    
    45   42   43 1    
    46   43   44 2    
    47   43   45 am   
@<TRIPOS>SUBSTRUCTURE
     1 ACO301      1 GROUP   
@<TRIPOS>SET
ATOM$ORANGE STATIC     ATOMS   COLORGROUP SYSTEM 
38 2 2 4 4 5 5 6 6 9 9 11 11 12 12 14 14 20 \
20 22 22 32 32 33 33 34 34 35 35 36 36 38 38 41 41 42 \
42 43 43 

