#    Name: 6u9c_1_ACO
#    Modification time : Fri May 22 19:26:14 2020

@<TRIPOS>MOLECULE
6u9c_1_ACO
   36    38     1     0     1
SMALL
NO_CHARGES


@<TRIPOS>ATOM
      1 N1A       -60.9100   13.8480   -7.4520 N.ar      1 ACO301      0.0000 
      2 C2A       -60.9700   14.0690   -8.7780 C.ar      1 ACO301      0.0000 
      3 N3A       -61.3540   13.1560   -9.6830 N.ar      1 ACO301      0.0000 
      4 C4A       -61.7140   11.9170   -9.2820 C.ar      1 ACO301      0.0000 
      5 C5A       -61.6820   11.5880   -7.8430 C.ar      1 ACO301      0.0000 
      6 C6A       -61.2430   12.6610   -6.9100 C.ar      1 ACO301      0.0000 
      7 N6A       -61.1720   12.4790   -5.5680 N.pl3     1 ACO301      0.0000 
      8 N7A       -62.0860   10.3030   -7.7380 N.2       1 ACO301      0.0000 
      9 C8A       -62.3510    9.8570   -8.9950 C.2       1 ACO301      0.0000 
     10 N9A       -62.1310   10.8200   -9.9140 N.pl3     1 ACO301      0.0000 
     11 C1B       -62.3030   10.6940  -11.3820 C.3       1 ACO301      0.0000 
     12 C2B       -61.0080   10.1910  -12.0020 C.3       1 ACO301      0.0000 
     13 O2B       -60.1490   11.2650  -12.3940 O.3       1 ACO301      0.0000 
     14 C3B       -61.4590    9.3850  -13.2000 C.3       1 ACO301      0.0000 
     15 O3B       -61.5630   10.2250  -14.3420 O.3       1 ACO301      0.0000 
     16 P3B       -61.2320    9.6540  -15.8110 P.3       1 ACO301      0.0000 
     17 O7A       -60.8620    8.2090  -15.5560 O.co2     1 ACO301      0.0000 
     18 O8A       -62.5390    9.7990  -16.5590 O.co2     1 ACO301      0.0000 
     19 O9A       -60.1160   10.5500  -16.3040 O.co2     1 ACO301      0.0000 
     20 C4B       -62.8700    8.9540  -12.8560 C.3       1 ACO301      0.0000 
     21 O4B       -63.2830    9.7030  -11.7050 O.3       1 ACO301      0.0000 
     22 C5B       -62.9610    7.4600  -12.5820 C.3       1 ACO301      0.0000 
     23 O5B       -64.3390    7.1190  -12.6430 O.3       1 ACO301      0.0000 
     24 P1A       -65.0040    6.2610  -11.4590 P.3       1 ACO301      0.0000 
     25 O1A       -66.4240    5.9210  -11.8650 O.co2     1 ACO301      0.0000 
     26 O2A       -64.0290    5.1820  -11.0490 O.co2     1 ACO301      0.0000 
     27 O3A       -65.0430    7.3600  -10.2760 O.3       1 ACO301      0.0000 
     28 P2A       -66.0860    7.2760   -9.0430 P.3       1 ACO301      0.0000 
     29 O4A       -66.4670    5.8260   -8.8280 O.co2     1 ACO301      0.0000 
     30 O5A       -67.1710    8.3120   -9.2450 O.co2     1 ACO301      0.0000 
     31 O6A       -65.1990    7.7640   -7.7840 O.3       1 ACO301      0.0000 
     32 CBP       -66.1600    8.1450   -5.5930 C.3       1 ACO301      0.0000 
     33 CCP       -65.6820    8.7730   -6.8950 C.3       1 ACO301      0.0000 
     34 CDP       -67.3920    7.2880   -5.8510 C.3       1 ACO301      0.0000 
     35 CEP       -66.5000    9.2470   -4.5990 C.3       1 ACO301      0.0000 
     36 CAP       -65.0520    7.2770   -5.0050 C.3       1 ACO301      0.0000 
@<TRIPOS>BOND
     1    1    2 ar   
     2    1    6 ar   
     3    2    3 ar   
     4    3    4 ar   
     5    4    5 ar   
     6    4   10 1    
     7    5    6 ar   
     8    5    8 1    
     9    6    7 1    
    10    8    9 2    
    11    9   10 1    
    12   10   11 1    
    13   11   12 1    
    14   11   21 1    
    15   12   13 1    
    16   12   14 1    
    17   14   15 1    
    18   14   20 1    
    19   15   16 1    
    20   16   17 ar   
    21   16   18 ar   
    22   16   19 ar   
    23   20   21 1    
    24   20   22 1    
    25   22   23 1    
    26   23   24 1    
    27   24   25 ar   
    28   24   26 ar   
    29   24   27 1    
    30   27   28 1    
    31   28   29 ar   
    32   28   30 ar   
    33   28   31 1    
    34   31   33 1    
    35   32   33 1    
    36   32   34 1    
    37   32   35 1    
    38   32   36 1    
@<TRIPOS>SUBSTRUCTURE
     1 ACO301      1 GROUP   
@<TRIPOS>SET
ATOM$ORANGE STATIC     ATOMS   COLORGROUP SYSTEM 
30 2 2 4 4 5 5 6 6 9 9 11 11 12 12 14 14 20 \
20 22 22 32 32 33 33 34 34 35 35 36 36 

