#    Name: 6nf4_2_CLR
#    Modification time : Fri May 22 19:26:29 2020

@<TRIPOS>MOLECULE
6nf4_2_CLR
   28    31     1     0     0
SMALL
NO_CHARGES


@<TRIPOS>ATOM
      1 C1        135.1940  107.2120   98.4930 C.3       1 CLR602      0.0000 
      2 C2        136.0770  107.2380   99.7390 C.3       1 CLR602      0.0000 
      3 C3        136.1340  108.6640  100.2860 C.3       1 CLR602      0.0000 
      4 C4        134.7160  109.0570  100.7090 C.3       1 CLR602      0.0000 
      5 C5        133.7820  108.9370   99.5510 C.2       1 CLR602      0.0000 
      6 C6        132.8300  109.8440   99.4400 C.2       1 CLR602      0.0000 
      7 C7        131.7720  109.7900   98.3970 C.3       1 CLR602      0.0000 
      8 C8        131.5690  108.3570   97.9160 C.3       1 CLR602      0.0000 
      9 C9        132.9290  107.7260   97.5580 C.3       1 CLR602      0.0000 
     10 C10       133.7580  107.6140   98.8440 C.3       1 CLR602      0.0000 
     11 C11       132.7450  106.3510   96.9100 C.3       1 CLR602      0.0000 
     12 C12       131.7870  106.3780   95.7240 C.3       1 CLR602      0.0000 
     13 C13       130.4080  106.9160   96.1450 C.3       1 CLR602      0.0000 
     14 C14       130.6490  108.3520   96.6890 C.3       1 CLR602      0.0000 
     15 C15       129.2380  108.8810   96.8530 C.3       1 CLR602      0.0000 
     16 C16       128.5870  108.4540   95.5340 C.3       1 CLR602      0.0000 
     17 C17       129.3630  107.2140   95.0070 C.3       1 CLR602      0.0000 
     18 C18       129.7520  106.0170   97.2370 C.3       1 CLR602      0.0000 
     19 C19       133.1350  106.5700   99.7850 C.3       1 CLR602      0.0000 
     20 C20       128.4040  106.0320   94.6360 C.3       1 CLR602      0.0000 
     21 C21       129.0940  105.0370   93.7280 C.3       1 CLR602      0.0000 
     22 C22       127.1240  106.5020   93.9430 C.3       1 CLR602      0.0000 
     23 C23       126.0680  105.4040   94.0420 C.3       1 CLR602      0.0000 
     24 C24       125.4520  105.0950   92.6910 C.3       1 CLR602      0.0000 
     25 C25       124.0360  105.6530   92.5700 C.3       1 CLR602      0.0000 
     26 C26       123.4090  105.2080   91.2710 C.3       1 CLR602      0.0000 
     27 C27       123.1690  105.2320   93.7210 C.3       1 CLR602      0.0000 
     28 O1        136.9770  108.6390  101.3900 O.3       1 CLR602      0.0000 
@<TRIPOS>BOND
     1    1    2 1    
     2    1   10 1    
     3    2    3 1    
     4    3    4 1    
     5    3   28 1    
     6    4    5 1    
     7    5    6 2    
     8    5   10 1    
     9    6    7 1    
    10    7    8 1    
    11    8    9 1    
    12    8   14 1    
    13    9   10 1    
    14    9   11 1    
    15   10   19 1    
    16   11   12 1    
    17   12   13 1    
    18   13   14 1    
    19   13   17 1    
    20   13   18 1    
    21   14   15 1    
    22   15   16 1    
    23   16   17 1    
    24   17   20 1    
    25   20   21 1    
    26   20   22 1    
    27   22   23 1    
    28   23   24 1    
    29   24   25 1    
    30   25   26 1    
    31   25   27 1    
@<TRIPOS>SUBSTRUCTURE
     1 CLR602      1 GROUP   
@<TRIPOS>SET

