#    Name: 6nf4_1_Y01_CAVITY_N1_6
#    Modification time : Fri May 22 19:26:22 2020

@<TRIPOS>MOLECULE
6nf4_1_Y01_CAVITY_N1_6
   75     0     7     0     0
SMALL
NO_CHARGES


@<TRIPOS>ATOM
      1 OG        102.2500   96.7200   81.6300 O.3       1 SER1        0.0000 
      2 OG        101.5100   95.4000   84.6300 O.3       1 SER1        0.0000 
      3 OG        101.3800   96.4300   83.5500 O.3       1 SER1        0.0000 
      4 OG        102.4900   97.2200   84.1700 O.3       1 SER1        0.0000 
      5 OG        101.6300   96.9400   86.0800 O.3       1 SER1        0.0000 
      6 N         106.9700   95.2400   85.9000 N.am      2 ALA2        0.0000 
      7 O         106.1100   94.9600   87.8200 O.2       2 ALA2        0.0000 
      8 N         105.9800   95.9900   86.7400 N.am      2 ALA2        0.0000 
      9 N         105.8500   97.0200   85.6600 N.am      2 ALA2        0.0000 
     10 O         105.1100   95.7000   88.6500 O.2       2 ALA2        0.0000 
     11 O         104.1100   96.4500   89.4900 O.2       2 ALA2        0.0000 
     12 OD1       102.3800   95.6800   82.7100 O.co2     3 ASP3        0.0000 
     13 NZ         99.6600   93.2900   87.0000 N.4       4 LYS4        0.0000 
     14 NZ        100.9000   93.0500   88.7000 N.4       4 LYS4        0.0000 
     15 NZ        100.7700   94.0800   87.6200 N.4       4 LYS4        0.0000 
     16 NZ        100.6400   95.1100   86.5400 N.4       4 LYS4        0.0000 
     17 NZ        103.6200   95.4400   84.4100 N.4       4 LYS4        0.0000 
     18 NZ        102.6200   96.1900   85.2500 N.4       4 LYS4        0.0000 
     19 NZ        102.0200   93.8400   89.3200 N.4       4 LYS4        0.0000 
     20 NZ        101.8900   94.8700   88.2400 N.4       4 LYS4        0.0000 
     21 NZ        101.7600   95.9000   87.1600 N.4       4 LYS4        0.0000 
     22 NZ        104.9900   94.1700   87.2000 N.4       4 LYS4        0.0000 
     23 NZ        104.8600   95.2000   86.1200 N.4       4 LYS4        0.0000 
     24 NZ        104.0000   94.9100   88.0300 N.4       4 LYS4        0.0000 
     25 NZ        103.8700   95.9500   86.9500 N.4       4 LYS4        0.0000 
     26 NZ        103.0000   95.6600   88.8700 N.4       4 LYS4        0.0000 
     27 NZ        101.0000   97.1600   90.5400 N.4       4 LYS4        0.0000 
     28 NZ        100.8700   98.1900   89.4600 N.4       4 LYS4        0.0000 
     29 NZ        102.9800   98.2300   89.2400 N.4       4 LYS4        0.0000 
     30 NZ        102.1200   97.9500   91.1600 N.4       4 LYS4        0.0000 
     31 NZ        101.8600  100.0100   89.0000 N.4       4 LYS4        0.0000 
     32 NZ        103.1000   99.7700   90.7000 N.4       4 LYS4        0.0000 
     33 CZ        104.1300   93.8800   89.1100 C.ar      5 PHE5        0.0000 
     34 CZ        103.2600   93.6000   91.0300 C.ar      5 PHE5        0.0000 
     35 CZ        103.1300   94.6300   89.9500 C.ar      5 PHE5        0.0000 
     36 CA         98.6600   94.0400   87.8400 C.3       6 GLY6        0.0000 
     37 CA         99.9100   93.8000   89.5400 C.3       6 GLY6        0.0000 
     38 CA         99.7800   94.8300   88.4600 C.3       6 GLY6        0.0000 
     39 CA         99.6500   95.8600   87.3800 C.3       6 GLY6        0.0000 
     40 CA         98.7800   95.5800   89.2900 C.3       6 GLY6        0.0000 
     41 CA        102.1500   92.8100   90.4000 C.3       6 GLY6        0.0000 
     42 CA        101.1500   93.5500   91.2400 C.3       6 GLY6        0.0000 
     43 CA        100.7600   96.6500   88.0000 C.3       6 GLY6        0.0000 
     44 CA        100.0200   95.3300   90.9900 C.3       6 GLY6        0.0000 
     45 CA         99.8900   96.3700   89.9100 C.3       6 GLY6        0.0000 
     46 CA         99.7600   97.4000   88.8300 C.3       6 GLY6        0.0000 
     47 CA         99.0200   96.0800   91.8300 C.3       6 GLY6        0.0000 
     48 CA        102.7400   97.7300   86.7100 C.3       6 GLY6        0.0000 
     49 CA        102.2600   94.3400   91.8600 C.3       6 GLY6        0.0000 
     50 CA        101.8700   97.4400   88.6200 C.3       6 GLY6        0.0000 
     51 CA        101.7400   98.4700   87.5400 C.3       6 GLY6        0.0000 
     52 CA        101.2600   95.0900   92.7000 C.3       6 GLY6        0.0000 
     53 CA        106.0900   97.5300   88.1900 C.3       6 GLY6        0.0000 
     54 CA        105.9600   98.5600   87.1100 C.3       6 GLY6        0.0000 
     55 CA        104.9600   99.3100   87.9500 C.3       6 GLY6        0.0000 
     56 DU        103.4900   96.4700   83.3300 H         7 CUB7        0.0000 
     57 DU        103.3600   97.5100   82.2500 H         7 CUB7        0.0000 
     58 DU        101.0200   94.5900   90.1600 H         7 CUB7        0.0000 
     59 DU        100.8900   95.6200   89.0800 H         7 CUB7        0.0000 
     60 DU        104.7300   96.2300   85.0400 H         7 CUB7        0.0000 
     61 DU        103.7400   96.9800   85.8700 H         7 CUB7        0.0000 
     62 DU        103.6100   98.0100   84.7900 H         7 CUB7        0.0000 
     63 DU        102.8700   96.6900   87.7900 H         7 CUB7        0.0000 
     64 DU        102.1300   95.3800   90.7800 H         7 CUB7        0.0000 
     65 DU        102.0000   96.4100   89.7000 H         7 CUB7        0.0000 
     66 DU        101.1300   96.1200   91.6200 H         7 CUB7        0.0000 
     67 DU        104.9800   96.7400   87.5700 H         7 CUB7        0.0000 
     68 DU        104.8500   97.7700   86.4900 H         7 CUB7        0.0000 
     69 DU        103.9800   97.4800   88.4100 H         7 CUB7        0.0000 
     70 DU        103.8500   98.5200   87.3300 H         7 CUB7        0.0000 
     71 DU        103.2400   96.1700   91.4000 H         7 CUB7        0.0000 
     72 DU        103.1100   97.2000   90.3200 H         7 CUB7        0.0000 
     73 DU        105.0900   98.2800   89.0300 H         7 CUB7        0.0000 
     74 DU        104.2300   97.9900   90.9400 H         7 CUB7        0.0000 
     75 DU        104.1000   99.0200   89.8600 H         7 CUB7        0.0000 
@<TRIPOS>BOND
@<TRIPOS>SUBSTRUCTURE
     1 SER1        1 GROUP   
     2 ALA2        6 GROUP   
     3 ASP3       12 GROUP   
     4 LYS4       13 GROUP   
     5 PHE5       33 GROUP   
     6 GLY6       36 GROUP   
     7 CUB7       56 GROUP   
@<TRIPOS>SET

