#    Name: 6nf4_1_Y01
#    Modification time : Fri May 22 19:26:21 2020

@<TRIPOS>MOLECULE
6nf4_1_Y01
   35    38     1     0     0
SMALL
NO_CHARGES


@<TRIPOS>ATOM
      1 CAA       113.5790  102.0160   99.7930 C.3       1 Y01601      0.0000 
      2 CBA       113.5360  102.4580   98.3310 C.3       1 Y01601      0.0000 
      3 CAB       114.1920  103.8320   98.1810 C.3       1 Y01601      0.0000 
      4 CAN       112.0720  102.5500   97.9170 C.3       1 Y01601      0.0000 
      5 CAJ       111.7060  101.4320   96.9330 C.3       1 Y01601      0.0000 
      6 CAO       110.6480  100.4960   97.5390 C.3       1 Y01601      0.0000 
      7 CBB       109.2270  100.5920   96.9260 C.3       1 Y01601      0.0000 
      8 CAC       109.0040  101.8750   96.1030 C.3       1 Y01601      0.0000 
      9 CBE       108.8520   99.4050   96.0110 C.3       1 Y01601      0.0000 
     10 CAP       109.8300   98.2050   96.0570 C.3       1 Y01601      0.0000 
     11 CAQ       109.0300   97.0990   95.3170 C.3       1 Y01601      0.0000 
     12 CBG       107.6340   97.7010   95.1100 C.3       1 Y01601      0.0000 
     13 CBI       107.5020   98.7260   96.2810 C.3       1 Y01601      0.0000 
     14 CAE       107.4750   98.0710   97.6690 C.3       1 Y01601      0.0000 
     15 CAU       106.2140   99.5150   96.0790 C.3       1 Y01601      0.0000 
     16 CAS       105.0080   98.5670   95.9260 C.3       1 Y01601      0.0000 
     17 CBF       105.2390   97.5880   94.7750 C.3       1 Y01601      0.0000 
     18 CBD       106.4700   96.7260   95.0820 C.3       1 Y01601      0.0000 
     19 CAK       106.7310   95.7400   93.9350 C.3       1 Y01601      0.0000 
     20 CAI       105.4730   95.0380   93.5160 C.2       1 Y01601      0.0000 
     21 CAZ       104.3180   95.6260   93.5250 C.2       1 Y01601      0.0000 
     22 CAV       103.1540   94.9070   92.8820 C.3       1 Y01601      0.0000 
     23 CBH       104.0050   96.7590   94.4460 C.3       1 Y01601      0.0000 
     24 CAD       103.4240   96.1270   95.7100 C.3       1 Y01601      0.0000 
     25 CAT       102.9480   97.6830   93.8350 C.3       1 Y01601      0.0000 
     26 CAR       101.7920   96.9010   93.2110 C.3       1 Y01601      0.0000 
     27 CBC       102.3330   95.9580   92.1430 C.3       1 Y01601      0.0000 
     28 OAW       101.2320   95.3300   91.4400 O.3       1 Y01601      0.0000 
     29 CAY       101.4050   95.0510   90.1380 C.2       1 Y01601      0.0000 
     30 OAG       102.5070   94.8510   89.6900 O.2       1 Y01601      0.0000 
     31 CAM       100.2260   94.9910   89.2090 C.3       1 Y01601      0.0000 
     32 CAL       100.3900   93.7960   88.2690 C.3       1 Y01601      0.0000 
     33 CAX        99.7890   94.1040   86.9200 C.2       1 Y01601      0.0000 
     34 OAH        99.9550   95.3180   86.3730 O.co2     1 Y01601      0.0000 
     35 OAF        99.1620   93.2580   86.3270 O.co2     1 Y01601      0.0000 
@<TRIPOS>BOND
     1    1    2 1    
     2    2    3 1    
     3    2    4 1    
     4    4    5 1    
     5    5    6 1    
     6    6    7 1    
     7    7    8 1    
     8    7    9 1    
     9    9   10 1    
    10    9   13 1    
    11   10   11 1    
    12   11   12 1    
    13   12   13 1    
    14   12   18 1    
    15   13   14 1    
    16   13   15 1    
    17   15   16 1    
    18   16   17 1    
    19   17   18 1    
    20   17   23 1    
    21   18   19 1    
    22   19   20 1    
    23   20   21 2    
    24   21   22 1    
    25   21   23 1    
    26   22   27 1    
    27   23   24 1    
    28   23   25 1    
    29   25   26 1    
    30   26   27 1    
    31   27   28 1    
    32   28   29 1    
    33   29   30 2    
    34   29   31 1    
    35   31   32 1    
    36   32   33 1    
    37   33   34 ar   
    38   33   35 ar   
@<TRIPOS>SUBSTRUCTURE
     1 Y01601      1 GROUP   
@<TRIPOS>SET

