#    Name: 6nf4_6_CLR
#    Modification time : Fri May 22 19:26:57 2020

@<TRIPOS>MOLECULE
6nf4_6_CLR
   28    31     1     0     0
SMALL
NO_CHARGES


@<TRIPOS>ATOM
      1 C1         70.8060   98.7880   98.4930 C.3       1 CLR602      0.0000 
      2 C2         69.9230   98.7620   99.7390 C.3       1 CLR602      0.0000 
      3 C3         69.8660   97.3360  100.2860 C.3       1 CLR602      0.0000 
      4 C4         71.2840   96.9430  100.7090 C.3       1 CLR602      0.0000 
      5 C5         72.2180   97.0630   99.5510 C.2       1 CLR602      0.0000 
      6 C6         73.1700   96.1560   99.4400 C.2       1 CLR602      0.0000 
      7 C7         74.2280   96.2100   98.3970 C.3       1 CLR602      0.0000 
      8 C8         74.4310   97.6430   97.9160 C.3       1 CLR602      0.0000 
      9 C9         73.0710   98.2740   97.5580 C.3       1 CLR602      0.0000 
     10 C10        72.2420   98.3860   98.8440 C.3       1 CLR602      0.0000 
     11 C11        73.2550   99.6490   96.9100 C.3       1 CLR602      0.0000 
     12 C12        74.2130   99.6220   95.7240 C.3       1 CLR602      0.0000 
     13 C13        75.5920   99.0840   96.1450 C.3       1 CLR602      0.0000 
     14 C14        75.3510   97.6480   96.6890 C.3       1 CLR602      0.0000 
     15 C15        76.7620   97.1190   96.8530 C.3       1 CLR602      0.0000 
     16 C16        77.4130   97.5460   95.5340 C.3       1 CLR602      0.0000 
     17 C17        76.6370   98.7860   95.0070 C.3       1 CLR602      0.0000 
     18 C18        76.2480   99.9830   97.2370 C.3       1 CLR602      0.0000 
     19 C19        72.8650   99.4300   99.7850 C.3       1 CLR602      0.0000 
     20 C20        77.5960   99.9680   94.6360 C.3       1 CLR602      0.0000 
     21 C21        76.9060  100.9630   93.7280 C.3       1 CLR602      0.0000 
     22 C22        78.8760   99.4980   93.9430 C.3       1 CLR602      0.0000 
     23 C23        79.9320  100.5960   94.0420 C.3       1 CLR602      0.0000 
     24 C24        80.5480  100.9050   92.6910 C.3       1 CLR602      0.0000 
     25 C25        81.9640  100.3470   92.5700 C.3       1 CLR602      0.0000 
     26 C26        82.5910  100.7920   91.2710 C.3       1 CLR602      0.0000 
     27 C27        82.8310  100.7680   93.7210 C.3       1 CLR602      0.0000 
     28 O1         69.0230   97.3610  101.3900 O.3       1 CLR602      0.0000 
@<TRIPOS>BOND
     1    1    2 1    
     2    1   10 1    
     3    2    3 1    
     4    3    4 1    
     5    3   28 1    
     6    4    5 1    
     7    5    6 2    
     8    5   10 1    
     9    6    7 1    
    10    7    8 1    
    11    8    9 1    
    12    8   14 1    
    13    9   10 1    
    14    9   11 1    
    15   10   19 1    
    16   11   12 1    
    17   12   13 1    
    18   13   14 1    
    19   13   17 1    
    20   13   18 1    
    21   14   15 1    
    22   15   16 1    
    23   16   17 1    
    24   17   20 1    
    25   20   21 1    
    26   20   22 1    
    27   22   23 1    
    28   23   24 1    
    29   24   25 1    
    30   25   26 1    
    31   25   27 1    
@<TRIPOS>SUBSTRUCTURE
     1 CLR602      1 GROUP   
@<TRIPOS>SET

