#    Name: 6nf4_5_Y01
#    Modification time : Fri May 22 19:26:49 2020

@<TRIPOS>MOLECULE
6nf4_5_Y01
   35    38     1     0     0
SMALL
NO_CHARGES


@<TRIPOS>ATOM
      1 CAA        92.4210  103.9840   99.7930 C.3       1 Y01601      0.0000 
      2 CBA        92.4640  103.5420   98.3310 C.3       1 Y01601      0.0000 
      3 CAB        91.8080  102.1680   98.1810 C.3       1 Y01601      0.0000 
      4 CAN        93.9280  103.4500   97.9170 C.3       1 Y01601      0.0000 
      5 CAJ        94.2940  104.5680   96.9330 C.3       1 Y01601      0.0000 
      6 CAO        95.3520  105.5040   97.5390 C.3       1 Y01601      0.0000 
      7 CBB        96.7730  105.4080   96.9260 C.3       1 Y01601      0.0000 
      8 CAC        96.9960  104.1250   96.1030 C.3       1 Y01601      0.0000 
      9 CBE        97.1480  106.5950   96.0110 C.3       1 Y01601      0.0000 
     10 CAP        96.1700  107.7950   96.0570 C.3       1 Y01601      0.0000 
     11 CAQ        96.9700  108.9010   95.3170 C.3       1 Y01601      0.0000 
     12 CBG        98.3660  108.2990   95.1100 C.3       1 Y01601      0.0000 
     13 CBI        98.4980  107.2740   96.2810 C.3       1 Y01601      0.0000 
     14 CAE        98.5250  107.9290   97.6690 C.3       1 Y01601      0.0000 
     15 CAU        99.7860  106.4850   96.0790 C.3       1 Y01601      0.0000 
     16 CAS       100.9920  107.4330   95.9260 C.3       1 Y01601      0.0000 
     17 CBF       100.7610  108.4120   94.7750 C.3       1 Y01601      0.0000 
     18 CBD        99.5300  109.2740   95.0820 C.3       1 Y01601      0.0000 
     19 CAK        99.2690  110.2600   93.9350 C.3       1 Y01601      0.0000 
     20 CAI       100.5270  110.9620   93.5160 C.2       1 Y01601      0.0000 
     21 CAZ       101.6820  110.3740   93.5250 C.2       1 Y01601      0.0000 
     22 CAV       102.8460  111.0930   92.8820 C.3       1 Y01601      0.0000 
     23 CBH       101.9950  109.2410   94.4460 C.3       1 Y01601      0.0000 
     24 CAD       102.5760  109.8730   95.7100 C.3       1 Y01601      0.0000 
     25 CAT       103.0520  108.3170   93.8350 C.3       1 Y01601      0.0000 
     26 CAR       104.2080  109.0990   93.2110 C.3       1 Y01601      0.0000 
     27 CBC       103.6670  110.0420   92.1430 C.3       1 Y01601      0.0000 
     28 OAW       104.7680  110.6700   91.4400 O.3       1 Y01601      0.0000 
     29 CAY       104.5950  110.9490   90.1380 C.2       1 Y01601      0.0000 
     30 OAG       103.4930  111.1490   89.6900 O.2       1 Y01601      0.0000 
     31 CAM       105.7740  111.0090   89.2090 C.3       1 Y01601      0.0000 
     32 CAL       105.6100  112.2040   88.2690 C.3       1 Y01601      0.0000 
     33 CAX       106.2110  111.8960   86.9200 C.2       1 Y01601      0.0000 
     34 OAH       106.0450  110.6820   86.3730 O.co2     1 Y01601      0.0000 
     35 OAF       106.8380  112.7420   86.3270 O.co2     1 Y01601      0.0000 
@<TRIPOS>BOND
     1    1    2 1    
     2    2    3 1    
     3    2    4 1    
     4    4    5 1    
     5    5    6 1    
     6    6    7 1    
     7    7    8 1    
     8    7    9 1    
     9    9   10 1    
    10    9   13 1    
    11   10   11 1    
    12   11   12 1    
    13   12   13 1    
    14   12   18 1    
    15   13   14 1    
    16   13   15 1    
    17   15   16 1    
    18   16   17 1    
    19   17   18 1    
    20   17   23 1    
    21   18   19 1    
    22   19   20 1    
    23   20   21 2    
    24   21   22 1    
    25   21   23 1    
    26   22   27 1    
    27   23   24 1    
    28   23   25 1    
    29   25   26 1    
    30   26   27 1    
    31   27   28 1    
    32   28   29 1    
    33   29   30 2    
    34   29   31 1    
    35   31   32 1    
    36   32   33 1    
    37   33   34 ar   
    38   33   35 ar   
@<TRIPOS>SUBSTRUCTURE
     1 Y01601      1 GROUP   
@<TRIPOS>SET

