#    Name: 5xhu_1_FAD
#    Modification time : Fri May 22 19:14:30 2020

@<TRIPOS>MOLECULE
5xhu_1_FAD
   53    58     1     0     1
SMALL
NO_CHARGES


@<TRIPOS>ATOM
      1 PA        -37.8070  -21.7750   22.9490 P.3       1 FAD1000     0.0000 
      2 O1A       -38.2370  -20.4600   23.4900 O.co2     1 FAD1000     0.0000 
      3 O2A       -38.7590  -22.5870   22.0740 O.co2     1 FAD1000     0.0000 
      4 O5B       -36.4510  -21.4580   22.2010 O.3       1 FAD1000     0.0000 
      5 C5B       -35.7880  -22.4840   21.5400 C.3       1 FAD1000     0.0000 
      6 C4B       -34.9870  -21.8880   20.4210 C.3       1 FAD1000     0.0000 
      7 O4B       -34.2270  -22.9070   19.7850 O.3       1 FAD1000     0.0000 
      8 C3B       -35.8540  -21.2940   19.3140 C.3       1 FAD1000     0.0000 
      9 O3B       -35.4870  -19.9350   19.1200 O.3       1 FAD1000     0.0000 
     10 C2B       -35.5430  -22.1240   18.0930 C.3       1 FAD1000     0.0000 
     11 O2B       -35.6060  -21.3780   16.8850 O.3       1 FAD1000     0.0000 
     12 C1B       -34.1380  -22.6030   18.4010 C.3       1 FAD1000     0.0000 
     13 N9A       -33.7420  -23.8300   17.7300 N.pl3     1 FAD1000     0.0000 
     14 C8A       -34.4850  -24.9520   17.7640 C.2       1 FAD1000     0.0000 
     15 N7A       -33.8800  -25.9450   17.0760 N.2       1 FAD1000     0.0000 
     16 C5A       -32.7240  -25.4370   16.6420 C.ar      1 FAD1000     0.0000 
     17 C6A       -31.6240  -26.0170   15.8920 C.ar      1 FAD1000     0.0000 
     18 N6A       -31.7760  -27.2930   15.5000 N.pl3     1 FAD1000     0.0000 
     19 N1A       -30.5890  -25.2380   15.5720 N.ar      1 FAD1000     0.0000 
     20 C2A       -30.5400  -23.9520   16.0080 C.ar      1 FAD1000     0.0000 
     21 N3A       -31.5080  -23.3590   16.7470 N.ar      1 FAD1000     0.0000 
     22 C4A       -32.6180  -24.0510   17.0720 C.ar      1 FAD1000     0.0000 
     23 N1        -43.8200  -19.6170   29.9310 N.2       1 FAD1000     0.0000 
     24 C2        -43.8150  -19.1080   31.1870 C.2       1 FAD1000     0.0000 
     25 O2        -43.0290  -19.5610   32.0380 O.2       1 FAD1000     0.0000 
     26 N3        -44.6600  -18.1440   31.5400 N.am      1 FAD1000     0.0000 
     27 C4        -45.5580  -17.5890   30.7030 C.2       1 FAD1000     0.0000 
     28 O4        -46.3420  -16.6840   31.1070 O.2       1 FAD1000     0.0000 
     29 C4X       -45.6120  -18.0650   29.3150 C.2       1 FAD1000     0.0000 
     30 N5        -46.4670  -17.5600   28.3720 N.2       1 FAD1000     0.0000 
     31 C5X       -46.4560  -18.0540   27.1100 C.ar      1 FAD1000     0.0000 
     32 C6        -47.3320  -17.5470   26.1560 C.ar      1 FAD1000     0.0000 
     33 C7        -47.3500  -18.0290   24.8470 C.ar      1 FAD1000     0.0000 
     34 C7M       -48.3350  -17.4390   23.8410 C.3       1 FAD1000     0.0000 
     35 C8        -46.4330  -19.1170   24.4620 C.ar      1 FAD1000     0.0000 
     36 C8M       -46.4250  -19.6580   23.0620 C.3       1 FAD1000     0.0000 
     37 C9        -45.5520  -19.6510   25.4100 C.ar      1 FAD1000     0.0000 
     38 C9A       -45.5290  -19.1670   26.7280 C.ar      1 FAD1000     0.0000 
     39 N10       -44.6300  -19.6660   27.6950 N.pl3     1 FAD1000     0.0000 
     40 C10       -44.6600  -19.1500   28.9910 C.2       1 FAD1000     0.0000 
     41 C1'       -43.6890  -20.7610   27.4330 C.3       1 FAD1000     0.0000 
     42 C2'       -42.3250  -20.2490   27.0900 C.3       1 FAD1000     0.0000 
     43 O2'       -42.4200  -19.5970   25.8480 O.3       1 FAD1000     0.0000 
     44 C3'       -41.3820  -21.4310   26.9730 C.3       1 FAD1000     0.0000 
     45 O3'       -41.4190  -22.1460   28.2090 O.3       1 FAD1000     0.0000 
     46 C4'       -39.9750  -20.9800   26.6810 C.3       1 FAD1000     0.0000 
     47 O4'       -39.9350  -20.2610   25.4360 O.3       1 FAD1000     0.0000 
     48 C5'       -39.0210  -22.1550   26.6190 C.3       1 FAD1000     0.0000 
     49 O5'       -37.7440  -21.6330   26.2920 O.3       1 FAD1000     0.0000 
     50 P         -36.6800  -22.5270   25.5590 P.3       1 FAD1000     0.0000 
     51 O1P       -35.4430  -21.6880   25.4030 O.co2     1 FAD1000     0.0000 
     52 O2P       -36.5850  -23.8770   26.2160 O.co2     1 FAD1000     0.0000 
     53 O3P       -37.4250  -22.8290   24.1390 O.3       1 FAD1000     0.0000 
@<TRIPOS>BOND
     1    1    2 ar   
     2    1    3 ar   
     3    1    4 1    
     4    1   53 1    
     5    4    5 1    
     6    5    6 1    
     7    6    7 1    
     8    6    8 1    
     9    7   12 1    
    10    8    9 1    
    11    8   10 1    
    12   10   11 1    
    13   10   12 1    
    14   12   13 1    
    15   13   14 1    
    16   13   22 1    
    17   14   15 2    
    18   15   16 1    
    19   16   17 ar   
    20   16   22 ar   
    21   17   18 1    
    22   17   19 ar   
    23   19   20 ar   
    24   20   21 ar   
    25   21   22 ar   
    26   23   24 1    
    27   23   40 2    
    28   24   25 2    
    29   24   26 am   
    30   26   27 am   
    31   27   28 2    
    32   27   29 1    
    33   29   30 2    
    34   29   40 1    
    35   30   31 1    
    36   31   32 ar   
    37   31   38 ar   
    38   32   33 ar   
    39   33   34 1    
    40   33   35 ar   
    41   35   36 1    
    42   35   37 ar   
    43   37   38 ar   
    44   38   39 1    
    45   39   40 1    
    46   39   41 1    
    47   41   42 1    
    48   42   43 1    
    49   42   44 1    
    50   44   45 1    
    51   44   46 1    
    52   46   47 1    
    53   46   48 1    
    54   48   49 1    
    55   49   50 1    
    56   50   51 ar   
    57   50   52 ar   
    58   50   53 1    
@<TRIPOS>SUBSTRUCTURE
     1 FAD1000     1 GROUP   
@<TRIPOS>SET
ATOM$ORANGE STATIC     ATOMS   COLORGROUP SYSTEM 
54 5 5 6 6 8 8 10 10 12 12 14 14 16 16 17 17 20 \
20 22 22 24 24 27 27 29 29 31 31 32 32 33 33 34 34 35 \
35 36 36 37 37 38 38 40 40 41 41 42 42 44 44 46 46 48 \
48 

