#    Name: 6ng0_1_B49
#    Modification time : Fri May 22 19:28:59 2020

@<TRIPOS>MOLECULE
6ng0_1_B49
   29    31     1     0     0
SMALL
NO_CHARGES


@<TRIPOS>ATOM
      1 C4        -31.8990  -85.7020  -19.1140 C.3       1 B499000     0.0000 
      2 C5        -30.5730  -83.3220  -28.5270 C.ar      1 B499000     0.0000 
      3 C6        -29.9370  -84.2980  -27.7730 C.ar      1 B499000     0.0000 
      4 C7        -31.9750  -82.7270  -26.6260 C.ar      1 B499000     0.0000 
      5 C13       -33.5170  -83.1560  -21.3560 C.2       1 B499000     0.0000 
      6 C15       -31.5650  -82.5690  -27.9330 C.ar      1 B499000     0.0000 
      7 C17       -31.3340  -83.6990  -25.8530 C.ar      1 B499000     0.0000 
      8 C20       -31.4340  -84.1160  -24.4630 C.2       1 B499000     0.0000 
      9 C21       -30.4240  -85.2180  -24.3040 C.2       1 B499000     0.0000 
     10 C22       -34.1740  -83.4910  -18.8050 C.2       1 B499000     0.0000 
     11 C3        -34.4630  -82.0660  -21.7720 C.3       1 B499000     0.0000 
     12 C12       -32.2860  -83.5830  -23.5450 C.2       1 B499000     0.0000 
     13 C14       -32.4340  -84.7530  -20.1380 C.2       1 B499000     0.0000 
     14 C16       -30.3250  -84.4850  -26.4470 C.ar      1 B499000     0.0000 
     15 C18       -32.5700  -83.7990  -22.1770 C.2       1 B499000     0.0000 
     16 C19       -33.4200  -83.7720  -20.0670 C.2       1 B499000     0.0000 
     17 N23       -31.9360  -84.7520  -21.4140 N.pl3     1 B499000     0.0000 
     18 N24       -29.8180  -85.3700  -25.5050 N.am      1 B499000     0.0000 
     19 N25       -34.5810  -82.2420  -18.5690 N.am      1 B499000     0.0000 
     20 O27       -30.2000  -85.8920  -23.2920 O.2       1 B499000     0.0000 
     21 O28       -34.3550  -84.3850  -17.9750 O.2       1 B499000     0.0000 
     22 F29       -32.1570  -81.5900  -28.6640 F         1 B499000     0.0000 
     23 C37       -35.0490  -81.8210  -17.2520 C.3       1 B499000     0.0000 
     24 C38       -36.4540  -81.2210  -17.2810 C.3       1 B499000     0.0000 
     25 N4        -37.5520  -82.2020  -17.4060 N.4       1 B499000     0.0000 
     26 C39       -38.8570  -81.5050  -17.2820 C.3       1 B499000     0.0000 
     27 C40       -37.5360  -83.3190  -16.4260 C.3       1 B499000     0.0000 
     28 C41       -37.6550  -84.6970  -17.0390 C.3       1 B499000     0.0000 
     29 C42       -39.4620  -81.0170  -18.5840 C.3       1 B499000     0.0000 
@<TRIPOS>BOND
     1    1   13 1    
     2    2    3 ar   
     3    2    6 ar   
     4    3   14 ar   
     5    4    6 ar   
     6    4    7 ar   
     7    5   11 1    
     8    5   15 2    
     9    5   16 1    
    10    6   22 1    
    11    7    8 1    
    12    7   14 ar   
    13    8    9 1    
    14    8   12 2    
    15    9   18 am   
    16    9   20 2    
    17   10   16 1    
    18   10   19 am   
    19   10   21 2    
    20   12   15 1    
    21   13   16 2    
    22   13   17 1    
    23   14   18 1    
    24   15   17 1    
    25   19   23 1    
    26   23   24 1    
    27   24   25 1    
    28   25   26 1    
    29   25   27 1    
    30   26   29 1    
    31   27   28 1    
@<TRIPOS>SUBSTRUCTURE
     1 B499000     1 GROUP   
@<TRIPOS>SET

