#    Name: 6qsk_1_5GP
#    Modification time : Fri May 22 19:26:52 2020

@<TRIPOS>MOLECULE
6qsk_1_5GP
   38    40     1     0     0
SMALL
NO_CHARGES


@<TRIPOS>ATOM
      1 P         -42.5440 -102.1500   57.5680 P.3       1 5GP401      0.0000 
      2 O1P       -41.2760 -101.5470   57.7050 O.co2     1 5GP401      0.0000 
      3 O2P       -42.7130 -102.9140   56.2820 O.co2     1 5GP401      0.0000 
      4 O3P       -43.6670 -101.1880   57.7380 O.co2     1 5GP401      0.0000 
      5 O5'       -42.6970 -103.1360   58.7540 O.3       1 5GP401      0.0000 
      6 C5'       -42.9890 -102.4990   60.0070 C.3       1 5GP401      0.0000 
      7 C4'       -41.7860 -101.6740   60.3560 C.3       1 5GP401      0.0000 
      8 O4'       -42.0550 -100.8540   61.5000 O.3       1 5GP401      0.0000 
      9 C3'       -40.5520 -102.4500   60.7750 C.3       1 5GP401      0.0000 
     10 O3'       -39.8510 -102.9790   59.6560 O.3       1 5GP401      0.0000 
     11 C2'       -39.7480 -101.3910   61.5370 C.3       1 5GP401      0.0000 
     12 O2'       -38.7310 -100.8460   60.7150 O.3       1 5GP401      0.0000 
     13 C1'       -40.8010 -100.3190   61.8590 C.3       1 5GP401      0.0000 
     14 N9        -40.8460  -99.9380   63.2660 N.pl3     1 5GP401      0.0000 
     15 C8        -41.7690  -99.1350   63.8610 C.2       1 5GP401      0.0000 
     16 N7        -41.5010  -98.8820   65.1100 N.2       1 5GP401      0.0000 
     17 C5        -40.3390  -99.5820   65.3570 C.2       1 5GP401      0.0000 
     18 C6        -39.6040  -99.7440   66.5530 C.2       1 5GP401      0.0000 
     19 O6        -39.8440  -99.2160   67.6310 O.2       1 5GP401      0.0000 
     20 N1        -38.5360 -100.6070   66.4050 N.am      1 5GP401      0.0000 
     21 C2        -38.2160 -101.2400   65.2380 C.2       1 5GP401      0.0000 
     22 N2        -37.2300 -102.1270   65.2840 N.pl3     1 5GP401      0.0000 
     23 N3        -38.8840 -101.0630   64.1030 N.2       1 5GP401      0.0000 
     24 C4        -39.9300 -100.2380   64.2360 C.2       1 5GP401      0.0000 
     25 HOP2      -42.0160 -103.0970   55.5990 H         1 5GP401      0.0000 
     26 HOP3      -44.4660 -101.2070   57.1490 H         1 5GP401      0.0000 
     27 H5'1      -43.1730 -103.2440   60.7810 H         1 5GP401      0.0000 
     28 H5'2      -43.8900 -101.9070   59.8550 H         1 5GP401      0.0000 
     29 H4'       -41.5500 -100.9760   59.5550 H         1 5GP401      0.0000 
     30 H3'       -40.8090 -103.2890   61.4200 H         1 5GP401      0.0000 
     31 HO3'      -38.9300 -102.6080   59.6580 H         1 5GP401      0.0000 
     32 H2'       -39.3110 -101.8240   62.4350 H         1 5GP401      0.0000 
     33 HO2'      -37.9270 -100.7860   61.2960 H         1 5GP401      0.0000 
     34 H1'       -40.6280  -99.4040   61.2940 H         1 5GP401      0.0000 
     35 H8        -42.6430  -98.7440   63.3420 H         1 5GP401      0.0000 
     36 HN1       -37.9760 -100.7580   67.2380 H         1 5GP401      0.0000 
     37 HN21      -36.9530 -102.6250   64.4450 H         1 5GP401      0.0000 
     38 HN22      -36.7210 -102.3460   66.1350 H         1 5GP401      0.0000 
@<TRIPOS>BOND
     1    1    2 ar   
     2    1    3 ar   
     3    1    4 ar   
     4    1    5 1    
     5    3   25 1    
     6    4   26 1    
     7    5    6 1    
     8    6    7 1    
     9    6   27 1    
    10    6   28 1    
    11    7    8 1    
    12    7    9 1    
    13    7   29 1    
    14    8   13 1    
    15    9   10 1    
    16    9   11 1    
    17    9   30 1    
    18   10   31 1    
    19   11   12 1    
    20   11   13 1    
    21   11   32 1    
    22   12   33 1    
    23   13   14 1    
    24   13   34 1    
    25   14   15 1    
    26   14   24 1    
    27   15   16 2    
    28   15   35 1    
    29   16   17 1    
    30   17   18 1    
    31   17   24 2    
    32   18   19 2    
    33   18   20 am   
    34   20   21 1    
    35   20   36 1    
    36   21   22 1    
    37   21   23 2    
    38   22   37 1    
    39   22   38 1    
    40   23   24 1    
@<TRIPOS>SUBSTRUCTURE
     1 5GP401      1 GROUP   
@<TRIPOS>SET

