#    Name: 6qsk_2_5GP
#    Modification time : Fri May 22 19:26:59 2020

@<TRIPOS>MOLECULE
6qsk_2_5GP
   38    40     1     0     0
SMALL
NO_CHARGES


@<TRIPOS>ATOM
      1 P         -45.8710 -106.3800  146.9030 P.3       1 5GP401      0.0000 
      2 O1P       -45.5900 -104.9770  146.8570 O.co2     1 5GP401      0.0000 
      3 O2P       -44.9770 -107.1950  146.0340 O.co2     1 5GP401      0.0000 
      4 O3P       -47.2490 -106.6560  146.4870 O.co2     1 5GP401      0.0000 
      5 O5'       -45.7580 -107.0160  148.3240 O.3       1 5GP401      0.0000 
      6 C5'       -46.9530 -107.5050  148.9610 C.3       1 5GP401      0.0000 
      7 C4'       -47.3190 -106.5640  150.0740 C.3       1 5GP401      0.0000 
      8 O4'       -47.8600 -107.2950  151.2020 O.3       1 5GP401      0.0000 
      9 C3'       -46.1320 -105.8010  150.6330 C.3       1 5GP401      0.0000 
     10 O3'       -46.5860 -104.5890  151.2130 O.3       1 5GP401      0.0000 
     11 C2'       -45.6910 -106.7060  151.7610 C.3       1 5GP401      0.0000 
     12 O2'       -44.8240 -105.9650  152.6080 O.3       1 5GP401      0.0000 
     13 C1'       -47.0690 -106.9960  152.3340 C.3       1 5GP401      0.0000 
     14 N9        -47.1540 -108.1030  153.3040 N.pl3     1 5GP401      0.0000 
     15 C8        -46.2470 -109.0990  153.4960 C.2       1 5GP401      0.0000 
     16 N7        -46.5420 -109.8720  154.5090 N.2       1 5GP401      0.0000 
     17 C5        -47.7240 -109.3600  155.0040 C.2       1 5GP401      0.0000 
     18 C6        -48.5120 -109.7700  156.1010 C.2       1 5GP401      0.0000 
     19 O6        -48.3070 -110.7350  156.8230 O.2       1 5GP401      0.0000 
     20 N1        -49.6140 -108.9640  156.2990 N.am      1 5GP401      0.0000 
     21 C2        -49.9350 -107.8900  155.5180 C.2       1 5GP401      0.0000 
     22 N2        -51.0250 -107.1990  155.8540 N.pl3     1 5GP401      0.0000 
     23 N3        -49.2080 -107.5080  154.4690 N.2       1 5GP401      0.0000 
     24 C4        -48.1170 -108.2790  154.2770 C.2       1 5GP401      0.0000 
     25 HOP2      -44.6440 -106.9590  145.1290 H         1 5GP401      0.0000 
     26 HOP3      -47.6180 -106.3080  145.6340 H         1 5GP401      0.0000 
     27 H5'1      -46.7810 -108.5030  149.3610 H         1 5GP401      0.0000 
     28 H5'2      -47.7130 -107.5620  148.1830 H         1 5GP401      0.0000 
     29 H4'       -48.0980 -105.8850  149.7320 H         1 5GP401      0.0000 
     30 H3'       -45.3510 -105.5950  149.9030 H         1 5GP401      0.0000 
     31 HO3'      -46.2820 -103.8350  150.6430 H         1 5GP401      0.0000 
     32 H2'       -45.1940 -107.5950  151.3740 H         1 5GP401      0.0000 
     33 HO2'      -44.9970 -106.3050  153.5250 H         1 5GP401      0.0000 
     34 H1'       -47.4840 -106.1210  152.8330 H         1 5GP401      0.0000 
     35 H8        -45.3670 -109.2510  152.8730 H         1 5GP401      0.0000 
     36 HN1       -50.2030 -109.2140  157.0870 H         1 5GP401      0.0000 
     37 HN21      -51.5770 -107.4760  156.6600 H         1 5GP401      0.0000 
     38 HN22      -51.3470 -106.3870  155.3370 H         1 5GP401      0.0000 
@<TRIPOS>BOND
     1    1    2 ar   
     2    1    3 ar   
     3    1    4 ar   
     4    1    5 1    
     5    3   25 1    
     6    4   26 1    
     7    5    6 1    
     8    6    7 1    
     9    6   27 1    
    10    6   28 1    
    11    7    8 1    
    12    7    9 1    
    13    7   29 1    
    14    8   13 1    
    15    9   10 1    
    16    9   11 1    
    17    9   30 1    
    18   10   31 1    
    19   11   12 1    
    20   11   13 1    
    21   11   32 1    
    22   12   33 1    
    23   13   14 1    
    24   13   34 1    
    25   14   15 1    
    26   14   24 1    
    27   15   16 2    
    28   15   35 1    
    29   16   17 1    
    30   17   18 1    
    31   17   24 2    
    32   18   19 2    
    33   18   20 am   
    34   20   21 1    
    35   20   36 1    
    36   21   22 1    
    37   21   23 2    
    38   22   37 1    
    39   22   38 1    
    40   23   24 1    
@<TRIPOS>SUBSTRUCTURE
     1 5GP401      1 GROUP   
@<TRIPOS>SET

