#    Name: 6qsk_3_5GP
#    Modification time : Fri May 22 19:27:06 2020

@<TRIPOS>MOLECULE
6qsk_3_5GP
   38    40     1     0     0
SMALL
NO_CHARGES


@<TRIPOS>ATOM
      1 P         -21.2220  -51.4660   76.5330 P.3       1 5GP401      0.0000 
      2 O1P       -21.0370  -51.5360   75.1270 O.co2     1 5GP401      0.0000 
      3 O2P       -19.9440  -51.3980   77.2820 O.co2     1 5GP401      0.0000 
      4 O3P       -21.9240  -52.6970   77.0170 O.co2     1 5GP401      0.0000 
      5 O5'       -22.0040  -50.1670   77.0490 O.3       1 5GP401      0.0000 
      6 C5'       -22.8450  -49.2640   76.3000 C.3       1 5GP401      0.0000 
      7 C4'       -24.0780  -48.9910   77.1240 C.3       1 5GP401      0.0000 
      8 O4'       -23.6950  -48.7700   78.4960 O.3       1 5GP401      0.0000 
      9 C3'       -24.9300  -47.7830   76.7220 C.3       1 5GP401      0.0000 
     10 O3'       -26.2960  -48.1610   76.6260 O.3       1 5GP401      0.0000 
     11 C2'       -24.7130  -46.7860   77.8700 C.3       1 5GP401      0.0000 
     12 O2'       -25.8760  -45.9950   78.0730 O.3       1 5GP401      0.0000 
     13 C1'       -24.4930  -47.7400   79.0290 C.3       1 5GP401      0.0000 
     14 N9        -23.8160  -47.2120   80.2250 N.pl3     1 5GP401      0.0000 
     15 C8        -23.0320  -47.9700   81.0460 C.2       1 5GP401      0.0000 
     16 N7        -22.7490  -47.3850   82.1770 N.2       1 5GP401      0.0000 
     17 C5        -23.3670  -46.1520   82.0860 C.2       1 5GP401      0.0000 
     18 C6        -23.3840  -45.0400   83.0010 C.2       1 5GP401      0.0000 
     19 O6        -23.0430  -45.0340   84.1750 O.2       1 5GP401      0.0000 
     20 N1        -23.9390  -43.9180   82.4340 N.am      1 5GP401      0.0000 
     21 C2        -24.4590  -43.8640   81.1710 C.2       1 5GP401      0.0000 
     22 N2        -24.7540  -42.6580   80.7020 N.pl3     1 5GP401      0.0000 
     23 N3        -24.5580  -44.9220   80.3650 N.2       1 5GP401      0.0000 
     24 C4        -23.9870  -46.0160   80.8730 C.2       1 5GP401      0.0000 
     25 HOP2      -19.5230  -52.1240   77.8130 H         1 5GP401      0.0000 
     26 HOP3      -22.2260  -53.4070   76.3920 H         1 5GP401      0.0000 
     27 H5'1      -23.1260  -49.7120   75.3480 H         1 5GP401      0.0000 
     28 H5'2      -22.2490  -48.3720   76.1120 H         1 5GP401      0.0000 
     29 H4'       -24.6890  -49.8920   77.1270 H         1 5GP401      0.0000 
     30 H3'       -24.6290  -47.3680   75.7610 H         1 5GP401      0.0000 
     31 HO3'      -26.4390  -48.6030   75.7480 H         1 5GP401      0.0000 
     32 H2'       -23.8480  -46.1550   77.6740 H         1 5GP401      0.0000 
     33 HO2'      -25.9540  -45.4290   77.2620 H         1 5GP401      0.0000 
     34 H1'       -25.4340  -48.1660   79.3750 H         1 5GP401      0.0000 
     35 H8        -22.6790  -48.9650   80.7800 H         1 5GP401      0.0000 
     36 HN1       -23.9460  -43.0900   83.0220 H         1 5GP401      0.0000 
     37 HN21      -25.1430  -42.5550   79.7700 H         1 5GP401      0.0000 
     38 HN22      -24.6090  -41.8060   81.2340 H         1 5GP401      0.0000 
@<TRIPOS>BOND
     1    1    2 ar   
     2    1    3 ar   
     3    1    4 ar   
     4    1    5 1    
     5    3   25 1    
     6    4   26 1    
     7    5    6 1    
     8    6    7 1    
     9    6   27 1    
    10    6   28 1    
    11    7    8 1    
    12    7    9 1    
    13    7   29 1    
    14    8   13 1    
    15    9   10 1    
    16    9   11 1    
    17    9   30 1    
    18   10   31 1    
    19   11   12 1    
    20   11   13 1    
    21   11   32 1    
    22   12   33 1    
    23   13   14 1    
    24   13   34 1    
    25   14   15 1    
    26   14   24 1    
    27   15   16 2    
    28   15   35 1    
    29   16   17 1    
    30   17   18 1    
    31   17   24 2    
    32   18   19 2    
    33   18   20 am   
    34   20   21 1    
    35   20   36 1    
    36   21   22 1    
    37   21   23 2    
    38   22   37 1    
    39   22   38 1    
    40   23   24 1    
@<TRIPOS>SUBSTRUCTURE
     1 5GP401      1 GROUP   
@<TRIPOS>SET

