#    Name: 6fph_1_FAD
#    Modification time : Fri May 22 19:29:33 2020

@<TRIPOS>MOLECULE
6fph_1_FAD
   84    89     1     0     1
SMALL
NO_CHARGES


@<TRIPOS>ATOM
      1 PA        -32.7260   -2.2980  -75.9180 P.3       1 FAD501      0.0000 
      2 O1A       -32.0420   -1.0920  -75.3900 O.co2     1 FAD501      0.0000 
      3 O2A       -31.9960   -3.0470  -77.0320 O.co2     1 FAD501      0.0000 
      4 O5B       -33.0580   -3.2820  -74.7510 O.3       1 FAD501      0.0000 
      5 C5B       -33.4510   -4.6450  -75.0110 C.3       1 FAD501      0.0000 
      6 C4B       -33.0750   -5.4630  -73.8070 C.3       1 FAD501      0.0000 
      7 O4B       -33.7480   -6.7420  -73.8600 O.3       1 FAD501      0.0000 
      8 C3B       -31.5810   -5.7630  -73.6830 C.3       1 FAD501      0.0000 
      9 O3B       -31.1670   -5.5690  -72.3350 O.3       1 FAD501      0.0000 
     10 C2B       -31.4800   -7.2230  -74.1340 C.3       1 FAD501      0.0000 
     11 O2B       -30.3910   -7.9060  -73.5260 O.3       1 FAD501      0.0000 
     12 C1B       -32.8110   -7.7690  -73.6290 C.3       1 FAD501      0.0000 
     13 N9A       -33.2830   -8.9700  -74.3080 N.pl3     1 FAD501      0.0000 
     14 C8A       -33.2170   -9.2590  -75.6460 C.2       1 FAD501      0.0000 
     15 N7A       -33.7470  -10.4170  -75.9660 N.2       1 FAD501      0.0000 
     16 C5A       -34.1970  -10.9190  -74.7540 C.ar      1 FAD501      0.0000 
     17 C6A       -34.8550  -12.1130  -74.4040 C.ar      1 FAD501      0.0000 
     18 N6A       -35.1890  -13.0640  -75.2810 N.pl3     1 FAD501      0.0000 
     19 N1A       -35.1610  -12.3020  -73.1010 N.ar      1 FAD501      0.0000 
     20 C2A       -34.8340  -11.3580  -72.2140 C.ar      1 FAD501      0.0000 
     21 N3A       -34.2120  -10.1980  -72.4300 N.ar      1 FAD501      0.0000 
     22 C4A       -33.9200  -10.0360  -73.7250 C.ar      1 FAD501      0.0000 
     23 N1        -30.9480    6.0570  -80.1030 N.2       1 FAD501      0.0000 
     24 C2        -30.9000    7.3430  -79.6440 C.2       1 FAD501      0.0000 
     25 O2        -31.8490    7.8560  -79.0400 O.2       1 FAD501      0.0000 
     26 N3        -29.7690    8.1060  -79.8600 N.am      1 FAD501      0.0000 
     27 C4        -28.6350    7.6970  -80.5280 C.2       1 FAD501      0.0000 
     28 O4        -27.6860    8.4670  -80.6590 O.2       1 FAD501      0.0000 
     29 C4X       -28.6960    6.3300  -81.0120 C.2       1 FAD501      0.0000 
     30 N5        -27.6610    5.8600  -81.6550 N.2       1 FAD501      0.0000 
     31 C5X       -27.7230    4.5520  -82.1230 C.ar      1 FAD501      0.0000 
     32 C6        -26.6240    4.0340  -82.8130 C.ar      1 FAD501      0.0000 
     33 C7        -26.6340    2.7290  -83.2990 C.ar      1 FAD501      0.0000 
     34 C7M       -25.4270    2.2100  -84.0380 C.3       1 FAD501      0.0000 
     35 C8        -27.7650    1.9200  -83.0930 C.ar      1 FAD501      0.0000 
     36 C8M       -27.8150    0.5020  -83.6050 C.3       1 FAD501      0.0000 
     37 C9        -28.8620    2.4360  -82.4090 C.ar      1 FAD501      0.0000 
     38 C9A       -28.8510    3.7390  -81.9220 C.ar      1 FAD501      0.0000 
     39 N10       -29.9470    4.2880  -81.2200 N.pl3     1 FAD501      0.0000 
     40 C10       -29.9010    5.5870  -80.7530 C.2       1 FAD501      0.0000 
     41 C1'       -31.1620    3.4850  -80.9620 C.3       1 FAD501      0.0000 
     42 C2'       -31.1980    2.9010  -79.5530 C.3       1 FAD501      0.0000 
     43 O2'       -29.9800    2.2180  -79.2550 O.3       1 FAD501      0.0000 
     44 C3'       -32.3540    1.9070  -79.4270 C.3       1 FAD501      0.0000 
     45 O3'       -33.4840    2.4040  -80.1340 O.3       1 FAD501      0.0000 
     46 C4'       -32.7620    1.6660  -77.9720 C.3       1 FAD501      0.0000 
     47 O4'       -31.6790    1.0570  -77.2650 O.3       1 FAD501      0.0000 
     48 C5'       -34.0030    0.8070  -77.8510 C.3       1 FAD501      0.0000 
     49 O5'       -34.2610    0.5510  -76.4540 O.3       1 FAD501      0.0000 
     50 P         -35.0720   -0.7160  -75.9910 P.3       1 FAD501      0.0000 
     51 O1P       -36.3790   -0.7840  -76.7880 O.co2     1 FAD501      0.0000 
     52 O2P       -35.2090   -0.7440  -74.5120 O.co2     1 FAD501      0.0000 
     53 O3P       -34.1610   -1.9150  -76.4750 O.3       1 FAD501      0.0000 
     54 H51A      -33.0040   -4.9680  -75.7710 H         1 FAD501      0.0000 
     55 H52A      -34.3790   -4.6890  -75.1520 H         1 FAD501      0.0000 
     56 H4B       -33.3560   -5.0290  -73.0230 H         1 FAD501      0.0000 
     57 H3B       -31.0780   -5.2310  -74.2720 H         1 FAD501      0.0000 
     58 HO3A      -31.5870   -6.0880  -71.8390 H         1 FAD501      0.0000 
     59 H2B       -31.4230   -7.2820  -75.0690 H         1 FAD501      0.0000 
     60 HO2A      -30.5650   -8.0480  -72.7240 H         1 FAD501      0.0000 
     61 H1B       -32.7400   -7.9500  -72.7100 H         1 FAD501      0.0000 
     62 H8A       -32.8310   -8.6880  -76.2680 H         1 FAD501      0.0000 
     63 H61A      -35.0180  -12.9560  -76.1250 H         1 FAD501      0.0000 
     64 H62A      -35.5770  -13.7910  -75.0060 H         1 FAD501      0.0000 
     65 H2A       -35.0660  -11.5350  -71.3320 H         1 FAD501      0.0000 
     66 HN3       -29.7750    8.9180  -79.5520 H         1 FAD501      0.0000 
     67 H6        -25.9550    4.6760  -82.8720 H         1 FAD501      0.0000 
     68 HM71      -25.4880    1.2760  -84.1190 H         1 FAD501      0.0000 
     69 HM72      -24.6490    2.4330  -83.5630 H         1 FAD501      0.0000 
     70 HM73      -25.3930    2.5960  -84.8930 H         1 FAD501      0.0000 
     71 HM81      -28.6060    0.0900  -83.3120 H         1 FAD501      0.0000 
     72 HM82      -27.0740    0.0250  -83.2790 H         1 FAD501      0.0000 
     73 HM83      -27.7940    0.5070  -84.5440 H         1 FAD501      0.0000 
     74 H9        -29.3130    1.6750  -82.1250 H         1 FAD501      0.0000 
     75 H1'1      -31.1920    2.7780  -81.5800 H         1 FAD501      0.0000 
     76 H1'2      -31.9160    4.0330  -81.0790 H         1 FAD501      0.0000 
     77 H2'       -31.3230    3.6080  -78.9470 H         1 FAD501      0.0000 
     78 HO2'      -30.0210    1.4390  -79.5460 H         1 FAD501      0.0000 
     79 H3'       -32.1010    1.0950  -79.8250 H         1 FAD501      0.0000 
     80 HO3'      -33.9740    1.7690  -80.3540 H         1 FAD501      0.0000 
     81 H4'       -32.9360    2.5010  -77.5800 H         1 FAD501      0.0000 
     82 HO4'      -31.9530    0.3800  -76.8660 H         1 FAD501      0.0000 
     83 H5'1      -33.8680   -0.0070  -78.3000 H         1 FAD501      0.0000 
     84 H5'2      -34.7350    1.2560  -78.2300 H         1 FAD501      0.0000 
@<TRIPOS>BOND
     1    1    2 ar   
     2    1    3 ar   
     3    1    4 1    
     4    1   53 1    
     5    4    5 1    
     6    5    6 1    
     7    6    7 1    
     8    5   54 1    
     9    5   55 1    
    10    6    8 1    
    11    7   12 1    
    12    6   56 1    
    13    8    9 1    
    14    8   10 1    
    15   10   11 1    
    16    8   57 1    
    17    9   58 1    
    18   10   12 1    
    19   12   13 1    
    20   10   59 1    
    21   11   60 1    
    22   13   14 1    
    23   12   61 1    
    24   13   22 1    
    25   14   15 2    
    26   15   16 1    
    27   14   62 1    
    28   16   17 ar   
    29   16   22 ar   
    30   17   18 1    
    31   17   19 ar   
    32   19   20 ar   
    33   18   63 1    
    34   18   64 1    
    35   20   21 ar   
    36   21   22 ar   
    37   20   65 1    
    38   23   24 1    
    39   23   40 2    
    40   24   25 2    
    41   24   26 am   
    42   26   27 am   
    43   27   28 2    
    44   26   66 1    
    45   27   29 1    
    46   29   30 2    
    47   29   40 1    
    48   30   31 1    
    49   31   32 ar   
    50   31   38 ar   
    51   32   33 ar   
    52   33   34 1    
    53   32   67 1    
    54   33   35 ar   
    55   35   36 1    
    56   34   68 1    
    57   34   69 1    
    58   34   70 1    
    59   35   37 ar   
    60   37   74 1    
    61   37   38 ar   
    62   36   71 1    
    63   36   72 1    
    64   36   73 1    
    65   38   39 1    
    66   39   40 1    
    67   39   41 1    
    68   41   42 1    
    69   42   43 1    
    70   41   75 1    
    71   41   76 1    
    72   42   44 1    
    73   44   45 1    
    74   42   77 1    
    75   43   78 1    
    76   44   46 1    
    77   46   47 1    
    78   44   79 1    
    79   45   80 1    
    80   46   48 1    
    81   48   49 1    
    82   46   81 1    
    83   47   82 1    
    84   49   50 1    
    85   48   83 1    
    86   48   84 1    
    87   50   51 ar   
    88   50   52 ar   
    89   50   53 1    
@<TRIPOS>SUBSTRUCTURE
     1 FAD501      1 GROUP   
@<TRIPOS>SET
ATOM$ORANGE STATIC     ATOMS   COLORGROUP SYSTEM 
54 5 5 6 6 8 8 10 10 12 12 14 14 16 16 17 17 20 \
20 22 22 24 24 27 27 29 29 31 31 32 32 33 33 34 34 35 \
35 36 36 37 37 38 38 40 40 41 41 42 42 44 44 46 46 48 \
48 

