#    Name: 6aj6_1_NAP
#    Modification time : Fri May 22 19:27:53 2020

@<TRIPOS>MOLECULE
6aj6_1_NAP
   48    52     1     0     1
SMALL
NO_CHARGES


@<TRIPOS>ATOM
      1 PA         37.8920   -9.9400   14.8070 P.3       1 NAP501      0.0000 
      2 O1A        36.4890   -9.5540   14.3910 O.co2     1 NAP501      0.0000 
      3 O2A        38.8940   -8.8370   14.9600 O.co2     1 NAP501      0.0000 
      4 O5B        38.4490  -11.0220   13.7510 O.3       1 NAP501      0.0000 
      5 C5B        37.9730  -12.3700   13.7920 C.3       1 NAP501      0.0000 
      6 C4B        37.6890  -12.8460   12.3780 C.3       1 NAP501      0.0000 
      7 O4B        36.6680  -12.0460   11.7990 O.3       1 NAP501      0.0000 
      8 C3B        38.8980  -12.7350   11.4660 C.3       1 NAP501      0.0000 
      9 O3B        39.5360  -14.0100   11.3690 O.3       1 NAP501      0.0000 
     10 C2B        38.3360  -12.2450   10.1500 C.3       1 NAP501      0.0000 
     11 O2B        38.0400  -13.2960    9.2600 O.3       1 NAP501      0.0000 
     12 C1B        36.9770  -11.6820   10.4500 C.3       1 NAP501      0.0000 
     13 N9A        37.0060  -10.2290   10.2110 N.pl3     1 NAP501      0.0000 
     14 C8A        37.1640   -9.2480   11.1200 C.2       1 NAP501      0.0000 
     15 N7A        37.1320   -8.0240   10.5420 N.2       1 NAP501      0.0000 
     16 C5A        36.9490   -8.2300    9.2380 C.ar      1 NAP501      0.0000 
     17 C6A        36.8170   -7.3530    8.0740 C.ar      1 NAP501      0.0000 
     18 N6A        36.8900   -6.0120    8.2400 N.pl3     1 NAP501      0.0000 
     19 N1A        36.6370   -7.9550    6.8740 N.ar      1 NAP501      0.0000 
     20 C2A        36.5650   -9.3070    6.7470 C.ar      1 NAP501      0.0000 
     21 N3A        36.6690  -10.1730    7.7770 N.ar      1 NAP501      0.0000 
     22 C4A        36.8600   -9.6840    9.0190 C.ar      1 NAP501      0.0000 
     23 O3         37.8920  -10.7320   16.2140 O.3       1 NAP501      0.0000 
     24 PN         39.2730  -11.3150   16.8280 P.3       1 NAP501      0.0000 
     25 O1N        38.8860  -12.5530   17.6180 O.co2     1 NAP501      0.0000 
     26 O2N        40.3490  -11.3590   15.7560 O.co2     1 NAP501      0.0000 
     27 O5D        39.7460  -10.1880   17.8900 O.3       1 NAP501      0.0000 
     28 C5D        40.9410   -9.4210   17.6790 C.3       1 NAP501      0.0000 
     29 C4D        41.1370   -8.3820   18.7840 C.3       1 NAP501      0.0000 
     30 O4D        40.0380   -7.4600   18.9000 O.3       1 NAP501      0.0000 
     31 C3D        41.2390   -9.0670   20.1350 C.3       1 NAP501      0.0000 
     32 O3D        42.3600   -8.5070   20.8180 O.3       1 NAP501      0.0000 
     33 C2D        39.9270   -8.7600   20.8410 C.3       1 NAP501      0.0000 
     34 O2D        40.0350   -8.7840   22.2750 O.3       1 NAP501      0.0000 
     35 C1D        39.6070   -7.3840   20.2790 C.3       1 NAP501      0.0000 
     36 N1N        38.1970   -6.9790   20.4790 N.pl3     1 NAP501      0.0000 
     37 C2N        37.6770   -6.8650   21.7220 C.ar      1 NAP501      0.0000 
     38 C3N        36.3440   -6.4630   21.9250 C.ar      1 NAP501      0.0000 
     39 C7N        35.7850   -6.3490   23.3280 C.2       1 NAP501      0.0000 
     40 O7N        36.1670   -7.1580   24.1590 O.2       1 NAP501      0.0000 
     41 N7N        34.9030   -5.3990   23.6700 N.am      1 NAP501      0.0000 
     42 C4N        35.5520   -6.1830   20.8050 C.ar      1 NAP501      0.0000 
     43 C5N        36.1090   -6.2940   19.5340 C.ar      1 NAP501      0.0000 
     44 C6N        37.4400   -6.6900   19.4190 C.ar      1 NAP501      0.0000 
     45 P2B        39.1150  -14.0000    8.3170 P.3       1 NAP501      0.0000 
     46 O1X        40.4790  -13.4950    8.7370 O.co2     1 NAP501      0.0000 
     47 O2X        38.8760  -15.4440    8.6680 O.co2     1 NAP501      0.0000 
     48 O3X        38.6240  -13.5080    6.9640 O.co2     1 NAP501      0.0000 
@<TRIPOS>BOND
     1    1    2 ar   
     2    1    3 ar   
     3    1    4 1    
     4    1   23 1    
     5    4    5 1    
     6    5    6 1    
     7    6    7 1    
     8    6    8 1    
     9    7   12 1    
    10    8    9 1    
    11    8   10 1    
    12   10   11 1    
    13   10   12 1    
    14   11   45 1    
    15   12   13 1    
    16   13   14 1    
    17   13   22 1    
    18   14   15 2    
    19   15   16 1    
    20   16   17 ar   
    21   16   22 ar   
    22   17   18 1    
    23   17   19 ar   
    24   19   20 ar   
    25   20   21 ar   
    26   21   22 ar   
    27   23   24 1    
    28   24   25 ar   
    29   24   26 ar   
    30   24   27 1    
    31   27   28 1    
    32   28   29 1    
    33   29   30 1    
    34   29   31 1    
    35   30   35 1    
    36   31   32 1    
    37   31   33 1    
    38   33   34 1    
    39   33   35 1    
    40   35   36 1    
    41   36   37 ar   
    42   36   44 ar   
    43   37   38 ar   
    44   38   39 1    
    45   38   42 ar   
    46   39   40 2    
    47   39   41 am   
    48   42   43 ar   
    49   43   44 ar   
    50   45   46 ar   
    51   45   47 ar   
    52   45   48 ar   
@<TRIPOS>SUBSTRUCTURE
     1 NAP501      1 GROUP   
@<TRIPOS>SET
ATOM$ORANGE STATIC     ATOMS   COLORGROUP SYSTEM 
42 5 5 6 6 8 8 10 10 12 12 14 14 16 16 17 17 20 \
20 22 22 28 28 29 29 31 31 33 33 35 35 37 37 38 38 39 \
39 42 42 43 43 44 44 

