#    Name: 6acx_2_ADP
#    Modification time : Fri May 22 19:28:50 2020

@<TRIPOS>MOLECULE
6acx_2_ADP
   27    29     1     0     1
SMALL
NO_CHARGES


@<TRIPOS>ATOM
      1 PB         -7.1780   -8.0420   78.1620 P.3       1 ADP1302     0.0000 
      2 O1B        -7.1380   -9.3240   77.3650 O.co2     1 ADP1302     0.0000 
      3 O2B        -6.5310   -8.1550   79.5210 O.co2     1 ADP1302     0.0000 
      4 O3B        -6.7910   -6.8150   77.3710 O.co2     1 ADP1302     0.0000 
      5 PA         -9.6280   -9.0630   79.0450 P.3       1 ADP1302     0.0000 
      6 O1A       -10.9740   -8.5250   79.4690 O.co2     1 ADP1302     0.0000 
      7 O2A        -8.7910   -9.8470   80.0280 O.co2     1 ADP1302     0.0000 
      8 O3A        -8.7410   -7.8350   78.4930 O.3       1 ADP1302     0.0000 
      9 O5'        -9.8190   -9.9690   77.7260 O.3       1 ADP1302     0.0000 
     10 C5'       -11.1050  -10.4010   77.2900 C.3       1 ADP1302     0.0000 
     11 C4'       -10.9530  -11.7030   76.5120 C.3       1 ADP1302     0.0000 
     12 O4'       -11.0750  -12.8070   77.4130 O.3       1 ADP1302     0.0000 
     13 C3'       -12.0350  -11.8420   75.4550 C.3       1 ADP1302     0.0000 
     14 O3'       -11.4270  -12.0690   74.1800 O.3       1 ADP1302     0.0000 
     15 C2'       -12.8680  -13.0420   75.8590 C.3       1 ADP1302     0.0000 
     16 O2'       -12.8330  -14.0210   74.8160 O.3       1 ADP1302     0.0000 
     17 C1'       -12.2360  -13.5900   77.1290 C.3       1 ADP1302     0.0000 
     18 N9        -13.1650  -13.4170   78.2730 N.pl3     1 ADP1302     0.0000 
     19 C8        -13.5620  -12.2280   78.7620 C.2       1 ADP1302     0.0000 
     20 N7        -14.4020  -12.3810   79.8130 N.2       1 ADP1302     0.0000 
     21 C5        -14.5540  -13.7000   80.0130 C.ar      1 ADP1302     0.0000 
     22 C6        -15.3130  -14.5430   80.9610 C.ar      1 ADP1302     0.0000 
     23 N6        -16.0840  -13.9820   81.9250 N.pl3     1 ADP1302     0.0000 
     24 N1        -15.2030  -15.8840   80.8320 N.ar      1 ADP1302     0.0000 
     25 C2        -14.4330  -16.4430   79.8780 C.ar      1 ADP1302     0.0000 
     26 N3        -13.7190  -15.7370   78.9820 N.ar      1 ADP1302     0.0000 
     27 C4        -13.7390  -14.3830   78.9950 C.ar      1 ADP1302     0.0000 
@<TRIPOS>BOND
     1    1    2 ar   
     2    1    3 ar   
     3    1    4 ar   
     4    1    8 1    
     5    5    6 ar   
     6    5    7 ar   
     7    5    8 1    
     8    5    9 1    
     9    9   10 1    
    10   10   11 1    
    11   11   12 1    
    12   11   13 1    
    13   12   17 1    
    14   13   14 1    
    15   13   15 1    
    16   15   16 1    
    17   15   17 1    
    18   17   18 1    
    19   18   19 1    
    20   18   27 1    
    21   19   20 2    
    22   20   21 1    
    23   21   22 ar   
    24   21   27 ar   
    25   22   23 1    
    26   22   24 ar   
    27   24   25 ar   
    28   25   26 ar   
    29   26   27 ar   
@<TRIPOS>SUBSTRUCTURE
     1 ADP1302     1 GROUP   
@<TRIPOS>SET
ATOM$ORANGE STATIC     ATOMS   COLORGROUP SYSTEM 
20 10 10 11 11 13 13 15 15 17 17 19 19 21 21 22 22 25 \
25 27 27 

