#    Name: 6acx_1_ADP
#    Modification time : Fri May 22 19:28:23 2020

@<TRIPOS>MOLECULE
6acx_1_ADP
   27    29     1     0     1
SMALL
NO_CHARGES


@<TRIPOS>ATOM
      1 PB        -13.0690  -33.8020   31.1820 P.3       1 ADP1305     0.0000 
      2 O1B       -14.2580  -33.5000   30.3020 O.co2     1 ADP1305     0.0000 
      3 O2B       -12.3180  -32.5850   31.6640 O.co2     1 ADP1305     0.0000 
      4 O3B       -12.1730  -34.8960   30.6580 O.co2     1 ADP1305     0.0000 
      5 PA        -14.2570  -33.4540   33.6740 P.3       1 ADP1305     0.0000 
      6 O1A       -13.1210  -32.6910   34.3090 O.co2     1 ADP1305     0.0000 
      7 O2A       -15.2720  -34.1480   34.5490 O.co2     1 ADP1305     0.0000 
      8 O3A       -13.7190  -34.4320   32.5160 O.3       1 ADP1305     0.0000 
      9 O5'       -15.0640  -32.3890   32.7990 O.3       1 ADP1305     0.0000 
     10 C5'       -16.2390  -31.8820   33.3920 C.3       1 ADP1305     0.0000 
     11 C4'       -15.8800  -30.6980   34.2660 C.3       1 ADP1305     0.0000 
     12 O4'       -16.4140  -29.5470   33.6260 O.3       1 ADP1305     0.0000 
     13 C3'       -16.5770  -30.8390   35.6020 C.3       1 ADP1305     0.0000 
     14 O3'       -15.8010  -30.1890   36.6110 O.3       1 ADP1305     0.0000 
     15 C2'       -17.8960  -30.1250   35.4120 C.3       1 ADP1305     0.0000 
     16 O2'       -18.2270  -29.3730   36.5840 O.3       1 ADP1305     0.0000 
     17 C1'       -17.6810  -29.2270   34.1990 C.3       1 ADP1305     0.0000 
     18 N9        -18.7480  -29.4900   33.2010 N.pl3     1 ADP1305     0.0000 
     19 C8        -19.1910  -30.6960   32.7910 C.2       1 ADP1305     0.0000 
     20 N7        -20.1820  -30.5760   31.8750 N.2       1 ADP1305     0.0000 
     21 C5        -20.3890  -29.2620   31.6920 C.ar      1 ADP1305     0.0000 
     22 C6        -21.2990  -28.4410   30.8690 C.ar      1 ADP1305     0.0000 
     23 N6        -22.1900  -29.0260   30.0330 N.pl3     1 ADP1305     0.0000 
     24 N1        -21.1900  -27.0970   30.9710 N.ar      1 ADP1305     0.0000 
     25 C2        -20.2980  -26.5150   31.7950 C.ar      1 ADP1305     0.0000 
     26 N3        -19.4470  -27.2000   32.5770 N.ar      1 ADP1305     0.0000 
     27 C4        -19.4450  -28.5520   32.5660 C.ar      1 ADP1305     0.0000 
@<TRIPOS>BOND
     1    1    2 ar   
     2    1    3 ar   
     3    1    4 ar   
     4    1    8 1    
     5    5    6 ar   
     6    5    7 ar   
     7    5    8 1    
     8    5    9 1    
     9    9   10 1    
    10   10   11 1    
    11   11   12 1    
    12   11   13 1    
    13   12   17 1    
    14   13   14 1    
    15   13   15 1    
    16   15   16 1    
    17   15   17 1    
    18   17   18 1    
    19   18   19 1    
    20   18   27 1    
    21   19   20 2    
    22   20   21 1    
    23   21   22 ar   
    24   21   27 ar   
    25   22   23 1    
    26   22   24 ar   
    27   24   25 ar   
    28   25   26 ar   
    29   26   27 ar   
@<TRIPOS>SUBSTRUCTURE
     1 ADP1305     1 GROUP   
@<TRIPOS>SET
ATOM$ORANGE STATIC     ATOMS   COLORGROUP SYSTEM 
20 10 10 11 11 13 13 15 15 17 17 19 19 21 21 22 22 25 \
25 27 27 

