#    Name: 6j1i_1_COA
#    Modification time : Fri May 22 19:33:25 2020

@<TRIPOS>MOLECULE
6j1i_1_COA
   40    42     1     0     1
SMALL
NO_CHARGES


@<TRIPOS>ATOM
      1 N1A       -19.9750  -23.3110  -15.2240 N.ar      1 COA601      0.0000 
      2 C2A       -19.6030  -22.0400  -15.5890 C.ar      1 COA601      0.0000 
      3 N3A       -18.4870  -21.8240  -16.3720 N.ar      1 COA601      0.0000 
      4 C4A       -17.7250  -22.8870  -16.8090 C.ar      1 COA601      0.0000 
      5 C5A       -18.0950  -24.1300  -16.4530 C.ar      1 COA601      0.0000 
      6 C6A       -19.2370  -24.3450  -15.6510 C.ar      1 COA601      0.0000 
      7 N6A       -19.7790  -25.5830  -15.1790 N.pl3     1 COA601      0.0000 
      8 N7A       -17.2080  -24.9930  -16.9870 N.2       1 COA601      0.0000 
      9 C8A       -16.2980  -24.2920  -17.6730 C.2       1 COA601      0.0000 
     10 N9A       -16.5920  -22.9890  -17.5710 N.pl3     1 COA601      0.0000 
     11 C1B       -15.8690  -21.8770  -18.1680 C.3       1 COA601      0.0000 
     12 C2B       -14.8500  -21.4280  -17.4450 C.3       1 COA601      0.0000 
     13 O2B       -15.2570  -20.4940  -16.4290 O.3       1 COA601      0.0000 
     14 C3B       -13.9710  -20.7130  -18.5110 C.3       1 COA601      0.0000 
     15 O3B       -14.5540  -19.5660  -18.9180 O.3       1 COA601      0.0000 
     16 P3B       -13.8620  -18.0270  -18.6600 P.3       1 COA601      0.0000 
     17 O7A       -12.4650  -17.9630  -19.2570 O.co2     1 COA601      0.0000 
     18 O8A       -14.7820  -16.9730  -19.3160 O.co2     1 COA601      0.0000 
     19 O9A       -13.7900  -17.7410  -17.1810 O.co2     1 COA601      0.0000 
     20 C4B       -13.9970  -21.7480  -19.6960 C.3       1 COA601      0.0000 
     21 O4B       -15.1640  -22.3430  -19.5910 O.3       1 COA601      0.0000 
     22 C5B       -12.8990  -22.7930  -19.5550 C.3       1 COA601      0.0000 
     23 O5B       -11.7010  -22.3900  -20.1810 O.3       1 COA601      0.0000 
     24 P1A       -10.2570  -22.9690  -19.5750 P.3       1 COA601      0.0000 
     25 O1A       -10.2700  -24.4750  -19.6160 O.co2     1 COA601      0.0000 
     26 O2A       -10.0740  -22.5270  -18.1520 O.co2     1 COA601      0.0000 
     27 O3A        -8.9670  -22.4240  -20.4710 O.3       1 COA601      0.0000 
     28 P2A        -8.9080  -20.9140  -21.2480 P.3       1 COA601      0.0000 
     29 O4A        -8.5290  -21.1430  -22.7010 O.co2     1 COA601      0.0000 
     30 O5A       -10.2870  -20.2880  -21.2200 O.co2     1 COA601      0.0000 
     31 O6A        -7.8360  -19.8790  -20.4910 O.3       1 COA601      0.0000 
     32 CBP        -7.4630  -17.6620  -21.6490 C.3       1 COA601      0.0000 
     33 CCP        -6.9380  -19.0610  -21.2450 C.3       1 COA601      0.0000 
     34 CDP        -8.9280  -17.4530  -21.3810 C.3       1 COA601      0.0000 
     35 CEP        -6.7270  -16.5930  -20.8620 C.3       1 COA601      0.0000 
     36 CAP        -7.2200  -17.5350  -23.1860 C.3       1 COA601      0.0000 
     37 OAP        -8.3590  -17.0580  -23.8080 O.3       1 COA601      0.0000 
     38 C9P        -5.9340  -16.6900  -23.5270 C.2       1 COA601      0.0000 
     39 O9P        -6.0050  -15.7210  -24.2550 O.2       1 COA601      0.0000 
     40 N8P        -4.5620  -17.0620  -22.9750 N.am      1 COA601      0.0000 
@<TRIPOS>BOND
     1    1    2 ar   
     2    1    6 ar   
     3    2    3 ar   
     4    3    4 ar   
     5    4    5 ar   
     6    4   10 1    
     7    5    6 ar   
     8    5    8 1    
     9    6    7 1    
    10    8    9 2    
    11    9   10 1    
    12   10   11 1    
    13   11   12 1    
    14   11   21 1    
    15   12   13 1    
    16   12   14 1    
    17   14   15 1    
    18   14   20 1    
    19   15   16 1    
    20   16   17 ar   
    21   16   18 ar   
    22   16   19 ar   
    23   20   21 1    
    24   20   22 1    
    25   22   23 1    
    26   23   24 1    
    27   24   25 ar   
    28   24   26 ar   
    29   24   27 1    
    30   27   28 1    
    31   28   29 ar   
    32   28   30 ar   
    33   28   31 1    
    34   31   33 1    
    35   32   33 1    
    36   32   34 1    
    37   32   35 1    
    38   32   36 1    
    39   36   37 1    
    40   36   38 1    
    41   38   39 2    
    42   38   40 am   
@<TRIPOS>SUBSTRUCTURE
     1 COA601      1 GROUP   
@<TRIPOS>SET
ATOM$ORANGE STATIC     ATOMS   COLORGROUP SYSTEM 
32 2 2 4 4 5 5 6 6 9 9 11 11 12 12 14 14 20 \
20 22 22 32 32 33 33 34 34 35 35 36 36 38 38 

