#    Name: 5zbm_2_FMN_CAVITY_N1_ALL
#    Modification time : Fri May 22 19:23:58 2020

@<TRIPOS>MOLECULE
5zbm_2_FMN_CAVITY_N1_ALL
   70     0     7     0     0
SMALL
NO_CHARGES


@<TRIPOS>ATOM
      1 OG         47.2800  -51.6500  -45.2900 O.3       1 SER1        0.0000 
      2 OG         46.2700  -51.2000  -44.2700 O.3       1 SER1        0.0000 
      3 OG         47.2500  -50.2000  -43.7400 O.3       1 SER1        0.0000 
      4 OG         49.7900  -52.1200  -44.8100 O.3       1 SER1        0.0000 
      5 OG         48.7800  -51.6800  -43.7900 O.3       1 SER1        0.0000 
      6 OG         49.3000  -52.7000  -42.8300 O.3       1 SER1        0.0000 
      7 OG         48.7800  -51.8400  -39.2900 O.3       1 SER1        0.0000 
      8 O          46.7600  -50.6200  -46.2500 O.2       2 ALA2        0.0000 
      9 N          45.7500  -50.1800  -45.2400 N.am      2 ALA2        0.0000 
     10 N          49.2700  -51.0900  -45.7700 N.am      2 ALA2        0.0000 
     11 N          48.2600  -50.6500  -44.7500 N.am      2 ALA2        0.0000 
     12 N          48.2300  -49.2100  -43.2000 N.am      2 ALA2        0.0000 
     13 N          51.7800  -51.5600  -45.2800 N.am      2 ALA2        0.0000 
     14 N          50.7700  -51.1200  -44.2700 N.am      2 ALA2        0.0000 
     15 N          49.7600  -50.6800  -43.2500 N.am      2 ALA2        0.0000 
     16 O          48.7500  -50.2300  -42.2400 O.2       2 ALA2        0.0000 
     17 N          53.3100  -53.0300  -45.3400 N.am      2 ALA2        0.0000 
     18 N          52.3000  -52.5900  -44.3200 N.am      2 ALA2        0.0000 
     19 N          51.2900  -52.1500  -43.3000 N.am      2 ALA2        0.0000 
     20 O          49.2700  -51.2600  -41.2700 O.2       2 ALA2        0.0000 
     21 O          49.7900  -52.2800  -40.3100 O.2       2 ALA2        0.0000 
     22 N          52.7600  -50.5600  -44.7500 N.am      2 ALA2        0.0000 
     23 N          53.2800  -51.5900  -43.7800 N.am      2 ALA2        0.0000 
     24 N          53.3000  -53.2000  -40.8400 N.am      2 ALA2        0.0000 
     25 N          52.2900  -52.7600  -39.8200 N.am      2 ALA2        0.0000 
     26 N          53.7400  -49.5600  -44.2100 N.am      2 ALA2        0.0000 
     27 O          56.2800  -51.4800  -45.2800 O.2       2 ALA2        0.0000 
     28 O          55.7900  -52.0600  -43.3000 O.2       2 ALA2        0.0000 
     29 O          54.7800  -51.6200  -42.2800 O.2       2 ALA2        0.0000 
     30 OD1        50.2800  -51.5400  -46.7900 O.co2     3 ASP3        0.0000 
     31 OD1        48.8100  -53.2800  -40.8500 O.co2     3 ASP3        0.0000 
     32 OD1        50.8000  -52.7300  -41.3200 O.co2     3 ASP3        0.0000 
     33 OD1        50.3000  -53.3100  -39.3500 O.co2     3 ASP3        0.0000 
     34 OD1        54.3100  -53.6400  -41.8600 O.co2     3 ASP3        0.0000 
     35 OD1        56.8000  -52.5000  -44.3100 O.co2     3 ASP3        0.0000 
     36 NZ         54.7800  -51.4500  -46.7800 N.4       4 LYS4        0.0000 
     37 CZ         48.2900  -52.0900  -46.3100 C.ar      5 PHE5        0.0000 
     38 CZ         46.7900  -52.2300  -43.3100 C.ar      5 PHE5        0.0000 
     39 CZ         47.3100  -53.2600  -42.3500 C.ar      5 PHE5        0.0000 
     40 CZ         50.8000  -52.5600  -45.8200 C.ar      5 PHE5        0.0000 
     41 CZ         47.7700  -51.2300  -42.7700 C.ar      5 PHE5        0.0000 
     42 CZ         46.7600  -50.7900  -41.7600 C.ar      5 PHE5        0.0000 
     43 CZ         50.3100  -53.1500  -43.8400 C.ar      5 PHE5        0.0000 
     44 CZ         48.2900  -52.2600  -41.8100 C.ar      5 PHE5        0.0000 
     45 CZ         51.2800  -52.3100  -38.8100 C.ar      5 PHE5        0.0000 
     46 CA         48.7500  -50.0700  -46.7300 C.3       6 GLY6        0.0000 
     47 CA         47.7400  -49.6200  -45.7200 C.3       6 GLY6        0.0000 
     48 CA         47.2800  -51.8100  -40.7900 C.3       6 GLY6        0.0000 
     49 CA         51.2600  -50.5400  -46.2500 C.3       6 GLY6        0.0000 
     50 CA         52.7900  -52.0100  -46.3000 C.3       6 GLY6        0.0000 
     51 CA         50.2800  -51.7000  -42.2900 C.3       6 GLY6        0.0000 
     52 CA         52.8200  -53.6200  -43.3600 C.3       6 GLY6        0.0000 
     53 CA         51.8100  -53.1700  -42.3400 C.3       6 GLY6        0.0000 
     54 CA         53.2500  -49.9800  -46.7300 C.3       6 GLY6        0.0000 
     55 CA         53.7700  -51.0100  -45.7600 C.3       6 GLY6        0.0000 
     56 CA         55.3000  -52.4800  -45.8200 C.3       6 GLY6        0.0000 
     57 CA         54.2900  -52.0300  -44.8000 C.3       6 GLY6        0.0000 
     58 CA         52.2700  -51.1500  -42.7700 C.3       6 GLY6        0.0000 
     59 CA         54.8100  -53.0600  -43.8400 C.3       6 GLY6        0.0000 
     60 CA         52.7900  -52.1700  -41.8000 C.3       6 GLY6        0.0000 
     61 CA         51.7800  -51.7300  -40.7900 C.3       6 GLY6        0.0000 
     62 CA         50.7700  -51.2800  -39.7700 C.3       6 GLY6        0.0000 
     63 CA         55.7600  -50.4500  -46.2400 C.3       6 GLY6        0.0000 
     64 CA         54.7500  -50.0100  -45.2200 C.3       6 GLY6        0.0000 
     65 CA         55.2700  -51.0300  -44.2600 C.3       6 GLY6        0.0000 
     66 CA         54.2600  -50.5900  -43.2500 C.3       6 GLY6        0.0000 
     67 CA         57.8100  -52.9500  -45.3300 C.3       6 GLY6        0.0000 
     68 CA         54.2800  -52.2000  -40.3000 C.3       6 GLY6        0.0000 
     69 CA         53.2700  -51.7600  -39.2900 C.3       6 GLY6        0.0000 
     70 DU         53.8000  -52.6200  -42.8200 H         7 CUB7        0.0000 
@<TRIPOS>BOND
@<TRIPOS>SUBSTRUCTURE
     1 SER1        1 GROUP   
     2 ALA2        8 GROUP   
     3 ASP3       30 GROUP   
     4 LYS4       36 GROUP   
     5 PHE5       37 GROUP   
     6 GLY6       46 GROUP   
     7 CUB7       70 GROUP   
@<TRIPOS>SET

