#    Name: 5zbm_2_FMN
#    Modification time : Fri May 22 19:23:56 2020

@<TRIPOS>MOLECULE
5zbm_2_FMN
   31    33     1     0     1
SMALL
NO_CHARGES


@<TRIPOS>ATOM
      1 N1         49.3370  -51.6460  -46.4590 N.2       1 FMN401      0.0000 
      2 C2         48.1530  -51.4190  -47.0570 C.2       1 FMN401      0.0000 
      3 O2         48.1540  -51.3310  -48.2990 O.2       1 FMN401      0.0000 
      4 N3         47.0020  -51.2960  -46.3650 N.am      1 FMN401      0.0000 
      5 C4         46.9530  -51.3860  -45.0240 C.2       1 FMN401      0.0000 
      6 O4         45.8610  -51.2690  -44.4090 O.2       1 FMN401      0.0000 
      7 C4A        48.2230  -51.6340  -44.2920 C.2       1 FMN401      0.0000 
      8 N5         48.2720  -51.7550  -42.9440 N.2       1 FMN401      0.0000 
      9 C5A        49.4500  -51.9770  -42.3180 C.ar      1 FMN401      0.0000 
     10 C6         49.4640  -52.0920  -40.9330 C.ar      1 FMN401      0.0000 
     11 C7         50.6560  -52.3120  -40.2630 C.ar      1 FMN401      0.0000 
     12 C7M        50.6190  -52.4160  -38.7770 C.3       1 FMN401      0.0000 
     13 C8         51.9280  -52.4480  -41.0120 C.ar      1 FMN401      0.0000 
     14 C8M        53.2420  -52.7050  -40.3240 C.3       1 FMN401      0.0000 
     15 C9         51.9110  -52.3460  -42.3920 C.ar      1 FMN401      0.0000 
     16 C9A        50.7280  -52.1070  -43.0950 C.ar      1 FMN401      0.0000 
     17 N10        50.6940  -51.9870  -44.5120 N.pl3     1 FMN401      0.0000 
     18 C10        49.4490  -51.7580  -45.1230 C.2       1 FMN401      0.0000 
     19 C1'        51.8850  -52.1440  -45.3590 C.3       1 FMN401      0.0000 
     20 C2'        52.6890  -50.8650  -45.4870 C.3       1 FMN401      0.0000 
     21 O2'        51.8970  -49.8960  -46.1590 O.3       1 FMN401      0.0000 
     22 C3'        53.9750  -51.1050  -46.2680 C.3       1 FMN401      0.0000 
     23 O3'        53.6420  -51.6790  -47.5410 O.3       1 FMN401      0.0000 
     24 C4'        54.9440  -52.0210  -45.5240 C.3       1 FMN401      0.0000 
     25 O4'        54.8170  -51.9280  -44.0990 O.3       1 FMN401      0.0000 
     26 C5'        56.3910  -51.7260  -45.8660 C.3       1 FMN401      0.0000 
     27 O5'        57.1880  -52.7510  -45.2740 O.3       1 FMN401      0.0000 
     28 P          58.1790  -52.5170  -44.0260 P.3       1 FMN401      0.0000 
     29 O1P        58.9390  -51.2590  -44.3690 O.co2     1 FMN401      0.0000 
     30 O2P        59.0630  -53.7450  -44.0410 O.co2     1 FMN401      0.0000 
     31 O3P        57.2790  -52.3990  -42.8190 O.co2     1 FMN401      0.0000 
@<TRIPOS>BOND
     1    1    2 1    
     2    1   18 2    
     3    2    3 2    
     4    2    4 am   
     5    4    5 am   
     6    5    6 2    
     7    5    7 1    
     8    7    8 2    
     9    7   18 1    
    10    8    9 1    
    11    9   10 ar   
    12    9   16 ar   
    13   10   11 ar   
    14   11   12 1    
    15   11   13 ar   
    16   13   14 1    
    17   13   15 ar   
    18   15   16 ar   
    19   16   17 1    
    20   17   18 1    
    21   17   19 1    
    22   19   20 1    
    23   20   21 1    
    24   20   22 1    
    25   22   23 1    
    26   22   24 1    
    27   24   25 1    
    28   24   26 1    
    29   26   27 1    
    30   27   28 1    
    31   28   29 ar   
    32   28   30 ar   
    33   28   31 ar   
@<TRIPOS>SUBSTRUCTURE
     1 FMN401      1 GROUP   
@<TRIPOS>SET
ATOM$ORANGE STATIC     ATOMS   COLORGROUP SYSTEM 
34 2 2 5 5 7 7 9 9 10 10 11 11 12 12 13 13 14 \
14 15 15 16 16 18 18 19 19 20 20 22 22 24 24 26 26 

