#    Name: 6cav_3_GNP
#    Modification time : Fri May 22 19:29:18 2020

@<TRIPOS>MOLECULE
6cav_3_GNP
   32    34     1     0     1
SMALL
NO_CHARGES


@<TRIPOS>ATOM
      1 PG         66.8760   29.0120   74.7210 P.3       1 GNP500      0.0000 
      2 O1G        66.0010   27.8460   74.0750 O.co2     1 GNP500      0.0000 
      3 O2G        68.2190   28.4960   74.9950 O.co2     1 GNP500      0.0000 
      4 O3G        66.1970   29.6330   76.0710 O.co2     1 GNP500      0.0000 
      5 N3B        66.8480   30.2510   73.6430 N.3       1 GNP500      0.0000 
      6 PB         66.7930   31.8300   74.0430 P.3       1 GNP500      0.0000 
      7 O1B        67.5100   32.6860   72.9190 O.co2     1 GNP500      0.0000 
      8 O2B        67.3290   32.1530   75.3620 O.co2     1 GNP500      0.0000 
      9 O3A        65.2760   32.2400   74.1220 O.3       1 GNP500      0.0000 
     10 PA         64.7270   33.6130   74.6950 P.3       1 GNP500      0.0000 
     11 O1A        63.3730   33.0760   75.2550 O.co2     1 GNP500      0.0000 
     12 O2A        65.6780   34.1700   75.7210 O.co2     1 GNP500      0.0000 
     13 O5'        64.4520   34.5890   73.5540 O.3       1 GNP500      0.0000 
     14 C5'        65.5730   35.1180   72.9070 C.3       1 GNP500      0.0000 
     15 C4'        65.2550   36.5680   72.7330 C.3       1 GNP500      0.0000 
     16 O4'        64.0070   36.7020   72.0240 O.3       1 GNP500      0.0000 
     17 C3'        65.0400   37.3630   74.0040 C.3       1 GNP500      0.0000 
     18 O3'        66.2790   37.7430   74.5590 O.3       1 GNP500      0.0000 
     19 C2'        64.2840   38.5680   73.4630 C.3       1 GNP500      0.0000 
     20 O2'        65.1370   39.3980   72.6980 O.3       1 GNP500      0.0000 
     21 C1'        63.3450   37.8870   72.4660 C.3       1 GNP500      0.0000 
     22 N9         62.0110   37.5520   73.0620 N.pl3     1 GNP500      0.0000 
     23 C8         61.4740   36.3500   73.4860 C.2       1 GNP500      0.0000 
     24 N7         60.2890   36.4570   74.0500 N.2       1 GNP500      0.0000 
     25 C5         60.0140   37.8070   73.9720 C.2       1 GNP500      0.0000 
     26 C6         58.9240   38.5170   74.4130 C.2       1 GNP500      0.0000 
     27 O6         57.8790   38.0770   74.9260 O.2       1 GNP500      0.0000 
     28 N1         59.1010   39.8730   74.2510 N.am      1 GNP500      0.0000 
     29 C2         60.1980   40.4760   73.7280 C.2       1 GNP500      0.0000 
     30 N2         60.3310   41.7670   73.9750 N.pl3     1 GNP500      0.0000 
     31 N3         61.2060   39.8120   73.1960 N.2       1 GNP500      0.0000 
     32 C4         61.0700   38.4950   73.3720 C.2       1 GNP500      0.0000 
@<TRIPOS>BOND
     1    1    2 ar   
     2    1    3 ar   
     3    1    4 ar   
     4    1    5 1    
     5    5    6 1    
     6    6    7 ar   
     7    6    8 ar   
     8    6    9 1    
     9    9   10 1    
    10   10   11 ar   
    11   10   12 ar   
    12   10   13 1    
    13   13   14 1    
    14   14   15 1    
    15   15   16 1    
    16   15   17 1    
    17   16   21 1    
    18   17   18 1    
    19   17   19 1    
    20   19   20 1    
    21   19   21 1    
    22   21   22 1    
    23   22   23 1    
    24   22   32 1    
    25   23   24 2    
    26   24   25 1    
    27   25   26 1    
    28   25   32 2    
    29   26   27 2    
    30   26   28 am   
    31   28   29 1    
    32   29   30 1    
    33   29   31 2    
    34   31   32 1    
@<TRIPOS>SUBSTRUCTURE
     1 GNP500      1 GROUP   
@<TRIPOS>SET
ATOM$ORANGE STATIC     ATOMS   COLORGROUP SYSTEM 
20 14 14 15 15 17 17 19 19 21 21 23 23 25 25 26 26 29 \
29 32 32 

