#    Name: 6cav_2_GNP
#    Modification time : Fri May 22 19:29:13 2020

@<TRIPOS>MOLECULE
6cav_2_GNP
   32    34     1     0     1
SMALL
NO_CHARGES


@<TRIPOS>ATOM
      1 PG         43.0910    1.6410   20.5500 P.3       1 GNP500      0.0000 
      2 O1G        42.5670    2.4630   19.1240 O.co2     1 GNP500      0.0000 
      3 O2G        44.2180    2.4870   21.3120 O.co2     1 GNP500      0.0000 
      4 O3G        43.3720    0.1920   20.5290 O.co2     1 GNP500      0.0000 
      5 N3B        41.8170    1.9630   21.5120 N.3       1 GNP500      0.0000 
      6 PB         40.2240    1.8310   21.2140 P.3       1 GNP500      0.0000 
      7 O1B        39.9400    0.7400   20.2210 O.co2     1 GNP500      0.0000 
      8 O2B        39.5750    1.2950   22.4900 O.co2     1 GNP500      0.0000 
      9 O3A        39.9750    3.4880   20.9350 O.3       1 GNP500      0.0000 
     10 PA         38.8460    4.1480   19.9610 P.3       1 GNP500      0.0000 
     11 O1A        38.1390    3.0950   19.0590 O.co2     1 GNP500      0.0000 
     12 O2A        39.3470    5.4290   19.4350 O.co2     1 GNP500      0.0000 
     13 O5'        37.6950    4.6290   20.9080 O.3       1 GNP500      0.0000 
     14 C5'        37.1460    3.7680   21.9810 C.3       1 GNP500      0.0000 
     15 C4'        35.6550    3.9980   22.1570 C.3       1 GNP500      0.0000 
     16 O4'        35.4110    5.3750   22.5010 O.3       1 GNP500      0.0000 
     17 C3'        34.8580    3.7840   20.9070 C.3       1 GNP500      0.0000 
     18 O3'        34.5610    2.4130   20.9680 O.3       1 GNP500      0.0000 
     19 C2'        33.6500    4.6830   21.1300 C.3       1 GNP500      0.0000 
     20 O2'        32.8170    4.0010   22.0290 O.3       1 GNP500      0.0000 
     21 C1'        34.2090    5.8340   21.9420 C.3       1 GNP500      0.0000 
     22 N9         34.5200    7.0210   21.2010 N.pl3     1 GNP500      0.0000 
     23 C8         35.7540    7.4920   20.9360 C.2       1 GNP500      0.0000 
     24 N7         35.7190    8.6630   20.3650 N.2       1 GNP500      0.0000 
     25 C5         34.3780    8.9600   20.2580 C.2       1 GNP500      0.0000 
     26 C6         33.7450   10.1150   19.8090 C.2       1 GNP500      0.0000 
     27 O6         34.2280   11.1630   19.4640 O.2       1 GNP500      0.0000 
     28 N1         32.3880   10.0340   19.8900 N.am      1 GNP500      0.0000 
     29 C2         31.7180    8.9680   20.3670 C.2       1 GNP500      0.0000 
     30 N2         30.4060    9.0330   20.3350 N.pl3     1 GNP500      0.0000 
     31 N3         32.3190    7.8780   20.8280 N.2       1 GNP500      0.0000 
     32 C4         33.6420    7.9560   20.7440 C.2       1 GNP500      0.0000 
@<TRIPOS>BOND
     1    1    2 ar   
     2    1    3 ar   
     3    1    4 ar   
     4    1    5 1    
     5    5    6 1    
     6    6    7 ar   
     7    6    8 ar   
     8    6    9 1    
     9    9   10 1    
    10   10   11 ar   
    11   10   12 ar   
    12   10   13 1    
    13   13   14 1    
    14   14   15 1    
    15   15   16 1    
    16   15   17 1    
    17   16   21 1    
    18   17   18 1    
    19   17   19 1    
    20   19   20 1    
    21   19   21 1    
    22   21   22 1    
    23   22   23 1    
    24   22   32 1    
    25   23   24 2    
    26   24   25 1    
    27   25   26 1    
    28   25   32 2    
    29   26   27 2    
    30   26   28 am   
    31   28   29 1    
    32   29   30 1    
    33   29   31 2    
    34   31   32 1    
@<TRIPOS>SUBSTRUCTURE
     1 GNP500      1 GROUP   
@<TRIPOS>SET
ATOM$ORANGE STATIC     ATOMS   COLORGROUP SYSTEM 
20 14 14 15 15 17 17 19 19 21 21 23 23 25 25 26 26 29 \
29 32 32 

