#    Name: 6cav_4_GNP
#    Modification time : Fri May 22 19:29:23 2020

@<TRIPOS>MOLECULE
6cav_4_GNP
   28    30     1     0     1
SMALL
NO_CHARGES


@<TRIPOS>ATOM
      1 N3B        71.1140   32.1160   39.6560 N.3       1 GNP500      0.0000 
      2 PB         70.6460   30.9700   40.7410 P.3       1 GNP500      0.0000 
      3 O1B        68.9850   30.8420   40.5470 O.co2     1 GNP500      0.0000 
      4 O2B        71.0690   31.3320   42.0730 O.co2     1 GNP500      0.0000 
      5 O3A        71.2180   29.4280   40.7560 O.3       1 GNP500      0.0000 
      6 PA         72.3490   28.6560   39.9370 P.3       1 GNP500      0.0000 
      7 O1A        73.0190   29.8170   39.1570 O.co2     1 GNP500      0.0000 
      8 O2A        71.9720   27.3270   39.2030 O.co2     1 GNP500      0.0000 
      9 O5'        73.0160   28.2880   41.3170 O.3       1 GNP500      0.0000 
     10 C5'        73.7660   29.3670   41.9700 C.3       1 GNP500      0.0000 
     11 C4'        75.2390   29.0170   42.1380 C.3       1 GNP500      0.0000 
     12 O4'        75.3560   27.6670   42.6500 O.3       1 GNP500      0.0000 
     13 C3'        76.1360   28.9950   40.8920 C.3       1 GNP500      0.0000 
     14 O3'        76.6110   30.2510   40.3790 O.3       1 GNP500      0.0000 
     15 C2'        77.2930   28.1390   41.3910 C.3       1 GNP500      0.0000 
     16 O2'        78.0870   28.9400   42.2640 O.3       1 GNP500      0.0000 
     17 C1'        76.5350   27.0610   42.1640 C.3       1 GNP500      0.0000 
     18 N9         76.1610   25.9050   41.3580 N.pl3     1 GNP500      0.0000 
     19 C8         74.9240   25.4840   40.9340 C.2       1 GNP500      0.0000 
     20 N7         74.9560   24.3390   40.2850 N.2       1 GNP500      0.0000 
     21 C5         76.2980   23.9880   40.2760 C.2       1 GNP500      0.0000 
     22 C6         77.0620   22.8030   39.6940 C.2       1 GNP500      0.0000 
     23 O6         76.6510   21.8280   39.0700 O.2       1 GNP500      0.0000 
     24 N1         78.4220   22.9200   39.9190 N.am      1 GNP500      0.0000 
     25 C2         79.0390   23.9680   40.5590 C.2       1 GNP500      0.0000 
     26 N2         80.3600   23.9630   40.5440 N.pl3     1 GNP500      0.0000 
     27 N3         78.3920   25.0070   41.1020 N.2       1 GNP500      0.0000 
     28 C4         77.0520   24.9620   40.9320 C.2       1 GNP500      0.0000 
@<TRIPOS>BOND
     1    1    2 1    
     2    2    3 ar   
     3    2    4 ar   
     4    2    5 1    
     5    5    6 1    
     6    6    7 ar   
     7    6    8 ar   
     8    6    9 1    
     9    9   10 1    
    10   10   11 1    
    11   11   12 1    
    12   11   13 1    
    13   12   17 1    
    14   13   14 1    
    15   13   15 1    
    16   15   16 1    
    17   15   17 1    
    18   17   18 1    
    19   18   19 1    
    20   18   28 1    
    21   19   20 2    
    22   20   21 1    
    23   21   22 1    
    24   21   28 2    
    25   22   23 2    
    26   22   24 am   
    27   24   25 1    
    28   25   26 1    
    29   25   27 2    
    30   27   28 1    
@<TRIPOS>SUBSTRUCTURE
     1 GNP500      1 GROUP   
@<TRIPOS>SET
ATOM$ORANGE STATIC     ATOMS   COLORGROUP SYSTEM 
20 10 10 11 11 13 13 15 15 17 17 19 19 21 21 22 22 25 \
25 28 28 

