#    Name: 6i2k_1_906
#    Modification time : Fri May 22 19:24:41 2020

@<TRIPOS>MOLECULE
6i2k_1_906
   31    33     1     0     0
SMALL
NO_CHARGES


@<TRIPOS>ATOM
      1 CAA       328.0870  288.6770  386.3560 C.3       1 906301      0.0000 
      2 CAB       330.9060  298.9520  378.6790 C.3       1 906301      0.0000 
      3 NAC       334.3970  308.3810  383.5060 N.pl3     1 906301      0.0000 
      4 OAD       333.0810  304.3600  381.8420 O.2       1 906301      0.0000 
      5 CAE       329.7820  292.3810  383.8900 C.2       1 906301      0.0000 
      6 CAF       332.4580  309.3240  380.6300 C.ar      1 906301      0.0000 
      7 CAG       332.0330  308.0800  380.1750 C.ar      1 906301      0.0000 
      8 CAH       330.6170  294.3470  382.8040 C.ar      1 906301      0.0000 
      9 CAI       328.4310  294.3850  383.8060 C.ar      1 906301      0.0000 
     10 CAJ       330.4530  295.6650  382.3910 C.ar      1 906301      0.0000 
     11 CAK       328.2760  295.7080  383.4040 C.ar      1 906301      0.0000 
     12 CAL       333.2260  307.0360  381.9740 C.ar      1 906301      0.0000 
     13 CAM       327.7690  290.0030  385.6660 C.3       1 906301      0.0000 
     14 CAN       330.1360  297.9690  381.3010 C.3       1 906301      0.0000 
     15 CAO       330.0470  299.4610  380.9720 C.3       1 906301      0.0000 
     16 CAP       331.0820  301.2770  379.5760 C.3       1 906301      0.0000 
     17 CAQ       331.6560  302.1160  380.7160 C.3       1 906301      0.0000 
     18 CAR       330.5890  304.1410  379.4420 C.3       1 906301      0.0000 
     19 CAS       331.1860  305.5280  379.2090 C.3       1 906301      0.0000 
     20 NAT       328.7420  291.8150  384.5170 N.2       1 906301      0.0000 
     21 NAU       333.2660  309.4010  381.7700 N.ar      1 906301      0.0000 
     22 OAV       328.9140  290.4240  384.9200 O.3       1 906301      0.0000 
     23 OAW       329.0580  297.5830  382.1600 O.3       1 906301      0.0000 
     24 CAX       332.2400  304.5480  380.9690 C.2       1 906301      0.0000 
     25 CAY       333.6340  308.2870  382.4210 C.ar      1 906301      0.0000 
     26 CAZ       329.6070  293.7060  383.5090 C.ar      1 906301      0.0000 
     27 CBA       329.2840  296.3510  382.6910 C.ar      1 906301      0.0000 
     28 CBB       332.4270  306.9270  380.8420 C.ar      1 906301      0.0000 
     29 CBC       331.1260  299.7900  379.9400 C.3       1 906301      0.0000 
     30 NBD       331.5630  303.5560  380.3890 N.am      1 906301      0.0000 
     31 NBE       331.9540  305.7440  380.4550 N.am      1 906301      0.0000 
@<TRIPOS>BOND
     1    1   13 1    
     2    2   29 1    
     3    3   25 1    
     4    4   24 2    
     5    5   20 2    
     6    5   26 1    
     7    6    7 ar   
     8    6   21 ar   
     9    7   28 ar   
    10    8   10 ar   
    11    8   26 ar   
    12    9   11 ar   
    13    9   26 ar   
    14   10   27 ar   
    15   11   27 ar   
    16   12   25 ar   
    17   12   28 ar   
    18   13   22 1    
    19   14   15 1    
    20   14   23 1    
    21   15   29 1    
    22   16   17 1    
    23   16   29 1    
    24   17   30 1    
    25   18   19 1    
    26   18   30 1    
    27   19   31 1    
    28   20   22 1    
    29   21   25 ar   
    30   23   27 1    
    31   24   30 am   
    32   24   31 am   
    33   28   31 1    
@<TRIPOS>SUBSTRUCTURE
     1 906301      1 GROUP   
@<TRIPOS>SET

