#    Name: 6ak3_1_P2E
#    Modification time : Fri May 22 19:32:26 2020

@<TRIPOS>MOLECULE
6ak3_1_P2E
   25    25     1     0     0
SMALL
NO_CHARGES


@<TRIPOS>ATOM
      1 C2         82.0700   36.9500  223.9400           1 P2E1201     0.0000 
      2 C3         82.8670   37.9250  223.0300           1 P2E1201     0.0000 
      3 C4         83.7290   37.1760  222.0020           1 P2E1201     0.0000 
      4 C5         83.9780   38.1000  220.7670           1 P2E1201     0.0000 
      5 C6         83.9550   37.5720  219.5460           1 P2E1201     0.0000 
      6 C7         83.6950   36.0850  219.3940           1 P2E1201     0.0000 
      7 C8         82.6900   35.8040  218.1770           1 P2E1201     0.0000 
      8 C9         81.4200   36.2100  218.5100           1 P2E1201     0.0000 
      9 O3         80.9950   36.3090  219.6040           1 P2E1201     0.0000 
     10 C12        83.0100   36.6770  216.9640           1 P2E1201     0.0000 
     11 C11        81.5280   36.8450  216.2270           1 P2E1201     0.0000 
     12 O4         81.3400   38.1540  215.7860           1 P2E1201     0.0000 
     13 C10        80.6070   36.5360  217.1660           1 P2E1201     0.0000 
     14 C13        83.9440   36.0280  216.0620           1 P2E1201     0.0000 
     15 C14        84.8090   36.7880  215.3030           1 P2E1201     0.0000 
     16 C15        85.7960   36.1040  214.3380           1 P2E1201     0.0000 
     17 O5         85.3580   36.2910  213.0420           1 P2E1201     0.0000 
     18 C16        87.2180   36.7140  214.4730           1 P2E1201     0.0000 
     19 C17        87.6220   37.0030  215.9320           1 P2E1201     0.0000 
     20 C18        89.0480   37.5160  216.0360           1 P2E1201     0.0000 
     21 C19        89.1550   38.7770  216.9660           1 P2E1201     0.0000 
     22 C20        90.3630   38.7350  217.8330           1 P2E1201     0.0000 
     23 O1         80.5460   37.5910  225.7050           1 P2E1201     0.0000 
     24 C1         80.7770   37.5780  224.4730           1 P2E1201     0.0000 
     25 O2         79.9540   38.0820  223.6760           1 P2E1201     0.0000 
@<TRIPOS>BOND
     1    1    2 du   
     2    1   24 du   
     3    2    3 du   
     4    3    4 du   
     5    4    5 du   
     6    5    6 du   
     7    6    7 du   
     8    7    8 du   
     9    7   10 du   
    10    8    9 du   
    11    8   13 du   
    12   10   11 du   
    13   10   14 du   
    14   11   12 du   
    15   11   13 du   
    16   14   15 du   
    17   15   16 du   
    18   16   17 du   
    19   16   18 du   
    20   18   19 du   
    21   19   20 du   
    22   20   21 du   
    23   21   22 du   
    24   23   24 du   
    25   24   25 du   
@<TRIPOS>SUBSTRUCTURE
     1 P2E1201     1 GROUP   
@<TRIPOS>SET

