#    Name: 6ak3_2_P2E
#    Modification time : Fri May 22 19:32:30 2020

@<TRIPOS>MOLECULE
6ak3_2_P2E
   25    25     1     0     0
SMALL
NO_CHARGES


@<TRIPOS>ATOM
      1 C2         64.6800   52.0250  223.9970           1 P2E1201     0.0000 
      2 C3         64.0030   51.0850  222.9610           1 P2E1201     0.0000 
      3 C4         63.1660   51.8670  221.9370           1 P2E1201     0.0000 
      4 C5         62.8760   50.9570  220.6990           1 P2E1201     0.0000 
      5 C6         62.9130   51.4810  219.4750           1 P2E1201     0.0000 
      6 C7         63.2290   52.9570  219.3150           1 P2E1201     0.0000 
      7 C8         64.1210   53.2080  218.0070           1 P2E1201     0.0000 
      8 C9         65.4270   52.8580  218.2530           1 P2E1201     0.0000 
      9 O3         65.9420   52.8450  219.3110           1 P2E1201     0.0000 
     10 C12        63.7230   52.2810  216.8600           1 P2E1201     0.0000 
     11 C11        65.1530   52.0420  216.0410           1 P2E1201     0.0000 
     12 O4         65.3380   50.6910  215.7540           1 P2E1201     0.0000 
     13 C10        66.1340   52.4690  216.8660           1 P2E1201     0.0000 
     14 C13        62.7320   52.9190  216.0090           1 P2E1201     0.0000 
     15 C14        61.8800   52.1590  215.2370           1 P2E1201     0.0000 
     16 C15        60.8330   52.8500  214.3450           1 P2E1201     0.0000 
     17 O5         61.2300   52.7870  213.0230           1 P2E1201     0.0000 
     18 C16        59.4570   52.1440  214.5010           1 P2E1201     0.0000 
     19 C17        59.0880   51.8830  215.9760           1 P2E1201     0.0000 
     20 C18        57.7740   51.1370  216.1250           1 P2E1201     0.0000 
     21 C19        57.7980   50.1300  217.3310           1 P2E1201     0.0000 
     22 C20        56.4570   49.9620  217.9540           1 P2E1201     0.0000 
     23 O1         66.1020   51.3070  225.8210           1 P2E1201     0.0000 
     24 C1         65.9670   51.4260  224.5790           1 P2E1201     0.0000 
     25 O2         66.8810   51.0510  223.8130           1 P2E1201     0.0000 
@<TRIPOS>BOND
     1    1    2 du   
     2    1   24 du   
     3    2    3 du   
     4    3    4 du   
     5    4    5 du   
     6    5    6 du   
     7    6    7 du   
     8    7    8 du   
     9    7   10 du   
    10    8    9 du   
    11    8   13 du   
    12   10   11 du   
    13   10   14 du   
    14   11   12 du   
    15   11   13 du   
    16   14   15 du   
    17   15   16 du   
    18   16   17 du   
    19   16   18 du   
    20   18   19 du   
    21   19   20 du   
    22   20   21 du   
    23   21   22 du   
    24   23   24 du   
    25   24   25 du   
@<TRIPOS>SUBSTRUCTURE
     1 P2E1201     1 GROUP   
@<TRIPOS>SET

