#    Name: 6pgu_1_COA
#    Modification time : Fri May 22 19:38:52 2020

@<TRIPOS>MOLECULE
6pgu_1_COA
   48    50     1     0     1
SMALL
NO_CHARGES


@<TRIPOS>ATOM
      1 N1A       -40.5950  -27.1640   18.4050 N.ar      1 COA1701     0.0000 
      2 C2A       -39.8330  -28.2680   18.5710 C.ar      1 COA1701     0.0000 
      3 N3A       -38.5260  -28.3380   18.1660 N.ar      1 COA1701     0.0000 
      4 C4A       -37.9170  -27.2670   17.5810 C.ar      1 COA1701     0.0000 
      5 C5A       -38.6660  -26.0150   17.4020 C.ar      1 COA1701     0.0000 
      6 C6A       -40.0940  -26.0270   17.8280 C.ar      1 COA1701     0.0000 
      7 N6A       -40.7940  -24.9170   17.6890 N.pl3     1 COA1701     0.0000 
      8 N7A       -37.8120  -25.1000   16.8190 N.2       1 COA1701     0.0000 
      9 C8A       -36.6400  -25.7730   16.6440 C.2       1 COA1701     0.0000 
     10 N9A       -36.6910  -27.0320   17.0780 N.pl3     1 COA1701     0.0000 
     11 C1B       -35.6150  -28.0170   17.0710 C.3       1 COA1701     0.0000 
     12 C2B       -35.1110  -28.1490   15.6470 C.3       1 COA1701     0.0000 
     13 O2B       -35.9330  -28.9980   14.8600 O.3       1 COA1701     0.0000 
     14 C3B       -33.7390  -28.7000   15.8650 C.3       1 COA1701     0.0000 
     15 O3B       -33.7930  -30.0740   16.1510 O.3       1 COA1701     0.0000 
     16 P3B       -32.6020  -31.0390   15.6710 P.3       1 COA1701     0.0000 
     17 O7A       -31.3730  -30.1640   15.5120 O.co2     1 COA1701     0.0000 
     18 O8A       -32.5140  -32.1390   16.6400 O.co2     1 COA1701     0.0000 
     19 O9A       -33.1760  -31.5200   14.3790 O.co2     1 COA1701     0.0000 
     20 C4B       -33.2970  -28.0320   17.1360 C.3       1 COA1701     0.0000 
     21 O4B       -34.5160  -27.6190   17.8500 O.3       1 COA1701     0.0000 
     22 C5B       -32.4370  -26.7680   16.9660 C.3       1 COA1701     0.0000 
     23 O5B       -33.1340  -25.8570   16.1300 O.3       1 COA1701     0.0000 
     24 P1A       -33.0990  -24.2670   16.3020 P.3       1 COA1701     0.0000 
     25 O1A       -33.8230  -23.6190   15.1630 O.co2     1 COA1701     0.0000 
     26 O2A       -33.3640  -23.7740   17.7060 O.co2     1 COA1701     0.0000 
     27 O3A       -31.4930  -23.9410   16.2390 O.3       1 COA1701     0.0000 
     28 P2A       -30.5620  -23.9010   14.8680 P.3       1 COA1701     0.0000 
     29 O4A       -29.1830  -23.6770   15.5020 O.co2     1 COA1701     0.0000 
     30 O5A       -30.7710  -25.1170   13.9590 O.co2     1 COA1701     0.0000 
     31 O6A       -31.1090  -22.5330   14.1390 O.3       1 COA1701     0.0000 
     32 CBP       -31.7070  -20.2100   13.8870 C.3       1 COA1701     0.0000 
     33 CCP       -31.2140  -21.2740   14.8320 C.3       1 COA1701     0.0000 
     34 CDP       -32.0660  -18.9720   14.6600 C.3       1 COA1701     0.0000 
     35 CEP       -30.5310  -19.8490   12.9780 C.3       1 COA1701     0.0000 
     36 CAP       -32.8730  -20.7920   13.0580 C.3       1 COA1701     0.0000 
     37 OAP       -33.9590  -21.2360   13.9300 O.3       1 COA1701     0.0000 
     38 C9P       -33.4520  -19.7630   12.1140 C.2       1 COA1701     0.0000 
     39 O9P       -32.8900  -19.4680   11.0220 O.2       1 COA1701     0.0000 
     40 N8P       -34.6060  -19.1840   12.5010 N.am      1 COA1701     0.0000 
     41 C7P       -35.2990  -18.1870   11.7110 C.3       1 COA1701     0.0000 
     42 C6P       -34.6820  -16.7960   11.8680 C.3       1 COA1701     0.0000 
     43 C5P       -34.7050  -16.2060   13.2880 C.2       1 COA1701     0.0000 
     44 O5P       -35.4040  -16.7200   14.2110 O.2       1 COA1701     0.0000 
     45 N4P       -33.9270  -15.1470   13.5420 N.am      1 COA1701     0.0000 
     46 C3P       -33.8400  -14.6210   14.9340 C.3       1 COA1701     0.0000 
     47 C2P       -33.1260  -13.3560   15.4610 C.3       1 COA1701     0.0000 
     48 S1P       -33.1000  -12.0540   14.1870 S.3       1 COA1701     0.0000 
@<TRIPOS>BOND
     1    1    2 ar   
     2    1    6 ar   
     3    2    3 ar   
     4    3    4 ar   
     5    4    5 ar   
     6    4   10 1    
     7    5    6 ar   
     8    5    8 1    
     9    6    7 1    
    10    8    9 2    
    11    9   10 1    
    12   10   11 1    
    13   11   12 1    
    14   11   21 1    
    15   12   13 1    
    16   12   14 1    
    17   14   15 1    
    18   14   20 1    
    19   15   16 1    
    20   16   17 ar   
    21   16   18 ar   
    22   16   19 ar   
    23   20   21 1    
    24   20   22 1    
    25   22   23 1    
    26   23   24 1    
    27   24   25 ar   
    28   24   26 ar   
    29   24   27 1    
    30   27   28 1    
    31   28   29 ar   
    32   28   30 ar   
    33   28   31 1    
    34   31   33 1    
    35   32   33 1    
    36   32   34 1    
    37   32   35 1    
    38   32   36 1    
    39   36   37 1    
    40   36   38 1    
    41   38   39 2    
    42   38   40 am   
    43   40   41 1    
    44   41   42 1    
    45   42   43 1    
    46   43   44 2    
    47   43   45 am   
    48   45   46 1    
    49   46   47 1    
    50   47   48 1    
@<TRIPOS>SUBSTRUCTURE
     1 COA1701     1 GROUP   
@<TRIPOS>SET
ATOM$ORANGE STATIC     ATOMS   COLORGROUP SYSTEM 
42 2 2 4 4 5 5 6 6 9 9 11 11 12 12 14 14 20 \
20 22 22 32 32 33 33 34 34 35 35 36 36 38 38 41 41 42 \
42 43 43 46 46 47 47 

