#    Name: 6pgu_2_COA
#    Modification time : Fri May 22 19:39:00 2020

@<TRIPOS>MOLECULE
6pgu_2_COA
   48    50     1     0     1
SMALL
NO_CHARGES


@<TRIPOS>ATOM
      1 N1A       -24.4420    2.9760  -13.8680 N.ar      1 COA1701     0.0000 
      2 C2A       -23.3200    3.6660  -13.6680 C.ar      1 COA1701     0.0000 
      3 N3A       -23.1900    5.0290  -13.7210 N.ar      1 COA1701     0.0000 
      4 C4A       -24.3790    5.6870  -13.9660 C.ar      1 COA1701     0.0000 
      5 C5A       -25.6320    5.0100  -14.1910 C.ar      1 COA1701     0.0000 
      6 C6A       -25.6630    3.5610  -14.0900 C.ar      1 COA1701     0.0000 
      7 N6A       -26.7750    2.8940  -14.3130 N.pl3     1 COA1701     0.0000 
      8 N7A       -26.6070    5.9630  -14.4190 N.2       1 COA1701     0.0000 
      9 C8A       -25.9640    7.1390  -14.3290 C.2       1 COA1701     0.0000 
     10 N9A       -24.6360    6.9910  -14.0510 N.pl3     1 COA1701     0.0000 
     11 C1B       -23.6360    8.0370  -13.9120 C.3       1 COA1701     0.0000 
     12 C2B       -23.6170    8.9010  -15.1520 C.3       1 COA1701     0.0000 
     13 O2B       -22.8310    8.3210  -16.2220 O.3       1 COA1701     0.0000 
     14 C3B       -23.0820   10.2010  -14.6320 C.3       1 COA1701     0.0000 
     15 O3B       -21.6190   10.2000  -14.6540 O.3       1 COA1701     0.0000 
     16 P3B       -20.8400   11.5510  -14.7390 P.3       1 COA1701     0.0000 
     17 O7A       -19.4120   11.1470  -14.4960 O.co2     1 COA1701     0.0000 
     18 O8A       -21.1740   12.4390  -15.8810 O.co2     1 COA1701     0.0000 
     19 O9A       -21.3670   12.3470  -13.5550 O.co2     1 COA1701     0.0000 
     20 C4B       -23.5900   10.2160  -13.2300 C.3       1 COA1701     0.0000 
     21 O4B       -23.9390    8.9030  -12.8410 O.3       1 COA1701     0.0000 
     22 C5B       -24.8110   11.1190  -13.0350 C.3       1 COA1701     0.0000 
     23 O5B       -25.7930   10.7120  -14.0210 O.3       1 COA1701     0.0000 
     24 P1A       -27.3410   10.7290  -13.5920 P.3       1 COA1701     0.0000 
     25 O1A       -27.6600   10.1050  -12.2910 O.co2     1 COA1701     0.0000 
     26 O2A       -28.0680   10.3180  -14.8650 O.co2     1 COA1701     0.0000 
     27 O3A       -27.6270   12.3310  -13.2380 O.3       1 COA1701     0.0000 
     28 P2A       -27.7970   13.5080  -14.2870 P.3       1 COA1701     0.0000 
     29 O4A       -27.8600   14.7390  -13.3840 O.co2     1 COA1701     0.0000 
     30 O5A       -26.7990   13.5500  -15.3700 O.co2     1 COA1701     0.0000 
     31 O6A       -29.2520   13.2100  -14.9270 O.3       1 COA1701     0.0000 
     32 CBP       -31.5730   12.6490  -15.0550 C.3       1 COA1701     0.0000 
     33 CCP       -30.3620   12.8760  -14.1690 C.3       1 COA1701     0.0000 
     34 CDP       -32.5670   12.0130  -14.0940 C.3       1 COA1701     0.0000 
     35 CEP       -32.0040   14.0350  -15.5500 C.3       1 COA1701     0.0000 
     36 CAP       -31.1820   11.7660  -16.2140 C.3       1 COA1701     0.0000 
     37 OAP       -30.6710   10.5180  -15.6230 O.3       1 COA1701     0.0000 
     38 C9P       -32.3780   11.4020  -17.0450 C.2       1 COA1701     0.0000 
     39 O9P       -32.7920   12.1750  -17.8950 O.2       1 COA1701     0.0000 
     40 N8P       -32.9600   10.2320  -16.8340 N.am      1 COA1701     0.0000 
     41 C7P       -34.0830    9.8060  -17.6620 C.3       1 COA1701     0.0000 
     42 C6P       -35.3920   10.2970  -17.0700 C.3       1 COA1701     0.0000 
     43 C5P       -35.8380    9.8950  -15.6700 C.2       1 COA1701     0.0000 
     44 O5P       -35.2210    8.9520  -15.1580 O.2       1 COA1701     0.0000 
     45 N4P       -36.8380   10.5560  -15.0530 N.am      1 COA1701     0.0000 
     46 C3P       -37.3770   10.2140  -13.6290 C.3       1 COA1701     0.0000 
     47 C2P       -38.4240   10.7020  -12.4590 C.3       1 COA1701     0.0000 
     48 S1P       -39.6760   11.1680  -13.7270 S.3       1 COA1701     0.0000 
@<TRIPOS>BOND
     1    1    2 ar   
     2    1    6 ar   
     3    2    3 ar   
     4    3    4 ar   
     5    4    5 ar   
     6    4   10 1    
     7    5    6 ar   
     8    5    8 1    
     9    6    7 1    
    10    8    9 2    
    11    9   10 1    
    12   10   11 1    
    13   11   12 1    
    14   11   21 1    
    15   12   13 1    
    16   12   14 1    
    17   14   15 1    
    18   14   20 1    
    19   15   16 1    
    20   16   17 ar   
    21   16   18 ar   
    22   16   19 ar   
    23   20   21 1    
    24   20   22 1    
    25   22   23 1    
    26   23   24 1    
    27   24   25 ar   
    28   24   26 ar   
    29   24   27 1    
    30   27   28 1    
    31   28   29 ar   
    32   28   30 ar   
    33   28   31 1    
    34   31   33 1    
    35   32   33 1    
    36   32   34 1    
    37   32   35 1    
    38   32   36 1    
    39   36   37 1    
    40   36   38 1    
    41   38   39 2    
    42   38   40 am   
    43   40   41 1    
    44   41   42 1    
    45   42   43 1    
    46   43   44 2    
    47   43   45 am   
    48   45   46 1    
    49   46   47 1    
    50   47   48 1    
@<TRIPOS>SUBSTRUCTURE
     1 COA1701     1 GROUP   
@<TRIPOS>SET
ATOM$ORANGE STATIC     ATOMS   COLORGROUP SYSTEM 
42 2 2 4 4 5 5 6 6 9 9 11 11 12 12 14 14 20 \
20 22 22 32 32 33 33 34 34 35 35 36 36 38 38 41 41 42 \
42 43 43 46 46 47 47 

