#    Name: 6pgu_2_COA_CAVITY_N1_12
#    Modification time : Fri May 22 19:39:01 2020

@<TRIPOS>MOLECULE
6pgu_2_COA_CAVITY_N1_12
   70     0     6     0     0
SMALL
NO_CHARGES


@<TRIPOS>ATOM
      1 OG        -31.6200   11.9400  -16.8900 O.3       1 SER1        0.0000 
      2 OG        -32.8200   12.8100  -17.0900 O.3       1 SER1        0.0000 
      3 OG        -29.8700   12.0500  -15.6900 O.3       1 SER1        0.0000 
      4 OG        -31.0700   12.9200  -15.8900 O.3       1 SER1        0.0000 
      5 OG        -32.2700   13.7900  -16.0900 O.3       1 SER1        0.0000 
      6 OG        -26.3700   12.2600  -13.2900 O.3       1 SER1        0.0000 
      7 OG        -26.8600   13.8600  -14.6000 O.3       1 SER1        0.0000 
      8 N         -36.5300   10.2700  -17.0700 N.am      2 ALA2        0.0000 
      9 O         -32.1600   10.9600  -17.8800 O.2       2 ALA2        0.0000 
     10 N         -37.4100    9.8000  -13.8700 N.am      2 ALA2        0.0000 
     11 N         -36.7000   10.5200  -14.9800 N.am      2 ALA2        0.0000 
     12 N         -35.9900   11.2500  -16.0800 N.am      2 ALA2        0.0000 
     13 N         -35.2800   11.9800  -17.1800 N.am      2 ALA2        0.0000 
     14 N         -39.3300    9.9400  -12.9700 N.am      2 ALA2        0.0000 
     15 N         -38.7800   10.9200  -11.9700 N.am      2 ALA2        0.0000 
     16 O         -28.8300   11.4300  -13.3900 O.2       2 ALA2        0.0000 
     17 O         -30.0300   12.3000  -13.5900 O.2       2 ALA2        0.0000 
     18 O         -28.2900   12.4100  -12.3900 O.2       2 ALA2        0.0000 
     19 O         -27.5800   13.1300  -13.4900 O.2       2 ALA2        0.0000 
     20 O         -28.7800   14.0100  -13.6900 O.2       2 ALA2        0.0000 
     21 NZ        -34.6200   10.1200  -17.9800 N.4       3 LYS4        0.0000 
     22 NZ        -34.0700   11.1000  -16.9800 N.4       3 LYS4        0.0000 
     23 NZ        -33.3600   11.8300  -18.0800 N.4       3 LYS4        0.0000 
     24 CZ        -38.6100   10.6700  -14.0700 C.ar      4 PHE5        0.0000 
     25 CZ        -29.3200   13.0300  -14.6900 C.ar      4 PHE5        0.0000 
     26 CZ        -28.6100   13.7500  -15.7900 C.ar      4 PHE5        0.0000 
     27 CZ        -31.9500   12.4400  -12.6900 C.ar      4 PHE5        0.0000 
     28 CZ        -31.2400   13.1700  -13.7900 C.ar      4 PHE5        0.0000 
     29 CZ        -30.5300   13.9000  -14.8900 C.ar      4 PHE5        0.0000 
     30 CZ        -33.1500   13.3200  -12.8900 C.ar      4 PHE5        0.0000 
     31 CZ        -32.4400   14.0400  -13.9900 C.ar      4 PHE5        0.0000 
     32 CZ        -31.7300   14.7700  -15.0900 C.ar      4 PHE5        0.0000 
     33 CZ        -32.9300   15.6400  -15.2900 C.ar      4 PHE5        0.0000 
     34 CZ        -27.0800   11.5300  -12.1900 C.ar      4 PHE5        0.0000 
     35 CA        -34.1300    8.5300  -16.6700 C.3       5 GLY6        0.0000 
     36 CA        -33.4200    9.2500  -17.7800 C.3       5 GLY6        0.0000 
     37 CA        -36.0400    8.6700  -15.7700 C.3       5 GLY6        0.0000 
     38 CA        -35.3300    9.4000  -16.8700 C.3       5 GLY6        0.0000 
     39 CA        -34.2900    8.7800  -14.5700 C.3       5 GLY6        0.0000 
     40 CA        -33.5800    9.5100  -15.6800 C.3       5 GLY6        0.0000 
     41 CA        -36.2100    8.9200  -13.6700 C.3       5 GLY6        0.0000 
     42 CA        -35.5000    9.6500  -14.7700 C.3       5 GLY6        0.0000 
     43 CA        -31.1200   10.3400  -15.5800 C.3       5 GLY6        0.0000 
     44 CA        -33.0400   10.4900  -14.6800 C.3       5 GLY6        0.0000 
     45 CA        -34.9500   10.6300  -13.7800 C.3       5 GLY6        0.0000 
     46 CA        -34.2400   11.3600  -14.8800 C.3       5 GLY6        0.0000 
     47 CA        -33.5300   12.0800  -15.9800 C.3       5 GLY6        0.0000 
     48 CA        -36.8700   10.7800  -12.8800 C.3       5 GLY6        0.0000 
     49 CA        -36.1600   11.5000  -13.9800 C.3       5 GLY6        0.0000 
     50 CA        -38.0700   11.6500  -13.0800 C.3       5 GLY6        0.0000 
     51 CA        -28.1700    9.5700  -14.1800 C.3       5 GLY6        0.0000 
     52 CA        -29.3800   10.4500  -14.3800 C.3       5 GLY6        0.0000 
     53 CA        -31.2900   10.5900  -13.4800 C.3       5 GLY6        0.0000 
     54 CA        -30.5800   11.3200  -14.5900 C.3       5 GLY6        0.0000 
     55 CA        -32.4900   11.4700  -13.6800 C.3       5 GLY6        0.0000 
     56 CA        -33.7000   12.3400  -13.8800 C.3       5 GLY6        0.0000 
     57 CA        -32.9900   13.0600  -14.9900 C.3       5 GLY6        0.0000 
     58 CA        -35.6100   12.4800  -12.9800 C.3       5 GLY6        0.0000 
     59 CA        -33.4800   14.6600  -16.2900 C.3       5 GLY6        0.0000 
     60 CA        -26.4200    9.6800  -12.9900 C.3       5 GLY6        0.0000 
     61 CA        -33.6400   14.9200  -14.1900 C.3       5 GLY6        0.0000 
     62 DU        -32.8700   10.2300  -16.7800 H         6 CUB7        0.0000 
     63 DU        -34.7900   10.3800  -15.8800 H         6 CUB7        0.0000 
     64 DU        -32.3300   11.2100  -15.7800 H         6 CUB7        0.0000 
     65 DU        -28.6600   11.1700  -15.4900 H         6 CUB7        0.0000 
     66 DU        -31.7800   12.1900  -14.7900 H         6 CUB7        0.0000 
     67 DU        -27.6300   10.5500  -13.1900 H         6 CUB7        0.0000 
     68 DU        -26.9200   11.2800  -14.2900 H         6 CUB7        0.0000 
     69 DU        -28.1200   12.1500  -14.4900 H         6 CUB7        0.0000 
     70 DU        -25.1700   11.3900  -13.0900 H         6 CUB7        0.0000 
@<TRIPOS>BOND
@<TRIPOS>SUBSTRUCTURE
     1 SER1        1 GROUP   
     2 ALA2        8 GROUP   
     3 LYS4       21 GROUP   
     4 PHE5       24 GROUP   
     5 GLY6       35 GROUP   
     6 CUB7       62 GROUP   
@<TRIPOS>SET

