#    Name: 6pgu_1_COA_CAVITY_N1_ALL
#    Modification time : Fri May 22 19:38:54 2020

@<TRIPOS>MOLECULE
6pgu_1_COA_CAVITY_N1_ALL
   71     0     7     0     0
SMALL
NO_CHARGES


@<TRIPOS>ATOM
      1 OG        -31.9400  -22.8800   13.0100 O.3       1 SER1        0.0000 
      2 OG        -33.1500  -22.0100   12.8100 O.3       1 SER1        0.0000 
      3 OG        -33.6400  -20.4100   11.5100 O.3       1 SER1        0.0000 
      4 OG        -31.1200  -25.8200   17.7200 O.3       1 SER1        0.0000 
      5 OG        -30.6900  -21.1700   12.9000 O.3       1 SER1        0.0000 
      6 OG        -31.8900  -20.3000   12.7000 O.3       1 SER1        0.0000 
      7 OG        -33.0900  -19.4300   12.5000 O.3       1 SER1        0.0000 
      8 OG        -32.3800  -18.7000   11.4000 O.3       1 SER1        0.0000 
      9 O         -31.6200  -24.2200   16.4100 O.2       2 ALA2        0.0000 
     10 O         -30.9100  -23.5000   15.3100 O.2       2 ALA2        0.0000 
     11 O         -31.5600  -21.6400   16.1100 O.2       2 ALA2        0.0000 
     12 N         -33.0400  -16.8500   12.1900 N.am      2 ALA2        0.0000 
     13 N         -34.2400  -15.9700   11.9900 N.am      2 ALA2        0.0000 
     14 N         -33.1500  -14.0100   13.9900 N.am      2 ALA2        0.0000 
     15 N         -33.3200  -13.7600   16.0900 N.am      2 ALA2        0.0000 
     16 O         -31.9000  -12.3100   13.8800 O.2       2 ALA2        0.0000 
     17 N         -33.8100  -12.1600   14.7800 N.am      2 ALA2        0.0000 
     18 O         -33.1000  -11.4300   13.6800 O.2       2 ALA2        0.0000 
     19 OD1       -33.4200  -26.9100   15.5200 O.co2     3 ASP3        0.0000 
     20 OD1       -32.7100  -26.1800   14.4200 O.co2     3 ASP3        0.0000 
     21 OD1       -31.6700  -26.8000   16.7200 O.co2     3 ASP3        0.0000 
     22 OD1       -30.2500  -25.3500   14.5100 O.co2     3 ASP3        0.0000 
     23 OD1       -32.1600  -25.2000   15.4200 O.co2     3 ASP3        0.0000 
     24 OD1       -31.4500  -24.4800   14.3100 O.co2     3 ASP3        0.0000 
     25 NZ        -34.8400  -19.5300   11.3000 N.4       4 LYS4        0.0000 
     26 NZ        -33.5800  -17.8300   11.2000 N.4       4 LYS4        0.0000 
     27 CZ        -30.7400  -23.7500   13.2100 C.ar      5 PHE5        0.0000 
     28 CZ        -30.1900  -22.7700   14.2100 C.ar      5 PHE5        0.0000 
     29 CZ        -31.4000  -21.9000   14.0100 C.ar      5 PHE5        0.0000 
     30 CZ        -30.8500  -20.9200   15.0000 C.ar      5 PHE5        0.0000 
     31 CZ        -30.1400  -20.1900   13.9000 C.ar      5 PHE5        0.0000 
     32 CZ        -29.4300  -19.4600   12.8000 C.ar      5 PHE5        0.0000 
     33 CZ        -34.4100  -15.7200   14.0900 C.ar      5 PHE5        0.0000 
     34 CZ        -34.3600  -13.1400   13.7900 C.ar      5 PHE5        0.0000 
     35 CA        -33.8600  -22.7300   13.9100 C.3       6 GLY6        0.0000 
     36 CA        -33.5300  -24.0800   17.3100 C.3       6 GLY6        0.0000 
     37 CA        -34.0200  -22.4800   16.0100 C.3       6 GLY6        0.0000 
     38 CA        -33.3100  -21.7500   14.9100 C.3       6 GLY6        0.0000 
     39 CA        -33.8000  -20.1500   13.6000 C.3       6 GLY6        0.0000 
     40 CA        -35.0100  -19.2800   13.4000 C.3       6 GLY6        0.0000 
     41 CA        -36.2100  -18.4100   13.2000 C.3       6 GLY6        0.0000 
     42 CA        -31.3500  -19.3200   13.7000 C.3       6 GLY6        0.0000 
     43 CA        -30.6300  -18.5900   12.6000 C.3       6 GLY6        0.0000 
     44 CA        -33.9700  -19.9000   15.7000 C.3       6 GLY6        0.0000 
     45 CA        -33.2600  -19.1700   14.6000 C.3       6 GLY6        0.0000 
     46 CA        -32.5500  -18.4500   13.5000 C.3       6 GLY6        0.0000 
     47 CA        -31.8400  -17.7200   12.4000 C.3       6 GLY6        0.0000 
     48 CA        -34.4600  -18.3000   14.4000 C.3       6 GLY6        0.0000 
     49 CA        -35.6700  -17.4300   14.2000 C.3       6 GLY6        0.0000 
     50 CA        -34.9500  -16.7000   13.1000 C.3       6 GLY6        0.0000 
     51 CA        -31.5100  -19.0700   15.8000 C.3       6 GLY6        0.0000 
     52 CA        -30.8000  -18.3400   14.7000 C.3       6 GLY6        0.0000 
     53 CA        -32.7200  -18.1900   15.6000 C.3       6 GLY6        0.0000 
     54 CA        -32.0000  -17.4700   14.5000 C.3       6 GLY6        0.0000 
     55 CA        -33.9200  -17.3200   15.4000 C.3       6 GLY6        0.0000 
     56 CA        -33.2100  -16.5900   14.2900 C.3       6 GLY6        0.0000 
     57 CA        -35.1200  -16.4500   15.2000 C.3       6 GLY6        0.0000 
     58 CA        -31.4600  -16.4900   15.4900 C.3       6 GLY6        0.0000 
     59 CA        -32.6600  -15.6100   15.2900 C.3       6 GLY6        0.0000 
     60 CA        -33.8700  -14.7400   15.0900 C.3       6 GLY6        0.0000 
     61 CA        -31.4100  -13.9100   15.1800 C.3       6 GLY6        0.0000 
     62 CA        -32.6100  -13.0300   14.9800 C.3       6 GLY6        0.0000 
     63 DU        -32.8700  -25.9300   16.5200 H         7 CUB7        0.0000 
     64 DU        -33.3600  -24.3300   15.2200 H         7 CUB7        0.0000 
     65 DU        -32.6500  -23.6000   14.1100 H         7 CUB7        0.0000 
     66 DU        -32.8200  -23.3500   16.2100 H         7 CUB7        0.0000 
     67 DU        -32.1100  -22.6200   15.1100 H         7 CUB7        0.0000 
     68 DU        -32.6000  -21.0300   13.8100 H         7 CUB7        0.0000 
     69 DU        -34.3000  -18.5500   12.3000 H         7 CUB7        0.0000 
     70 DU        -32.0600  -20.0500   14.8000 H         7 CUB7        0.0000 
     71 DU        -33.7500  -17.5700   13.3000 H         7 CUB7        0.0000 
@<TRIPOS>BOND
@<TRIPOS>SUBSTRUCTURE
     1 SER1        1 GROUP   
     2 ALA2        9 GROUP   
     3 ASP3       19 GROUP   
     4 LYS4       25 GROUP   
     5 PHE5       27 GROUP   
     6 GLY6       35 GROUP   
     7 CUB7       63 GROUP   
@<TRIPOS>SET

