#    Name: 6uk3_6_NAD
#    Modification time : Fri May 22 19:25:28 2020

@<TRIPOS>MOLECULE
6uk3_6_NAD
   44    48     1     0     1
SMALL
NO_CHARGES


@<TRIPOS>ATOM
      1 PA         28.7190   13.3520  -39.4540 P.3       1 NAD501      0.0000 
      2 O1A        29.6330   14.5160  -39.5650 O.co2     1 NAD501      0.0000 
      3 O2A        28.8950   12.2370  -40.4560 O.co2     1 NAD501      0.0000 
      4 O5B        28.8710   12.7590  -37.9880 O.3       1 NAD501      0.0000 
      5 C5B        28.2530   11.5590  -37.4970 C.3       1 NAD501      0.0000 
      6 C4B        29.3180   10.8670  -36.6920 C.3       1 NAD501      0.0000 
      7 O4B        28.7470    9.7270  -36.0190 O.3       1 NAD501      0.0000 
      8 C3B        30.5130   10.3360  -37.5080 C.3       1 NAD501      0.0000 
      9 O3B        31.7340   10.9570  -37.1140 O.3       1 NAD501      0.0000 
     10 C2B        30.4920    8.8210  -37.2390 C.3       1 NAD501      0.0000 
     11 O2B        31.7910    8.2410  -37.1490 O.3       1 NAD501      0.0000 
     12 C1B        29.7690    8.7660  -35.9040 C.3       1 NAD501      0.0000 
     13 N9A        29.1570    7.4810  -35.6020 N.pl3     1 NAD501      0.0000 
     14 C8A        28.4550    6.6650  -36.4480 C.2       1 NAD501      0.0000 
     15 N7A        28.0430    5.5490  -35.8940 N.2       1 NAD501      0.0000 
     16 C5A        28.5030    5.6420  -34.5900 C.ar      1 NAD501      0.0000 
     17 C6A        28.3850    4.7830  -33.4780 C.ar      1 NAD501      0.0000 
     18 N6A        27.8190    3.5660  -33.5310 N.pl3     1 NAD501      0.0000 
     19 N1A        28.9180    5.1970  -32.3060 N.ar      1 NAD501      0.0000 
     20 C2A        29.5540    6.3740  -32.2670 C.ar      1 NAD501      0.0000 
     21 N3A        29.7510    7.2550  -33.2530 N.ar      1 NAD501      0.0000 
     22 C4A        29.1900    6.8290  -34.3920 C.ar      1 NAD501      0.0000 
     23 O3         27.2100   13.8620  -39.5310 O.3       1 NAD501      0.0000 
     24 PN         26.6080   15.2020  -38.9010 P.3       1 NAD501      0.0000 
     25 O1N        26.6580   16.2840  -39.9090 O.co2     1 NAD501      0.0000 
     26 O2N        27.2210   15.4200  -37.5760 O.co2     1 NAD501      0.0000 
     27 O5D        25.0840   14.7910  -38.7380 O.3       1 NAD501      0.0000 
     28 C5D        24.7200   13.8350  -37.7220 C.3       1 NAD501      0.0000 
     29 C4D        23.2140   13.7390  -37.7210 C.3       1 NAD501      0.0000 
     30 O4D        22.6370   14.9840  -37.2540 O.3       1 NAD501      0.0000 
     31 C3D        22.5800   13.4780  -39.0910 C.3       1 NAD501      0.0000 
     32 O3D        21.4450   12.6390  -38.9150 O.3       1 NAD501      0.0000 
     33 C2D        22.1750   14.8870  -39.5400 C.3       1 NAD501      0.0000 
     34 O2D        21.1590   14.8620  -40.5420 O.3       1 NAD501      0.0000 
     35 C1D        21.7110   15.4500  -38.2010 C.3       1 NAD501      0.0000 
     36 N1N        21.6600   16.9640  -38.1040 N.pl3     1 NAD501      0.0000 
     37 C2N        20.7850   17.4120  -37.1830 C.ar      1 NAD501      0.0000 
     38 C3N        20.7250   18.7580  -36.8840 C.ar      1 NAD501      0.0000 
     39 C7N        19.7350   19.2860  -35.8920 C.2       1 NAD501      0.0000 
     40 O7N        19.4400   20.4790  -35.9170 O.2       1 NAD501      0.0000 
     41 N7N        19.1020   18.4150  -35.1140 N.am      1 NAD501      0.0000 
     42 C4N        21.6230   19.6230  -37.5100 C.ar      1 NAD501      0.0000 
     43 C5N        22.5020   19.1330  -38.4630 C.ar      1 NAD501      0.0000 
     44 C6N        22.4990   17.7910  -38.7610 C.ar      1 NAD501      0.0000 
@<TRIPOS>BOND
     1    1    2 ar   
     2    1    3 ar   
     3    1    4 1    
     4    1   23 1    
     5    4    5 1    
     6    5    6 1    
     7    6    7 1    
     8    6    8 1    
     9    7   12 1    
    10    8    9 1    
    11    8   10 1    
    12   10   11 1    
    13   10   12 1    
    14   12   13 1    
    15   13   14 1    
    16   13   22 1    
    17   14   15 2    
    18   15   16 1    
    19   16   17 ar   
    20   16   22 ar   
    21   17   18 1    
    22   17   19 ar   
    23   19   20 ar   
    24   20   21 ar   
    25   21   22 ar   
    26   23   24 1    
    27   24   25 ar   
    28   24   26 ar   
    29   24   27 1    
    30   27   28 1    
    31   28   29 1    
    32   29   30 1    
    33   29   31 1    
    34   30   35 1    
    35   31   32 1    
    36   31   33 1    
    37   33   34 1    
    38   33   35 1    
    39   35   36 1    
    40   36   37 ar   
    41   36   44 ar   
    42   37   38 ar   
    43   38   39 1    
    44   38   42 ar   
    45   39   40 2    
    46   39   41 am   
    47   42   43 ar   
    48   43   44 ar   
@<TRIPOS>SUBSTRUCTURE
     1 NAD501      1 GROUP   
@<TRIPOS>SET
ATOM$ORANGE STATIC     ATOMS   COLORGROUP SYSTEM 
42 5 5 6 6 8 8 10 10 12 12 14 14 16 16 17 17 20 \
20 22 22 28 28 29 29 31 31 33 33 35 35 37 37 38 38 39 \
39 42 42 43 43 44 44 

