#    Name: 6uk3_6_NAD_CAVITY_N1_ALL
#    Modification time : Fri May 22 19:25:30 2020

@<TRIPOS>MOLECULE
6uk3_6_NAD_CAVITY_N1_ALL
   84     0     7     0     0
SMALL
NO_CHARGES


@<TRIPOS>ATOM
      1 OG         17.4400   19.5500  -38.7600 O.3       1 SER1        0.0000 
      2 OG         18.7600   18.1800  -39.7000 O.3       1 SER1        0.0000 
      3 OG         19.1200   16.7400  -39.4900 O.3       1 SER1        0.0000 
      4 OG         20.7900   13.9200  -40.2200 O.3       1 SER1        0.0000 
      5 OG         19.5000   20.0300  -38.9800 O.3       1 SER1        0.0000 
      6 OG         19.8600   18.5900  -38.7700 O.3       1 SER1        0.0000 
      7 OG         20.2200   17.1500  -38.5500 O.3       1 SER1        0.0000 
      8 OG         21.5300   15.7800  -39.5000 O.3       1 SER1        0.0000 
      9 OG         22.2500   12.9000  -39.0700 O.3       1 SER1        0.0000 
     10 OG         22.4900   15.8400  -40.6500 O.3       1 SER1        0.0000 
     11 OG         23.2100   12.9600  -40.2300 O.3       1 SER1        0.0000 
     12 OG         19.2800   21.8200  -37.1100 O.3       1 SER1        0.0000 
     13 OG         19.6400   20.3800  -36.8900 O.3       1 SER1        0.0000 
     14 OG         21.9100   19.0700  -38.9900 O.3       1 SER1        0.0000 
     15 OG         22.2700   17.6300  -38.7800 O.3       1 SER1        0.0000 
     16 OG         23.5900   16.2600  -39.7200 O.3       1 SER1        0.0000 
     17 OG         23.9500   14.8200  -39.5100 O.3       1 SER1        0.0000 
     18 OG         21.7000   20.8600  -37.1200 O.3       1 SER1        0.0000 
     19 OG         26.0000   15.3000  -39.7300 O.3       1 SER1        0.0000 
     20 OG         28.4100   14.3400  -39.7400 O.3       1 SER1        0.0000 
     21 OG         28.7700   12.9000  -39.5300 O.3       1 SER1        0.0000 
     22 N          19.4800   15.3000  -39.2700 N.am      2 ALA2        0.0000 
     23 N          19.2600   17.0800  -37.4000 N.am      2 ALA2        0.0000 
     24 N          20.5800   15.7100  -38.3400 N.am      2 ALA2        0.0000 
     25 N          21.8900   14.3400  -39.2800 N.am      2 ALA2        0.0000 
     26 O          18.6900   20.3100  -35.7400 O.2       2 ALA2        0.0000 
     27 N          19.0500   18.8700  -35.5200 N.am      2 ALA2        0.0000 
     28 N          20.0000   18.9300  -36.6800 N.am      2 ALA2        0.0000 
     29 N          20.3600   17.4900  -36.4700 N.am      2 ALA2        0.0000 
     30 N          21.6800   16.1200  -37.4100 N.am      2 ALA2        0.0000 
     31 N          22.0400   14.6800  -37.2000 N.am      2 ALA2        0.0000 
     32 O          23.3500   13.3100  -38.1400 O.2       2 ALA2        0.0000 
     33 N          21.1000   19.3500  -35.7500 N.am      2 ALA2        0.0000 
     34 N          24.4500   13.7200  -37.2100 N.am      2 ALA2        0.0000 
     35 N          25.4100   13.7900  -38.3600 N.am      2 ALA2        0.0000 
     36 N          26.5100   14.2000  -37.4300 N.am      2 ALA2        0.0000 
     37 N          26.8700   12.7600  -37.2200 N.am      2 ALA2        0.0000 
     38 O          27.1000   15.7100  -38.8000 O.2       2 ALA2        0.0000 
     39 O          27.4600   14.2700  -38.5900 O.2       2 ALA2        0.0000 
     40 N          28.1800   11.3900  -38.1600 N.am      2 ALA2        0.0000 
     41 O          28.5600   14.6800  -37.6500 O.2       2 ALA2        0.0000 
     42 O          29.5100   14.7500  -38.8100 O.2       2 ALA2        0.0000 
     43 OD1        30.5900   10.4300  -38.1700 O.co2     3 ASP3        0.0000 
     44 NZ         16.7000   17.7000  -39.4800 N.4       4 LYS4        0.0000 
     45 NZ         18.0400   21.0600  -40.1300 N.4       4 LYS4        0.0000 
     46 NZ         18.4000   19.6200  -39.9100 N.4       4 LYS4        0.0000 
     47 NZ         19.1400   21.4700  -39.1900 N.4       4 LYS4        0.0000 
     48 NZ         20.2400   21.8800  -38.2600 N.4       4 LYS4        0.0000 
     49 NZ         20.6000   20.4400  -38.0500 N.4       4 LYS4        0.0000 
     50 NZ         21.5500   20.5100  -39.2000 N.4       4 LYS4        0.0000 
     51 NZ         29.6400   10.3600  -37.0100 N.4       4 LYS4        0.0000 
     52 CZ         17.0800   20.9900  -38.9700 C.ar      5 PHE5        0.0000 
     53 CZ         20.7400   20.7900  -35.9600 C.ar      5 PHE5        0.0000 
     54 CZ         29.3700   14.4100  -40.9000 C.ar      5 PHE5        0.0000 
     55 CZ         29.7300   12.9700  -40.6800 C.ar      5 PHE5        0.0000 
     56 CA         16.4900   19.4800  -37.6000 C.3       6 GLY6        0.0000 
     57 CA         17.8000   18.1100  -38.5400 C.3       6 GLY6        0.0000 
     58 CA         18.1600   16.6700  -38.3300 C.3       6 GLY6        0.0000 
     59 CA         17.5900   19.8900  -36.6700 C.3       6 GLY6        0.0000 
     60 CA         17.9500   18.4500  -36.4600 C.3       6 GLY6        0.0000 
     61 CA         18.1800   21.4000  -38.0400 C.3       6 GLY6        0.0000 
     62 CA         18.9000   18.5200  -37.6100 C.3       6 GLY6        0.0000 
     63 CA         22.8500   14.4000  -40.4400 C.3       6 GLY6        0.0000 
     64 CA         21.3200   17.5600  -37.6200 C.3       6 GLY6        0.0000 
     65 CA         22.6300   16.1900  -38.5700 C.3       6 GLY6        0.0000 
     66 CA         22.9900   14.7500  -38.3500 C.3       6 GLY6        0.0000 
     67 CA         24.3100   13.3800  -39.2900 C.3       6 GLY6        0.0000 
     68 CA         22.0600   19.4200  -36.9000 C.3       6 GLY6        0.0000 
     69 CA         24.0900   15.1600  -37.4200 C.3       6 GLY6        0.0000 
     70 CA         24.6900   16.6700  -38.7900 C.3       6 GLY6        0.0000 
     71 CA         25.0500   15.2300  -38.5800 C.3       6 GLY6        0.0000 
     72 CA         26.3600   13.8600  -39.5200 C.3       6 GLY6        0.0000 
     73 CA         27.3100   13.9300  -40.6700 C.3       6 GLY6        0.0000 
     74 CA         27.6700   12.4800  -40.4600 C.3       6 GLY6        0.0000 
     75 CA         28.2700   13.9900  -41.8300 C.3       6 GLY6        0.0000 
     76 CA         26.1500   15.6400  -37.6400 C.3       6 GLY6        0.0000 
     77 CA         28.0500   15.7800  -39.9500 C.3       6 GLY6        0.0000 
     78 CA         28.9200   13.2400  -37.4400 C.3       6 GLY6        0.0000 
     79 CA         29.2800   11.8000  -37.2300 C.3       6 GLY6        0.0000 
     80 CA         29.8700   13.3100  -38.6000 C.3       6 GLY6        0.0000 
     81 CA         30.2300   11.8700  -38.3800 C.3       6 GLY6        0.0000 
     82 DU         18.5400   19.9600  -37.8300 H         7 CUB7        0.0000 
     83 DU         20.9600   19.0000  -37.8400 H         7 CUB7        0.0000 
     84 DU         27.8200   12.8300  -38.3700 H         7 CUB7        0.0000 
@<TRIPOS>BOND
@<TRIPOS>SUBSTRUCTURE
     1 SER1        1 GROUP   
     2 ALA2       22 GROUP   
     3 ASP3       43 GROUP   
     4 LYS4       44 GROUP   
     5 PHE5       52 GROUP   
     6 GLY6       56 GROUP   
     7 CUB7       82 GROUP   
@<TRIPOS>SET

