#    Name: 6pop_5_NAP
#    Modification time : Fri May 22 19:31:33 2020

@<TRIPOS>MOLECULE
6pop_5_NAP
   48    52     1     0     1
SMALL
NO_CHARGES


@<TRIPOS>ATOM
      1 PA         37.7550  -30.1070   17.7350 P.3       1 NAP501      0.0000 
      2 O1A        38.4370  -29.4780   16.5440 O.co2     1 NAP501      0.0000 
      3 O2A        36.2510  -30.2180   17.7860 O.co2     1 NAP501      0.0000 
      4 O5B        38.3590  -31.5780   17.9800 O.3       1 NAP501      0.0000 
      5 C5B        38.1620  -32.2380   19.2290 C.3       1 NAP501      0.0000 
      6 C4B        38.6870  -33.6640   19.1350 C.3       1 NAP501      0.0000 
      7 O4B        37.7850  -34.4530   18.3570 O.3       1 NAP501      0.0000 
      8 C3B        40.0360  -33.7130   18.4380 C.3       1 NAP501      0.0000 
      9 O3B        40.8990  -34.5860   19.1720 O.3       1 NAP501      0.0000 
     10 C2B        39.7510  -34.3020   17.0690 C.3       1 NAP501      0.0000 
     11 O2B        40.8430  -35.0950   16.6080 O.3       1 NAP501      0.0000 
     12 C1B        38.4940  -35.1240   17.3140 C.3       1 NAP501      0.0000 
     13 N9A        37.6270  -35.2110   16.1160 N.pl3     1 NAP501      0.0000 
     14 C8A        37.4510  -34.2560   15.1840 C.2       1 NAP501      0.0000 
     15 N7A        36.5870  -34.6730   14.2220 N.2       1 NAP501      0.0000 
     16 C5A        36.1990  -35.9230   14.5400 C.ar      1 NAP501      0.0000 
     17 C6A        35.3010  -36.9470   13.9560 C.ar      1 NAP501      0.0000 
     18 N6A        34.6230  -36.7140   12.8060 N.pl3     1 NAP501      0.0000 
     19 N1A        35.1810  -38.1240   14.6090 N.ar      1 NAP501      0.0000 
     20 C2A        35.8460  -38.3700   15.7540 C.ar      1 NAP501      0.0000 
     21 N3A        36.6770  -37.4910   16.3390 N.ar      1 NAP501      0.0000 
     22 C4A        36.8920  -36.2730   15.7870 C.ar      1 NAP501      0.0000 
     23 O3         38.2160  -29.3580   19.0790 O.3       1 NAP501      0.0000 
     24 PN         39.5700  -28.5020   19.2220 P.3       1 NAP501      0.0000 
     25 O1N        39.5210  -27.3020   18.3060 O.co2     1 NAP501      0.0000 
     26 O2N        40.7260  -29.4670   19.1790 O.co2     1 NAP501      0.0000 
     27 O5D        39.3690  -28.0090   20.7400 O.3       1 NAP501      0.0000 
     28 C5D        38.9770  -26.6660   21.0050 C.3       1 NAP501      0.0000 
     29 C4D        37.5340  -26.6600   21.5070 C.3       1 NAP501      0.0000 
     30 O4D        37.3540  -27.6020   22.5730 O.3       1 NAP501      0.0000 
     31 C3D        37.1480  -25.2910   22.0410 C.3       1 NAP501      0.0000 
     32 O3D        35.9150  -24.8800   21.4410 O.3       1 NAP501      0.0000 
     33 C2D        36.9500  -25.4980   23.5300 C.3       1 NAP501      0.0000 
     34 O2D        35.8880  -24.6870   24.0430 O.3       1 NAP501      0.0000 
     35 C1D        36.6360  -26.9810   23.6430 C.3       1 NAP501      0.0000 
     36 N1N        37.0450  -27.4990   24.9500 N.pl3     1 NAP501      0.0000 
     37 C2N        36.1140  -27.6680   25.9000 C.ar      1 NAP501      0.0000 
     38 C3N        36.4590  -28.1580   27.1550 C.ar      1 NAP501      0.0000 
     39 C7N        35.4090  -28.3300   28.2170 C.2       1 NAP501      0.0000 
     40 O7N        35.7310  -28.7250   29.3260 O.2       1 NAP501      0.0000 
     41 N7N        34.1460  -28.0240   27.9230 N.am      1 NAP501      0.0000 
     42 C4N        37.7870  -28.4660   27.4200 C.ar      1 NAP501      0.0000 
     43 C5N        38.7320  -28.2850   26.4180 C.ar      1 NAP501      0.0000 
     44 C6N        38.3300  -27.7950   25.1790 C.ar      1 NAP501      0.0000 
     45 P2B        41.9660  -34.4580   15.6380 P.3       1 NAP501      0.0000 
     46 O1X        42.6630  -33.4250   16.4890 O.co2     1 NAP501      0.0000 
     47 O2X        42.8260  -35.6400   15.2620 O.co2     1 NAP501      0.0000 
     48 O3X        41.1830  -33.8580   14.4980 O.co2     1 NAP501      0.0000 
@<TRIPOS>BOND
     1    1    2 ar   
     2    1    3 ar   
     3    1    4 1    
     4    1   23 1    
     5    4    5 1    
     6    5    6 1    
     7    6    7 1    
     8    6    8 1    
     9    7   12 1    
    10    8    9 1    
    11    8   10 1    
    12   10   11 1    
    13   10   12 1    
    14   11   45 1    
    15   12   13 1    
    16   13   14 1    
    17   13   22 1    
    18   14   15 2    
    19   15   16 1    
    20   16   17 ar   
    21   16   22 ar   
    22   17   18 1    
    23   17   19 ar   
    24   19   20 ar   
    25   20   21 ar   
    26   21   22 ar   
    27   23   24 1    
    28   24   25 ar   
    29   24   26 ar   
    30   24   27 1    
    31   27   28 1    
    32   28   29 1    
    33   29   30 1    
    34   29   31 1    
    35   30   35 1    
    36   31   32 1    
    37   31   33 1    
    38   33   34 1    
    39   33   35 1    
    40   35   36 1    
    41   36   37 ar   
    42   36   44 ar   
    43   37   38 ar   
    44   38   39 1    
    45   38   42 ar   
    46   39   40 2    
    47   39   41 am   
    48   42   43 ar   
    49   43   44 ar   
    50   45   46 ar   
    51   45   47 ar   
    52   45   48 ar   
@<TRIPOS>SUBSTRUCTURE
     1 NAP501      1 GROUP   
@<TRIPOS>SET
ATOM$ORANGE STATIC     ATOMS   COLORGROUP SYSTEM 
42 5 5 6 6 8 8 10 10 12 12 14 14 16 16 17 17 20 \
20 22 22 28 28 29 29 31 31 33 33 35 35 37 37 38 38 39 \
39 42 42 43 43 44 44 

