#    Name: 6pop_2_NAP
#    Modification time : Fri May 22 19:31:25 2020

@<TRIPOS>MOLECULE
6pop_2_NAP
   48    52     1     0     1
SMALL
NO_CHARGES


@<TRIPOS>ATOM
      1 PA         27.3010   -7.9840   57.8210 P.3       1 NAP501      0.0000 
      2 O1A        28.2910   -8.5000   56.8060 O.co2     1 NAP501      0.0000 
      3 O2A        25.9460   -7.4910   57.3740 O.co2     1 NAP501      0.0000 
      4 O5B        27.0710   -9.0940   58.9650 O.3       1 NAP501      0.0000 
      5 C5B        25.7490   -9.3680   59.4200 C.3       1 NAP501      0.0000 
      6 C4B        25.6150  -10.8110   59.8850 C.3       1 NAP501      0.0000 
      7 O4B        24.6640  -11.4600   59.0430 O.3       1 NAP501      0.0000 
      8 C3B        26.9130  -11.5870   59.7550 C.3       1 NAP501      0.0000 
      9 O3B        27.0440  -12.4290   60.9010 O.3       1 NAP501      0.0000 
     10 C2B        26.7430  -12.4640   58.5350 C.3       1 NAP501      0.0000 
     11 O2B        27.3910  -13.7180   58.7320 O.3       1 NAP501      0.0000 
     12 C1B        25.2340  -12.6190   58.4400 C.3       1 NAP501      0.0000 
     13 N9A        24.7690  -12.7040   57.0360 N.pl3     1 NAP501      0.0000 
     14 C8A        25.3410  -12.1190   55.9670 C.2       1 NAP501      0.0000 
     15 N7A        24.6560  -12.4090   54.8330 N.2       1 NAP501      0.0000 
     16 C5A        23.6210  -13.1980   55.1750 C.ar      1 NAP501      0.0000 
     17 C6A        22.5060  -13.8650   54.4660 C.ar      1 NAP501      0.0000 
     18 N6A        22.3540  -13.7430   53.1250 N.pl3     1 NAP501      0.0000 
     19 N1A        21.6450  -14.6010   55.2040 N.ar      1 NAP501      0.0000 
     20 C2A        21.7830  -14.7280   56.5380 C.ar      1 NAP501      0.0000 
     21 N3A        22.7710  -14.1540   57.2430 N.ar      1 NAP501      0.0000 
     22 C4A        23.7050  -13.3930   56.6280 C.ar      1 NAP501      0.0000 
     23 O3         27.9880   -6.7740   58.6260 O.3       1 NAP501      0.0000 
     24 PN         29.3790   -6.8900   59.4250 P.3       1 NAP501      0.0000 
     25 O1N        30.4930   -7.1860   58.4490 O.co2     1 NAP501      0.0000 
     26 O2N        29.1780   -7.7590   60.6410 O.co2     1 NAP501      0.0000 
     27 O5D        29.5020   -5.3550   59.8930 O.3       1 NAP501      0.0000 
     28 C5D        28.8880   -4.9400   61.1070 C.3       1 NAP501      0.0000 
     29 C4D        27.8020   -3.9190   60.7820 C.3       1 NAP501      0.0000 
     30 O4D        26.7140   -4.0970   61.6880 O.3       1 NAP501      0.0000 
     31 C3D        28.2840   -2.4840   60.9190 C.3       1 NAP501      0.0000 
     32 O3D        27.9220   -1.7550   59.7430 O.3       1 NAP501      0.0000 
     33 C2D        27.5260   -1.9260   62.1070 C.3       1 NAP501      0.0000 
     34 O2D        27.1050   -0.5790   61.8760 O.3       1 NAP501      0.0000 
     35 C1D        26.3280   -2.8470   62.2560 C.3       1 NAP501      0.0000 
     36 N1N        26.0040   -3.0210   63.6680 N.pl3     1 NAP501      0.0000 
     37 C2N        24.9000   -2.4440   64.1590 C.ar      1 NAP501      0.0000 
     38 C3N        24.5710   -2.5920   65.4980 C.ar      1 NAP501      0.0000 
     39 C7N        23.3390   -1.9330   66.0400 C.2       1 NAP501      0.0000 
     40 O7N        23.1540   -1.9150   67.2460 O.2       1 NAP501      0.0000 
     41 N7N        22.4850   -1.3760   65.1820 N.am      1 NAP501      0.0000 
     42 C4N        25.3920   -3.3440   66.3270 C.ar      1 NAP501      0.0000 
     43 C5N        26.5280   -3.9330   65.7880 C.ar      1 NAP501      0.0000 
     44 C6N        26.8120   -3.7560   64.4410 C.ar      1 NAP501      0.0000 
     45 P2B        28.8860  -13.9800   58.1820 P.3       1 NAP501      0.0000 
     46 O1X        29.7580  -13.0590   59.0010 O.co2     1 NAP501      0.0000 
     47 O2X        29.1170  -15.4500   58.4410 O.co2     1 NAP501      0.0000 
     48 O3X        28.8200  -13.6060   56.7250 O.co2     1 NAP501      0.0000 
@<TRIPOS>BOND
     1    1    2 ar   
     2    1    3 ar   
     3    1    4 1    
     4    1   23 1    
     5    4    5 1    
     6    5    6 1    
     7    6    7 1    
     8    6    8 1    
     9    7   12 1    
    10    8    9 1    
    11    8   10 1    
    12   10   11 1    
    13   10   12 1    
    14   11   45 1    
    15   12   13 1    
    16   13   14 1    
    17   13   22 1    
    18   14   15 2    
    19   15   16 1    
    20   16   17 ar   
    21   16   22 ar   
    22   17   18 1    
    23   17   19 ar   
    24   19   20 ar   
    25   20   21 ar   
    26   21   22 ar   
    27   23   24 1    
    28   24   25 ar   
    29   24   26 ar   
    30   24   27 1    
    31   27   28 1    
    32   28   29 1    
    33   29   30 1    
    34   29   31 1    
    35   30   35 1    
    36   31   32 1    
    37   31   33 1    
    38   33   34 1    
    39   33   35 1    
    40   35   36 1    
    41   36   37 ar   
    42   36   44 ar   
    43   37   38 ar   
    44   38   39 1    
    45   38   42 ar   
    46   39   40 2    
    47   39   41 am   
    48   42   43 ar   
    49   43   44 ar   
    50   45   46 ar   
    51   45   47 ar   
    52   45   48 ar   
@<TRIPOS>SUBSTRUCTURE
     1 NAP501      1 GROUP   
@<TRIPOS>SET
ATOM$ORANGE STATIC     ATOMS   COLORGROUP SYSTEM 
42 5 5 6 6 8 8 10 10 12 12 14 14 16 16 17 17 20 \
20 22 22 28 28 29 29 31 31 33 33 35 35 37 37 38 38 39 \
39 42 42 43 43 44 44 

