#    Name: 6pop_1_NAP
#    Modification time : Fri May 22 19:31:12 2020

@<TRIPOS>MOLECULE
6pop_1_NAP
   48    52     1     0     1
SMALL
NO_CHARGES


@<TRIPOS>ATOM
      1 PA          6.6040  -45.9250   17.6790 P.3       1 NAP501      0.0000 
      2 O1A         6.0200  -46.4870   16.4060 O.co2     1 NAP501      0.0000 
      3 O2A         8.0860  -45.6570   17.7840 O.co2     1 NAP501      0.0000 
      4 O5B         5.8250  -44.5740   18.0690 O.3       1 NAP501      0.0000 
      5 C5B         6.1540  -43.8720   19.2670 C.3       1 NAP501      0.0000 
      6 C4B         5.6240  -42.4480   19.1920 C.3       1 NAP501      0.0000 
      7 O4B         6.5340  -41.6490   18.4340 O.3       1 NAP501      0.0000 
      8 C3B         4.2790  -42.3820   18.4840 C.3       1 NAP501      0.0000 
      9 O3B         3.4160  -41.5090   19.2160 O.3       1 NAP501      0.0000 
     10 C2B         4.5710  -41.7580   17.1360 C.3       1 NAP501      0.0000 
     11 O2B         3.4800  -40.9450   16.7160 O.3       1 NAP501      0.0000 
     12 C1B         5.8190  -40.9370   17.4240 C.3       1 NAP501      0.0000 
     13 N9A         6.6830  -40.7650   16.2340 N.pl3     1 NAP501      0.0000 
     14 C8A         6.8800  -41.6600   15.2480 C.2       1 NAP501      0.0000 
     15 N7A         7.7370  -41.1670   14.3180 N.2       1 NAP501      0.0000 
     16 C5A         8.0970  -39.9290   14.7090 C.ar      1 NAP501      0.0000 
     17 C6A         8.9730  -38.8530   14.1900 C.ar      1 NAP501      0.0000 
     18 N6A         9.6560  -39.0060   13.0300 N.pl3     1 NAP501      0.0000 
     19 N1A         9.0660  -37.7140   14.9130 N.ar      1 NAP501      0.0000 
     20 C2A         8.3950  -37.5490   16.0680 C.ar      1 NAP501      0.0000 
     21 N3A         7.5830  -38.4810   16.5960 N.ar      1 NAP501      0.0000 
     22 C4A         7.3950  -39.6680   15.9720 C.ar      1 NAP501      0.0000 
     23 O3          6.2290  -46.8920   18.9000 O.3       1 NAP501      0.0000 
     24 PN          4.7570  -47.4830   19.1620 P.3       1 NAP501      0.0000 
     25 O1N         4.5290  -48.6750   18.2630 O.co2     1 NAP501      0.0000 
     26 O2N         3.7840  -46.3330   19.2040 O.co2     1 NAP501      0.0000 
     27 O5D         5.0010  -47.9900   20.6710 O.3       1 NAP501      0.0000 
     28 C5D         5.3750  -49.3430   20.9160 C.3       1 NAP501      0.0000 
     29 C4D         6.8100  -49.3920   21.4400 C.3       1 NAP501      0.0000 
     30 O4D         7.0180  -48.4320   22.4820 O.3       1 NAP501      0.0000 
     31 C3D         7.1320  -50.7620   22.0140 C.3       1 NAP501      0.0000 
     32 O3D         8.3040  -51.2710   21.3730 O.3       1 NAP501      0.0000 
     33 C2D         7.3990  -50.5150   23.4860 C.3       1 NAP501      0.0000 
     34 O2D         8.4510  -51.3490   23.9830 O.3       1 NAP501      0.0000 
     35 C1D         7.7490  -49.0380   23.5550 C.3       1 NAP501      0.0000 
     36 N1N         7.3530  -48.4810   24.8490 N.pl3     1 NAP501      0.0000 
     37 C2N         8.2730  -48.3420   25.8170 C.ar      1 NAP501      0.0000 
     38 C3N         7.9220  -47.8180   27.0590 C.ar      1 NAP501      0.0000 
     39 C7N         8.9520  -47.6480   28.1410 C.2       1 NAP501      0.0000 
     40 O7N         8.6250  -47.1520   29.2120 O.2       1 NAP501      0.0000 
     41 N7N        10.2050  -48.0280   27.8940 N.am      1 NAP501      0.0000 
     42 C4N         6.6070  -47.4390   27.2890 C.ar      1 NAP501      0.0000 
     43 C5N         5.6740  -47.5930   26.2700 C.ar      1 NAP501      0.0000 
     44 C6N         6.0780  -48.1200   25.0490 C.ar      1 NAP501      0.0000 
     45 P2B         2.3490  -41.5280   15.7230 P.3       1 NAP501      0.0000 
     46 O1X         1.6600  -42.6030   16.5280 O.co2     1 NAP501      0.0000 
     47 O2X         1.4930  -40.3200   15.4330 O.co2     1 NAP501      0.0000 
     48 O3X         3.1090  -42.0580   14.5340 O.co2     1 NAP501      0.0000 
@<TRIPOS>BOND
     1    1    2 ar   
     2    1    3 ar   
     3    1    4 1    
     4    1   23 1    
     5    4    5 1    
     6    5    6 1    
     7    6    7 1    
     8    6    8 1    
     9    7   12 1    
    10    8    9 1    
    11    8   10 1    
    12   10   11 1    
    13   10   12 1    
    14   11   45 1    
    15   12   13 1    
    16   13   14 1    
    17   13   22 1    
    18   14   15 2    
    19   15   16 1    
    20   16   17 ar   
    21   16   22 ar   
    22   17   18 1    
    23   17   19 ar   
    24   19   20 ar   
    25   20   21 ar   
    26   21   22 ar   
    27   23   24 1    
    28   24   25 ar   
    29   24   26 ar   
    30   24   27 1    
    31   27   28 1    
    32   28   29 1    
    33   29   30 1    
    34   29   31 1    
    35   30   35 1    
    36   31   32 1    
    37   31   33 1    
    38   33   34 1    
    39   33   35 1    
    40   35   36 1    
    41   36   37 ar   
    42   36   44 ar   
    43   37   38 ar   
    44   38   39 1    
    45   38   42 ar   
    46   39   40 2    
    47   39   41 am   
    48   42   43 ar   
    49   43   44 ar   
    50   45   46 ar   
    51   45   47 ar   
    52   45   48 ar   
@<TRIPOS>SUBSTRUCTURE
     1 NAP501      1 GROUP   
@<TRIPOS>SET
ATOM$ORANGE STATIC     ATOMS   COLORGROUP SYSTEM 
42 5 5 6 6 8 8 10 10 12 12 14 14 16 16 17 17 20 \
20 22 22 28 28 29 29 31 31 33 33 35 35 37 37 38 38 39 \
39 42 42 43 43 44 44 

