#    Name: 6pop_6_NAP
#    Modification time : Fri May 22 19:31:41 2020

@<TRIPOS>MOLECULE
6pop_6_NAP
   48    52     1     0     1
SMALL
NO_CHARGES


@<TRIPOS>ATOM
      1 PA         -5.9580   -7.5510   47.0360 P.3       1 NAP501      0.0000 
      2 O1A        -6.0590   -7.9230   45.5740 O.co2     1 NAP501      0.0000 
      3 O2A        -4.7310   -7.9060   47.8340 O.co2     1 NAP501      0.0000 
      4 O5B        -6.2300   -5.9720   47.1950 O.3       1 NAP501      0.0000 
      5 C5B        -5.4550   -5.1890   48.0980 C.3       1 NAP501      0.0000 
      6 C4B        -5.2860   -3.7710   47.5650 C.3       1 NAP501      0.0000 
      7 O4B        -3.9290   -3.6050   47.1540 O.3       1 NAP501      0.0000 
      8 C3B        -6.1520   -3.4940   46.3470 C.3       1 NAP501      0.0000 
      9 O3B        -6.7140   -2.1880   46.4860 O.3       1 NAP501      0.0000 
     10 C2B        -5.2090   -3.4960   45.1600 C.3       1 NAP501      0.0000 
     11 O2B        -5.5770   -2.4960   44.2130 O.3       1 NAP501      0.0000 
     12 C1B        -3.8700   -3.1620   45.7980 C.3       1 NAP501      0.0000 
     13 N9A        -2.7390   -3.8310   45.1190 N.pl3     1 NAP501      0.0000 
     14 C8A        -2.7490   -5.0370   44.5230 C.2       1 NAP501      0.0000 
     15 N7A        -1.5280   -5.3270   44.0030 N.2       1 NAP501      0.0000 
     16 C5A        -0.7140   -4.2870   44.2690 C.ar      1 NAP501      0.0000 
     17 C6A         0.7000   -3.9360   44.0070 C.ar      1 NAP501      0.0000 
     18 N6A         1.5200   -4.7780   43.3350 N.pl3     1 NAP501      0.0000 
     19 N1A         1.1450   -2.7430   44.4610 N.ar      1 NAP501      0.0000 
     20 C2A         0.3450   -1.8930   45.1310 C.ar      1 NAP501      0.0000 
     21 N3A        -0.9470   -2.1450   45.4030 N.ar      1 NAP501      0.0000 
     22 C4A        -1.5220   -3.3020   45.0010 C.ar      1 NAP501      0.0000 
     23 O3         -7.1970   -8.2200   47.8080 O.3       1 NAP501      0.0000 
     24 PN         -8.7300   -7.7970   47.5740 P.3       1 NAP501      0.0000 
     25 O1N        -9.1610   -8.2570   46.2020 O.co2     1 NAP501      0.0000 
     26 O2N        -8.9120   -6.3570   47.9880 O.co2     1 NAP501      0.0000 
     27 O5D        -9.4000   -8.7530   48.6810 O.3       1 NAP501      0.0000 
     28 C5D        -9.6650   -8.2520   49.9870 C.3       1 NAP501      0.0000 
     29 C4D        -8.8170   -9.0300   50.9880 C.3       1 NAP501      0.0000 
     30 O4D        -8.3570   -8.1430   52.0080 O.3       1 NAP501      0.0000 
     31 C3D        -9.5890  -10.1470   51.6720 C.3       1 NAP501      0.0000 
     32 O3D        -8.8610  -11.3700   51.5330 O.3       1 NAP501      0.0000 
     33 C2D        -9.6450   -9.7550   53.1360 C.3       1 NAP501      0.0000 
     34 O2D        -9.4400  -10.8810   53.9960 O.3       1 NAP501      0.0000 
     35 C1D        -8.5310   -8.7340   53.2950 C.3       1 NAP501      0.0000 
     36 N1N        -8.9010   -7.7110   54.2720 N.pl3     1 NAP501      0.0000 
     37 C2N        -8.2790   -7.6820   55.4590 C.ar      1 NAP501      0.0000 
     38 C3N        -8.6110   -6.7180   56.4020 C.ar      1 NAP501      0.0000 
     39 C7N        -7.9230   -6.6920   57.7360 C.2       1 NAP501      0.0000 
     40 O7N        -8.2260   -5.8310   58.5460 O.2       1 NAP501      0.0000 
     41 N7N        -7.0070   -7.6210   58.0050 N.am      1 NAP501      0.0000 
     42 C4N        -9.5960   -5.7850   56.1050 C.ar      1 NAP501      0.0000 
     43 C5N       -10.2210   -5.8370   54.8680 C.ar      1 NAP501      0.0000 
     44 C6N        -9.8490   -6.8190   53.9580 C.ar      1 NAP501      0.0000 
     45 P2B        -6.5580   -2.8080   42.9670 P.3       1 NAP501      0.0000 
     46 O1X        -7.8940   -3.1090   43.6030 O.co2     1 NAP501      0.0000 
     47 O2X        -6.5260   -1.5290   42.1680 O.co2     1 NAP501      0.0000 
     48 O3X        -5.9390   -3.9930   42.2710 O.co2     1 NAP501      0.0000 
@<TRIPOS>BOND
     1    1    2 ar   
     2    1    3 ar   
     3    1    4 1    
     4    1   23 1    
     5    4    5 1    
     6    5    6 1    
     7    6    7 1    
     8    6    8 1    
     9    7   12 1    
    10    8    9 1    
    11    8   10 1    
    12   10   11 1    
    13   10   12 1    
    14   11   45 1    
    15   12   13 1    
    16   13   14 1    
    17   13   22 1    
    18   14   15 2    
    19   15   16 1    
    20   16   17 ar   
    21   16   22 ar   
    22   17   18 1    
    23   17   19 ar   
    24   19   20 ar   
    25   20   21 ar   
    26   21   22 ar   
    27   23   24 1    
    28   24   25 ar   
    29   24   26 ar   
    30   24   27 1    
    31   27   28 1    
    32   28   29 1    
    33   29   30 1    
    34   29   31 1    
    35   30   35 1    
    36   31   32 1    
    37   31   33 1    
    38   33   34 1    
    39   33   35 1    
    40   35   36 1    
    41   36   37 ar   
    42   36   44 ar   
    43   37   38 ar   
    44   38   39 1    
    45   38   42 ar   
    46   39   40 2    
    47   39   41 am   
    48   42   43 ar   
    49   43   44 ar   
    50   45   46 ar   
    51   45   47 ar   
    52   45   48 ar   
@<TRIPOS>SUBSTRUCTURE
     1 NAP501      1 GROUP   
@<TRIPOS>SET
ATOM$ORANGE STATIC     ATOMS   COLORGROUP SYSTEM 
42 5 5 6 6 8 8 10 10 12 12 14 14 16 16 17 17 20 \
20 22 22 28 28 29 29 31 31 33 33 35 35 37 37 38 38 39 \
39 42 42 43 43 44 44 

