#    Name: 6ajc_5_NAP
#    Modification time : Fri May 22 19:30:33 2020

@<TRIPOS>MOLECULE
6ajc_5_NAP
   48    52     1     0     1
SMALL
NO_CHARGES


@<TRIPOS>ATOM
      1 PA         66.1010   42.8620  -25.8640 P.3       1 NAP501      0.0000 
      2 O1A        67.4000   42.2280  -25.5560 O.co2     1 NAP501      0.0000 
      3 O2A        64.9820   42.7580  -24.8380 O.co2     1 NAP501      0.0000 
      4 O5B        66.4520   44.3970  -26.1310 O.3       1 NAP501      0.0000 
      5 C5B        65.4710   45.2870  -26.6430 C.3       1 NAP501      0.0000 
      6 C4B        65.5260   46.6900  -26.0420 C.3       1 NAP501      0.0000 
      7 O4B        64.7560   46.7140  -24.8250 O.3       1 NAP501      0.0000 
      8 C3B        66.8960   47.2100  -25.6350 C.3       1 NAP501      0.0000 
      9 O3B        67.6490   47.7890  -26.7120 O.3       1 NAP501      0.0000 
     10 C2B        66.5190   48.2220  -24.5760 C.3       1 NAP501      0.0000 
     11 O2B        65.9370   49.3770  -25.1710 O.3       1 NAP501      0.0000 
     12 C1B        65.3980   47.5410  -23.8440 C.3       1 NAP501      0.0000 
     13 N9A        65.8160   46.7350  -22.6820 N.pl3     1 NAP501      0.0000 
     14 C8A        65.6640   45.4120  -22.5490 C.2       1 NAP501      0.0000 
     15 N7A        66.0890   44.9820  -21.3480 N.2       1 NAP501      0.0000 
     16 C5A        66.5080   46.0340  -20.6800 C.ar      1 NAP501      0.0000 
     17 C6A        67.0950   46.2470  -19.3520 C.ar      1 NAP501      0.0000 
     18 N6A        67.2890   45.1860  -18.5270 N.pl3     1 NAP501      0.0000 
     19 N1A        67.4310   47.5270  -19.0270 N.ar      1 NAP501      0.0000 
     20 C2A        67.2350   48.5590  -19.8770 C.ar      1 NAP501      0.0000 
     21 N3A        66.7060   48.4130  -21.1090 N.ar      1 NAP501      0.0000 
     22 C4A        66.3270   47.1970  -21.5540 C.ar      1 NAP501      0.0000 
     23 O3         65.4550   42.2300  -27.2090 O.3       1 NAP501      0.0000 
     24 PN         66.0930   42.2140  -28.6950 P.3       1 NAP501      0.0000 
     25 O1N        64.9970   41.9680  -29.6770 O.co2     1 NAP501      0.0000 
     26 O2N        66.9960   43.4170  -28.8810 O.co2     1 NAP501      0.0000 
     27 O5D        66.8780   40.7890  -28.6840 O.3       1 NAP501      0.0000 
     28 C5D        68.2460   40.5610  -28.3430 C.3       1 NAP501      0.0000 
     29 C4D        68.5680   39.0700  -28.1530 C.3       1 NAP501      0.0000 
     30 O4D        68.0760   38.5030  -26.9220 O.3       1 NAP501      0.0000 
     31 C3D        68.0170   38.2290  -29.2910 C.3       1 NAP501      0.0000 
     32 O3D        69.0610   37.3970  -29.7720 O.3       1 NAP501      0.0000 
     33 C2D        66.8710   37.4550  -28.6460 C.3       1 NAP501      0.0000 
     34 O2D        66.5850   36.1710  -29.1640 O.3       1 NAP501      0.0000 
     35 C1D        67.2780   37.3210  -27.1890 C.3       1 NAP501      0.0000 
     36 N1N        66.1350   37.2150  -26.2480 N.pl3     1 NAP501      0.0000 
     37 C2N        66.2420   36.3460  -25.2170 C.ar      1 NAP501      0.0000 
     38 C3N        65.2550   36.1830  -24.2500 C.ar      1 NAP501      0.0000 
     39 C7N        65.4560   35.2030  -23.1060 C.2       1 NAP501      0.0000 
     40 O7N        66.3510   34.3480  -23.1300 O.2       1 NAP501      0.0000 
     41 N7N        64.6860   35.2830  -22.0110 N.am      1 NAP501      0.0000 
     42 C4N        64.1100   36.9720  -24.3790 C.ar      1 NAP501      0.0000 
     43 C5N        63.9920   37.8790  -25.4340 C.ar      1 NAP501      0.0000 
     44 C6N        65.0280   37.9910  -26.3540 C.ar      1 NAP501      0.0000 
     45 P2B        66.7980   50.7070  -25.4170 P.3       1 NAP501      0.0000 
     46 O1X        67.6510   50.2210  -26.5570 O.co2     1 NAP501      0.0000 
     47 O2X        65.7870   51.7070  -25.8210 O.co2     1 NAP501      0.0000 
     48 O3X        67.4460   51.0510  -24.0820 O.co2     1 NAP501      0.0000 
@<TRIPOS>BOND
     1    1    2 ar   
     2    1    3 ar   
     3    1    4 1    
     4    1   23 1    
     5    4    5 1    
     6    5    6 1    
     7    6    7 1    
     8    6    8 1    
     9    7   12 1    
    10    8    9 1    
    11    8   10 1    
    12   10   11 1    
    13   10   12 1    
    14   11   45 1    
    15   12   13 1    
    16   13   14 1    
    17   13   22 1    
    18   14   15 2    
    19   15   16 1    
    20   16   17 ar   
    21   16   22 ar   
    22   17   18 1    
    23   17   19 ar   
    24   19   20 ar   
    25   20   21 ar   
    26   21   22 ar   
    27   23   24 1    
    28   24   25 ar   
    29   24   26 ar   
    30   24   27 1    
    31   27   28 1    
    32   28   29 1    
    33   29   30 1    
    34   29   31 1    
    35   30   35 1    
    36   31   32 1    
    37   31   33 1    
    38   33   34 1    
    39   33   35 1    
    40   35   36 1    
    41   36   37 ar   
    42   36   44 ar   
    43   37   38 ar   
    44   38   39 1    
    45   38   42 ar   
    46   39   40 2    
    47   39   41 am   
    48   42   43 ar   
    49   43   44 ar   
    50   45   46 ar   
    51   45   47 ar   
    52   45   48 ar   
@<TRIPOS>SUBSTRUCTURE
     1 NAP501      1 GROUP   
@<TRIPOS>SET
ATOM$ORANGE STATIC     ATOMS   COLORGROUP SYSTEM 
42 5 5 6 6 8 8 10 10 12 12 14 14 16 16 17 17 20 \
20 22 22 28 28 29 29 31 31 33 33 35 35 37 37 38 38 39 \
39 42 42 43 43 44 44 

