#    Name: 6ajc_3_NAP
#    Modification time : Fri May 22 19:30:00 2020

@<TRIPOS>MOLECULE
6ajc_3_NAP
   48    52     1     0     1
SMALL
NO_CHARGES


@<TRIPOS>ATOM
      1 PA        -22.8040  -60.7880   30.9720 P.3       1 NAP501      0.0000 
      2 O1A       -24.0980  -60.5940   31.6980 O.co2     1 NAP501      0.0000 
      3 O2A       -21.6630  -61.5800   31.6070 O.co2     1 NAP501      0.0000 
      4 O5B       -23.2090  -61.4640   29.5730 O.3       1 NAP501      0.0000 
      5 C5B       -22.4070  -61.3890   28.3960 C.3       1 NAP501      0.0000 
      6 C4B       -22.4860  -62.6950   27.6380 C.3       1 NAP501      0.0000 
      7 O4B       -21.6640  -63.6770   28.2510 O.3       1 NAP501      0.0000 
      8 C3B       -23.8770  -63.3330   27.6400 C.3       1 NAP501      0.0000 
      9 O3B       -24.7670  -62.6780   26.7360 O.3       1 NAP501      0.0000 
     10 C2B       -23.5590  -64.8050   27.3820 C.3       1 NAP501      0.0000 
     11 O2B       -23.1650  -65.1670   26.0560 O.3       1 NAP501      0.0000 
     12 C1B       -22.3180  -64.9670   28.2360 C.3       1 NAP501      0.0000 
     13 N9A       -22.6370  -65.4090   29.6180 N.pl3     1 NAP501      0.0000 
     14 C8A       -22.2740  -64.7710   30.7550 C.2       1 NAP501      0.0000 
     15 N7A       -22.6810  -65.4470   31.8620 N.2       1 NAP501      0.0000 
     16 C5A       -23.3040  -66.5440   31.4200 C.ar      1 NAP501      0.0000 
     17 C6A       -23.9550  -67.6820   32.0410 C.ar      1 NAP501      0.0000 
     18 N6A       -24.0230  -67.7490   33.3800 N.pl3     1 NAP501      0.0000 
     19 N1A       -24.4700  -68.6310   31.2370 N.ar      1 NAP501      0.0000 
     20 C2A       -24.4020  -68.5610   29.9070 C.ar      1 NAP501      0.0000 
     21 N3A       -23.8170  -67.5560   29.2780 N.ar      1 NAP501      0.0000 
     22 C4A       -23.2600  -66.5350   29.9590 C.ar      1 NAP501      0.0000 
     23 O3        -22.0350  -59.4010   30.6110 O.3       1 NAP501      0.0000 
     24 PN        -22.6670  -58.0150   30.0890 P.3       1 NAP501      0.0000 
     25 O1N       -21.5540  -57.1550   29.5590 O.co2     1 NAP501      0.0000 
     26 O2N       -23.8730  -58.3470   29.2020 O.co2     1 NAP501      0.0000 
     27 O5D       -23.1360  -57.3970   31.4970 O.3       1 NAP501      0.0000 
     28 C5D       -24.5290  -57.1990   31.7310 C.3       1 NAP501      0.0000 
     29 C4D       -24.7230  -56.6380   33.1290 C.3       1 NAP501      0.0000 
     30 O4D       -23.9790  -57.4270   34.0570 O.3       1 NAP501      0.0000 
     31 C3D       -24.2800  -55.1830   33.3230 C.3       1 NAP501      0.0000 
     32 O3D       -25.3980  -54.4510   33.8280 O.3       1 NAP501      0.0000 
     33 C2D       -23.1350  -55.2280   34.3210 C.3       1 NAP501      0.0000 
     34 O2D       -23.1030  -54.1790   35.3080 O.3       1 NAP501      0.0000 
     35 C1D       -23.3820  -56.5460   35.0150 C.3       1 NAP501      0.0000 
     36 N1N       -22.1990  -57.2540   35.5260 N.pl3     1 NAP501      0.0000 
     37 C2N       -22.2080  -57.6640   36.7990 C.ar      1 NAP501      0.0000 
     38 C3N       -21.1600  -58.3930   37.3430 C.ar      1 NAP501      0.0000 
     39 C7N       -21.2260  -58.8010   38.7890 C.2       1 NAP501      0.0000 
     40 O7N       -22.1510  -58.3970   39.4670 O.2       1 NAP501      0.0000 
     41 N7N       -20.3260  -59.5850   39.3590 N.am      1 NAP501      0.0000 
     42 C4N       -20.0970  -58.7050   36.5100 C.ar      1 NAP501      0.0000 
     43 C5N       -20.1200  -58.3060   35.1780 C.ar      1 NAP501      0.0000 
     44 C6N       -21.1880  -57.5690   34.7010 C.ar      1 NAP501      0.0000 
     45 P2B       -24.2060  -65.3470   24.8360 P.3       1 NAP501      0.0000 
     46 O1X       -24.8430  -63.9780   24.6980 O.co2     1 NAP501      0.0000 
     47 O2X       -23.2530  -65.6580   23.7190 O.co2     1 NAP501      0.0000 
     48 O3X       -25.1330  -66.4800   25.2490 O.co2     1 NAP501      0.0000 
@<TRIPOS>BOND
     1    1    2 ar   
     2    1    3 ar   
     3    1    4 1    
     4    1   23 1    
     5    4    5 1    
     6    5    6 1    
     7    6    7 1    
     8    6    8 1    
     9    7   12 1    
    10    8    9 1    
    11    8   10 1    
    12   10   11 1    
    13   10   12 1    
    14   11   45 1    
    15   12   13 1    
    16   13   14 1    
    17   13   22 1    
    18   14   15 2    
    19   15   16 1    
    20   16   17 ar   
    21   16   22 ar   
    22   17   18 1    
    23   17   19 ar   
    24   19   20 ar   
    25   20   21 ar   
    26   21   22 ar   
    27   23   24 1    
    28   24   25 ar   
    29   24   26 ar   
    30   24   27 1    
    31   27   28 1    
    32   28   29 1    
    33   29   30 1    
    34   29   31 1    
    35   30   35 1    
    36   31   32 1    
    37   31   33 1    
    38   33   34 1    
    39   33   35 1    
    40   35   36 1    
    41   36   37 ar   
    42   36   44 ar   
    43   37   38 ar   
    44   38   39 1    
    45   38   42 ar   
    46   39   40 2    
    47   39   41 am   
    48   42   43 ar   
    49   43   44 ar   
    50   45   46 ar   
    51   45   47 ar   
    52   45   48 ar   
@<TRIPOS>SUBSTRUCTURE
     1 NAP501      1 GROUP   
@<TRIPOS>SET
ATOM$ORANGE STATIC     ATOMS   COLORGROUP SYSTEM 
42 5 5 6 6 8 8 10 10 12 12 14 14 16 16 17 17 20 \
20 22 22 28 28 29 29 31 31 33 33 35 35 37 37 38 38 39 \
39 42 42 43 43 44 44 

