#    Name: 6ajc_4_NAP
#    Modification time : Fri May 22 19:30:17 2020

@<TRIPOS>MOLECULE
6ajc_4_NAP
   48    52     1     0     1
SMALL
NO_CHARGES


@<TRIPOS>ATOM
      1 PA          9.3010  -59.5250   25.4680 P.3       1 NAP501      0.0000 
      2 O1A        10.6470  -58.9150   25.1990 O.co2     1 NAP501      0.0000 
      3 O2A         8.1910  -59.4170   24.4510 O.co2     1 NAP501      0.0000 
      4 O5B         9.5450  -61.1060   25.5900 O.3       1 NAP501      0.0000 
      5 C5B         8.7420  -61.9020   26.4650 C.3       1 NAP501      0.0000 
      6 C4B         8.8130  -63.3580   26.0980 C.3       1 NAP501      0.0000 
      7 O4B         7.9680  -63.6420   24.9690 O.3       1 NAP501      0.0000 
      8 C3B        10.1920  -63.8670   25.7280 C.3       1 NAP501      0.0000 
      9 O3B        10.9380  -64.3230   26.8810 O.3       1 NAP501      0.0000 
     10 C2B         9.8240  -65.0050   24.7950 C.3       1 NAP501      0.0000 
     11 O2B         9.3400  -66.0790   25.5710 O.3       1 NAP501      0.0000 
     12 C1B         8.6240  -64.4880   24.0440 C.3       1 NAP501      0.0000 
     13 N9A         8.9740  -63.6680   22.8750 N.pl3     1 NAP501      0.0000 
     14 C8A         8.6880  -62.3810   22.6540 C.2       1 NAP501      0.0000 
     15 N7A         9.1530  -61.9800   21.4610 N.2       1 NAP501      0.0000 
     16 C5A         9.7190  -63.0060   20.8680 C.ar      1 NAP501      0.0000 
     17 C6A        10.3750  -63.2570   19.5800 C.ar      1 NAP501      0.0000 
     18 N6A        10.5430  -62.2930   18.6360 N.pl3     1 NAP501      0.0000 
     19 N1A        10.8110  -64.5140   19.3910 N.ar      1 NAP501      0.0000 
     20 C2A        10.6750  -65.4910   20.2970 C.ar      1 NAP501      0.0000 
     21 N3A        10.0860  -65.3380   21.4870 N.ar      1 NAP501      0.0000 
     22 C4A         9.6010  -64.1330   21.8090 C.ar      1 NAP501      0.0000 
     23 O3          8.6370  -59.0080   26.8630 O.3       1 NAP501      0.0000 
     24 PN          9.5410  -58.6760   28.1650 P.3       1 NAP501      0.0000 
     25 O1N         8.7690  -58.4660   29.4630 O.co2     1 NAP501      0.0000 
     26 O2N        10.6510  -59.6700   28.1080 O.co2     1 NAP501      0.0000 
     27 O5D        10.1760  -57.2520   27.7300 O.3       1 NAP501      0.0000 
     28 C5D        11.5790  -57.0760   27.6510 C.3       1 NAP501      0.0000 
     29 C4D        11.8730  -55.6060   27.4130 C.3       1 NAP501      0.0000 
     30 O4D        11.1480  -55.0910   26.3110 O.3       1 NAP501      0.0000 
     31 C3D        11.5510  -54.6850   28.5740 C.3       1 NAP501      0.0000 
     32 O3D        12.6710  -53.8150   28.7140 O.3       1 NAP501      0.0000 
     33 C2D        10.3450  -53.8750   28.1630 C.3       1 NAP501      0.0000 
     34 O2D        10.3590  -52.6000   28.8100 O.3       1 NAP501      0.0000 
     35 C1D        10.5440  -53.8310   26.6500 C.3       1 NAP501      0.0000 
     36 N1N         9.3860  -53.7620   25.7440 N.pl3     1 NAP501      0.0000 
     37 C2N         9.5260  -53.0760   24.5800 C.ar      1 NAP501      0.0000 
     38 C3N         8.5090  -53.0170   23.6440 C.ar      1 NAP501      0.0000 
     39 C7N         8.6620  -52.2210   22.3670 C.2       1 NAP501      0.0000 
     40 O7N         9.4240  -51.2680   22.3310 O.2       1 NAP501      0.0000 
     41 N7N         7.9940  -52.5640   21.2640 N.am      1 NAP501      0.0000 
     42 C4N         7.3370  -53.7090   23.9300 C.ar      1 NAP501      0.0000 
     43 C5N         7.2030  -54.4390   25.1140 C.ar      1 NAP501      0.0000 
     44 C6N         8.2580  -54.4710   26.0120 C.ar      1 NAP501      0.0000 
     45 P2B        10.2230  -67.3280   26.0260 P.3       1 NAP501      0.0000 
     46 O1X        11.0490  -66.9180   27.2370 O.co2     1 NAP501      0.0000 
     47 O2X         9.1250  -68.2550   26.4440 O.co2     1 NAP501      0.0000 
     48 O3X        10.9670  -67.7480   24.7730 O.co2     1 NAP501      0.0000 
@<TRIPOS>BOND
     1    1    2 ar   
     2    1    3 ar   
     3    1    4 1    
     4    1   23 1    
     5    4    5 1    
     6    5    6 1    
     7    6    7 1    
     8    6    8 1    
     9    7   12 1    
    10    8    9 1    
    11    8   10 1    
    12   10   11 1    
    13   10   12 1    
    14   11   45 1    
    15   12   13 1    
    16   13   14 1    
    17   13   22 1    
    18   14   15 2    
    19   15   16 1    
    20   16   17 ar   
    21   16   22 ar   
    22   17   18 1    
    23   17   19 ar   
    24   19   20 ar   
    25   20   21 ar   
    26   21   22 ar   
    27   23   24 1    
    28   24   25 ar   
    29   24   26 ar   
    30   24   27 1    
    31   27   28 1    
    32   28   29 1    
    33   29   30 1    
    34   29   31 1    
    35   30   35 1    
    36   31   32 1    
    37   31   33 1    
    38   33   34 1    
    39   33   35 1    
    40   35   36 1    
    41   36   37 ar   
    42   36   44 ar   
    43   37   38 ar   
    44   38   39 1    
    45   38   42 ar   
    46   39   40 2    
    47   39   41 am   
    48   42   43 ar   
    49   43   44 ar   
    50   45   46 ar   
    51   45   47 ar   
    52   45   48 ar   
@<TRIPOS>SUBSTRUCTURE
     1 NAP501      1 GROUP   
@<TRIPOS>SET
ATOM$ORANGE STATIC     ATOMS   COLORGROUP SYSTEM 
42 5 5 6 6 8 8 10 10 12 12 14 14 16 16 17 17 20 \
20 22 22 28 28 29 29 31 31 33 33 35 35 37 37 38 38 39 \
39 42 42 43 43 44 44 

