#    Name: 6ajc_8_NAP
#    Modification time : Fri May 22 19:31:22 2020

@<TRIPOS>MOLECULE
6ajc_8_NAP
   48    52     1     0     1
SMALL
NO_CHARGES


@<TRIPOS>ATOM
      1 PA         54.9370   28.4740   32.9870 P.3       1 NAP501      0.0000 
      2 O1A        54.5840   27.0740   33.4190 O.co2     1 NAP501      0.0000 
      3 O2A        55.4690   29.5050   33.9700 O.co2     1 NAP501      0.0000 
      4 O5B        56.0530   28.3770   31.8270 O.3       1 NAP501      0.0000 
      5 C5B        55.8380   28.9450   30.5450 C.3       1 NAP501      0.0000 
      6 C4B        57.1440   29.0560   29.7970 C.3       1 NAP501      0.0000 
      7 O4B        58.0720   29.8680   30.5200 O.3       1 NAP501      0.0000 
      8 C3B        57.8390   27.7230   29.6060 C.3       1 NAP501      0.0000 
      9 O3B        57.2820   27.0740   28.4610 O.3       1 NAP501      0.0000 
     10 C2B        59.2960   28.1330   29.5020 C.3       1 NAP501      0.0000 
     11 O2B        59.5930   28.5790   28.1880 O.3       1 NAP501      0.0000 
     12 C1B        59.4010   29.3320   30.4280 C.3       1 NAP501      0.0000 
     13 N9A        59.8240   28.9790   31.7970 N.pl3     1 NAP501      0.0000 
     14 C8A        59.0930   29.2250   32.9160 C.2       1 NAP501      0.0000 
     15 N7A        59.7210   28.7930   34.0240 N.2       1 NAP501      0.0000 
     16 C5A        60.8710   28.2630   33.6130 C.ar      1 NAP501      0.0000 
     17 C6A        62.0010   27.6420   34.3210 C.ar      1 NAP501      0.0000 
     18 N6A        61.9310   27.5450   35.6670 N.pl3     1 NAP501      0.0000 
     19 N1A        63.0400   27.2080   33.5540 N.ar      1 NAP501      0.0000 
     20 C2A        63.0500   27.3420   32.2000 C.ar      1 NAP501      0.0000 
     21 N3A        62.0410   27.9040   31.4940 N.ar      1 NAP501      0.0000 
     22 C4A        60.9490   28.3780   32.1470 C.ar      1 NAP501      0.0000 
     23 O3         53.6820   29.1810   32.2960 O.3       1 NAP501      0.0000 
     24 PN         52.2810   28.4880   31.9660 P.3       1 NAP501      0.0000 
     25 O1N        51.3670   29.6550   31.6890 O.co2     1 NAP501      0.0000 
     26 O2N        52.5120   27.3790   30.9510 O.co2     1 NAP501      0.0000 
     27 O5D        51.8050   27.9070   33.3850 O.3       1 NAP501      0.0000 
     28 C5D        51.4670   26.5300   33.5290 C.3       1 NAP501      0.0000 
     29 C4D        50.8550   26.3330   34.9010 C.3       1 NAP501      0.0000 
     30 O4D        51.5740   27.0910   35.8820 O.3       1 NAP501      0.0000 
     31 C3D        49.3980   26.7710   34.9680 C.3       1 NAP501      0.0000 
     32 O3D        48.6350   25.6820   35.5090 O.3       1 NAP501      0.0000 
     33 C2D        49.4050   27.9840   35.8840 C.3       1 NAP501      0.0000 
     34 O2D        48.2140   28.0730   36.6740 O.3       1 NAP501      0.0000 
     35 C1D        50.6410   27.7230   36.7410 C.3       1 NAP501      0.0000 
     36 N1N        51.3210   28.8800   37.3280 N.pl3     1 NAP501      0.0000 
     37 C2N        51.5980   28.8690   38.6520 C.ar      1 NAP501      0.0000 
     38 C3N        52.2600   29.9070   39.2970 C.ar      1 NAP501      0.0000 
     39 C7N        52.5610   29.8170   40.7830 C.2       1 NAP501      0.0000 
     40 O7N        51.9250   29.0580   41.4880 O.2       1 NAP501      0.0000 
     41 N7N        53.5400   30.5260   41.3490 N.am      1 NAP501      0.0000 
     42 C4N        52.6520   30.9810   38.5120 C.ar      1 NAP501      0.0000 
     43 C5N        52.3590   30.9980   37.1510 C.ar      1 NAP501      0.0000 
     44 C6N        51.6940   29.9240   36.5680 C.ar      1 NAP501      0.0000 
     45 P2B        60.0220   27.5040   27.0830 P.3       1 NAP501      0.0000 
     46 O1X        58.9590   26.4290   27.1380 O.co2     1 NAP501      0.0000 
     47 O2X        60.0510   28.2710   25.7700 O.co2     1 NAP501      0.0000 
     48 O3X        61.3380   27.0370   27.6760 O.co2     1 NAP501      0.0000 
@<TRIPOS>BOND
     1    1    2 ar   
     2    1    3 ar   
     3    1    4 1    
     4    1   23 1    
     5    4    5 1    
     6    5    6 1    
     7    6    7 1    
     8    6    8 1    
     9    7   12 1    
    10    8    9 1    
    11    8   10 1    
    12   10   11 1    
    13   10   12 1    
    14   11   45 1    
    15   12   13 1    
    16   13   14 1    
    17   13   22 1    
    18   14   15 2    
    19   15   16 1    
    20   16   17 ar   
    21   16   22 ar   
    22   17   18 1    
    23   17   19 ar   
    24   19   20 ar   
    25   20   21 ar   
    26   21   22 ar   
    27   23   24 1    
    28   24   25 ar   
    29   24   26 ar   
    30   24   27 1    
    31   27   28 1    
    32   28   29 1    
    33   29   30 1    
    34   29   31 1    
    35   30   35 1    
    36   31   32 1    
    37   31   33 1    
    38   33   34 1    
    39   33   35 1    
    40   35   36 1    
    41   36   37 ar   
    42   36   44 ar   
    43   37   38 ar   
    44   38   39 1    
    45   38   42 ar   
    46   39   40 2    
    47   39   41 am   
    48   42   43 ar   
    49   43   44 ar   
    50   45   46 ar   
    51   45   47 ar   
    52   45   48 ar   
@<TRIPOS>SUBSTRUCTURE
     1 NAP501      1 GROUP   
@<TRIPOS>SET
ATOM$ORANGE STATIC     ATOMS   COLORGROUP SYSTEM 
42 5 5 6 6 8 8 10 10 12 12 14 14 16 16 17 17 20 \
20 22 22 28 28 29 29 31 31 33 33 35 35 37 37 38 38 39 \
39 42 42 43 43 44 44 

