#    Name: 6ajc_7_NAP
#    Modification time : Fri May 22 19:31:06 2020

@<TRIPOS>MOLECULE
6ajc_7_NAP
   48    52     1     0     1
SMALL
NO_CHARGES


@<TRIPOS>ATOM
      1 PA         52.5500   60.5480   27.8270 P.3       1 NAP501      0.0000 
      2 O1A        51.6810   61.7270   27.5020 O.co2     1 NAP501      0.0000 
      3 O2A        52.6590   59.3750   26.8370 O.co2     1 NAP501      0.0000 
      4 O5B        54.0120   61.1280   28.1330 O.3       1 NAP501      0.0000 
      5 C5B        54.9100   60.3760   28.9810 C.3       1 NAP501      0.0000 
      6 C4B        56.3980   60.3840   28.5980 C.3       1 NAP501      0.0000 
      7 O4B        56.6570   59.5180   27.4840 O.3       1 NAP501      0.0000 
      8 C3B        56.9510   61.7410   28.1930 C.3       1 NAP501      0.0000 
      9 O3B        57.2760   62.5460   29.3250 O.3       1 NAP501      0.0000 
     10 C2B        58.1210   61.3470   27.3180 C.3       1 NAP501      0.0000 
     11 O2B        59.2470   60.8880   28.0530 O.3       1 NAP501      0.0000 
     12 C1B        57.6040   60.1340   26.5950 C.3       1 NAP501      0.0000 
     13 N9A        56.9440   60.4460   25.3120 N.pl3     1 NAP501      0.0000 
     14 C8A        55.6590   60.1980   25.0360 C.2       1 NAP501      0.0000 
     15 N7A        55.3480   60.5400   23.7690 N.2       1 NAP501      0.0000 
     16 C5A        56.4470   61.0070   23.2090 C.ar      1 NAP501      0.0000 
     17 C6A        56.7730   61.5320   21.8850 C.ar      1 NAP501      0.0000 
     18 N6A        55.7890   61.5950   20.9680 N.pl3     1 NAP501      0.0000 
     19 N1A        58.0440   61.9470   21.6630 N.ar      1 NAP501      0.0000 
     20 C2A        58.9940   61.8560   22.6270 C.ar      1 NAP501      0.0000 
     21 N3A        58.7350   61.3850   23.8680 N.ar      1 NAP501      0.0000 
     22 C4A        57.5030   60.9510   24.2190 C.ar      1 NAP501      0.0000 
     23 O3         52.0530   59.9360   29.2540 O.3       1 NAP501      0.0000 
     24 PN         51.4790   60.9440   30.3620 P.3       1 NAP501      0.0000 
     25 O1N        51.2510   60.1760   31.6320 O.co2     1 NAP501      0.0000 
     26 O2N        52.3650   62.1640   30.3250 O.co2     1 NAP501      0.0000 
     27 O5D        50.0170   61.4140   29.8550 O.3       1 NAP501      0.0000 
     28 C5D        49.5990   62.7820   29.8090 C.3       1 NAP501      0.0000 
     29 C4D        48.0950   62.8970   29.5080 C.3       1 NAP501      0.0000 
     30 O4D        47.7800   62.1930   28.2850 O.3       1 NAP501      0.0000 
     31 C3D        47.2120   62.2940   30.6080 C.3       1 NAP501      0.0000 
     32 O3D        46.3080   63.2610   31.1780 O.3       1 NAP501      0.0000 
     33 C2D        46.4670   61.1390   29.9460 C.3       1 NAP501      0.0000 
     34 O2D        45.0860   61.1420   30.2760 O.3       1 NAP501      0.0000 
     35 C1D        46.6280   61.3870   28.4530 C.3       1 NAP501      0.0000 
     36 N1N        46.8300   60.2390   27.5500 N.pl3     1 NAP501      0.0000 
     37 C2N        46.1730   60.2570   26.3660 C.ar      1 NAP501      0.0000 
     38 C3N        46.3040   59.2460   25.4360 C.ar      1 NAP501      0.0000 
     39 C7N        45.5440   59.3170   24.1280 C.2       1 NAP501      0.0000 
     40 O7N        44.4490   59.8860   24.0610 O.2       1 NAP501      0.0000 
     41 N7N        46.0950   58.8000   23.0180 N.am      1 NAP501      0.0000 
     42 C4N        47.1890   58.2210   25.7520 C.ar      1 NAP501      0.0000 
     43 C5N        47.8790   58.2090   26.9730 C.ar      1 NAP501      0.0000 
     44 C6N        47.6890   59.2480   27.8570 C.ar      1 NAP501      0.0000 
     45 P2B        60.4710   61.8240   28.5490 P.3       1 NAP501      0.0000 
     46 O1X        59.7620   62.4160   29.7420 O.co2     1 NAP501      0.0000 
     47 O2X        61.6240   60.9130   28.9040 O.co2     1 NAP501      0.0000 
     48 O3X        60.8120   62.6530   27.3440 O.co2     1 NAP501      0.0000 
@<TRIPOS>BOND
     1    1    2 ar   
     2    1    3 ar   
     3    1    4 1    
     4    1   23 1    
     5    4    5 1    
     6    5    6 1    
     7    6    7 1    
     8    6    8 1    
     9    7   12 1    
    10    8    9 1    
    11    8   10 1    
    12   10   11 1    
    13   10   12 1    
    14   11   45 1    
    15   12   13 1    
    16   13   14 1    
    17   13   22 1    
    18   14   15 2    
    19   15   16 1    
    20   16   17 ar   
    21   16   22 ar   
    22   17   18 1    
    23   17   19 ar   
    24   19   20 ar   
    25   20   21 ar   
    26   21   22 ar   
    27   23   24 1    
    28   24   25 ar   
    29   24   26 ar   
    30   24   27 1    
    31   27   28 1    
    32   28   29 1    
    33   29   30 1    
    34   29   31 1    
    35   30   35 1    
    36   31   32 1    
    37   31   33 1    
    38   33   34 1    
    39   33   35 1    
    40   35   36 1    
    41   36   37 ar   
    42   36   44 ar   
    43   37   38 ar   
    44   38   39 1    
    45   38   42 ar   
    46   39   40 2    
    47   39   41 am   
    48   42   43 ar   
    49   43   44 ar   
    50   45   46 ar   
    51   45   47 ar   
    52   45   48 ar   
@<TRIPOS>SUBSTRUCTURE
     1 NAP501      1 GROUP   
@<TRIPOS>SET
ATOM$ORANGE STATIC     ATOMS   COLORGROUP SYSTEM 
42 5 5 6 6 8 8 10 10 12 12 14 14 16 16 17 17 20 \
20 22 22 28 28 29 29 31 31 33 33 35 35 37 37 38 38 39 \
39 42 42 43 43 44 44 

