#    Name: 6ajc_6_NAP
#    Modification time : Fri May 22 19:30:49 2020

@<TRIPOS>MOLECULE
6ajc_6_NAP
   48    52     1     0     1
SMALL
NO_CHARGES


@<TRIPOS>ATOM
      1 PA         33.9380   44.0200  -29.4890 P.3       1 NAP501      0.0000 
      2 O1A        32.6820   43.9310  -30.3010 O.co2     1 NAP501      0.0000 
      3 O2A        35.0800   44.9140  -29.9530 O.co2     1 NAP501      0.0000 
      4 O5B        33.4660   44.3830  -28.0000 O.3       1 NAP501      0.0000 
      5 C5B        34.3880   44.4600  -26.9280 C.3       1 NAP501      0.0000 
      6 C4B        34.1900   45.7040  -26.0770 C.3       1 NAP501      0.0000 
      7 O4B        35.0190   46.7710  -26.5540 O.3       1 NAP501      0.0000 
      8 C3B        32.7890   46.3140  -25.9990 C.3       1 NAP501      0.0000 
      9 O3B        31.9270   45.5860  -25.1010 O.3       1 NAP501      0.0000 
     10 C2B        33.1130   47.7410  -25.5700 C.3       1 NAP501      0.0000 
     11 O2B        33.5920   47.8800  -24.2410 O.3       1 NAP501      0.0000 
     12 C1B        34.3560   48.0160  -26.3760 C.3       1 NAP501      0.0000 
     13 N9A        34.0030   48.5130  -27.6990 N.pl3     1 NAP501      0.0000 
     14 C8A        34.2210   47.9130  -28.8840 C.2       1 NAP501      0.0000 
     15 N7A        33.7830   48.6730  -29.9010 N.2       1 NAP501      0.0000 
     16 C5A        33.2660   49.7810  -29.3430 C.ar      1 NAP501      0.0000 
     17 C6A        32.6200   51.0070  -29.8430 C.ar      1 NAP501      0.0000 
     18 N6A        32.4600   51.1530  -31.1740 N.pl3     1 NAP501      0.0000 
     19 N1A        32.2140   51.9230  -28.9180 N.ar      1 NAP501      0.0000 
     20 C2A        32.3910   51.7480  -27.5840 C.ar      1 NAP501      0.0000 
     21 N3A        32.9740   50.6520  -27.0550 N.ar      1 NAP501      0.0000 
     22 C4A        33.4150   49.6740  -27.8870 C.ar      1 NAP501      0.0000 
     23 O3         34.6650   42.6240  -29.2890 O.3       1 NAP501      0.0000 
     24 PN         34.0220   41.1960  -29.0610 P.3       1 NAP501      0.0000 
     25 O1N        35.2790   40.3460  -28.9730 O.co2     1 NAP501      0.0000 
     26 O2N        32.9680   41.2200  -27.9540 O.co2     1 NAP501      0.0000 
     27 O5D        33.3510   40.9230  -30.5010 O.3       1 NAP501      0.0000 
     28 C5D        31.9360   40.7160  -30.6580 C.3       1 NAP501      0.0000 
     29 C4D        31.7140   40.1660  -32.0630 C.3       1 NAP501      0.0000 
     30 O4D        32.3010   41.0080  -33.0810 O.3       1 NAP501      0.0000 
     31 C3D        32.3210   38.7710  -32.2270 C.3       1 NAP501      0.0000 
     32 O3D        31.2860   37.9160  -32.6440 O.3       1 NAP501      0.0000 
     33 C2D        33.3700   38.8730  -33.3160 C.3       1 NAP501      0.0000 
     34 O2D        33.3770   37.7690  -34.2380 O.3       1 NAP501      0.0000 
     35 C1D        32.9950   40.1830  -34.0180 C.3       1 NAP501      0.0000 
     36 N1N        34.0930   40.9840  -34.5200 N.pl3     1 NAP501      0.0000 
     37 C2N        34.0150   41.4940  -35.7570 C.ar      1 NAP501      0.0000 
     38 C3N        35.0290   42.2960  -36.2880 C.ar      1 NAP501      0.0000 
     39 C7N        34.8740   42.8510  -37.6730 C.2       1 NAP501      0.0000 
     40 O7N        34.0280   42.3360  -38.3970 O.2       1 NAP501      0.0000 
     41 N7N        35.5830   43.9100  -38.1000 N.am      1 NAP501      0.0000 
     42 C4N        36.1280   42.5870  -35.4790 C.ar      1 NAP501      0.0000 
     43 C5N        36.1990   42.0720  -34.1890 C.ar      1 NAP501      0.0000 
     44 C6N        35.1510   41.2760  -33.7260 C.ar      1 NAP501      0.0000 
     45 P2B        32.6490   47.9430  -22.9460 P.3       1 NAP501      0.0000 
     46 O1X        32.0290   46.5820  -22.8420 O.co2     1 NAP501      0.0000 
     47 O2X        33.6400   48.2460  -21.8490 O.co2     1 NAP501      0.0000 
     48 O3X        31.7690   49.1130  -23.2820 O.co2     1 NAP501      0.0000 
@<TRIPOS>BOND
     1    1    2 ar   
     2    1    3 ar   
     3    1    4 1    
     4    1   23 1    
     5    4    5 1    
     6    5    6 1    
     7    6    7 1    
     8    6    8 1    
     9    7   12 1    
    10    8    9 1    
    11    8   10 1    
    12   10   11 1    
    13   10   12 1    
    14   11   45 1    
    15   12   13 1    
    16   13   14 1    
    17   13   22 1    
    18   14   15 2    
    19   15   16 1    
    20   16   17 ar   
    21   16   22 ar   
    22   17   18 1    
    23   17   19 ar   
    24   19   20 ar   
    25   20   21 ar   
    26   21   22 ar   
    27   23   24 1    
    28   24   25 ar   
    29   24   26 ar   
    30   24   27 1    
    31   27   28 1    
    32   28   29 1    
    33   29   30 1    
    34   29   31 1    
    35   30   35 1    
    36   31   32 1    
    37   31   33 1    
    38   33   34 1    
    39   33   35 1    
    40   35   36 1    
    41   36   37 ar   
    42   36   44 ar   
    43   37   38 ar   
    44   38   39 1    
    45   38   42 ar   
    46   39   40 2    
    47   39   41 am   
    48   42   43 ar   
    49   43   44 ar   
    50   45   46 ar   
    51   45   47 ar   
    52   45   48 ar   
@<TRIPOS>SUBSTRUCTURE
     1 NAP501      1 GROUP   
@<TRIPOS>SET
ATOM$ORANGE STATIC     ATOMS   COLORGROUP SYSTEM 
42 5 5 6 6 8 8 10 10 12 12 14 14 16 16 17 17 20 \
20 22 22 28 28 29 29 31 31 33 33 35 35 37 37 38 38 39 \
39 42 42 43 43 44 44 

