#    Name: 6ajc_2_NAP
#    Modification time : Fri May 22 19:29:43 2020

@<TRIPOS>MOLECULE
6ajc_2_NAP
   48    52     1     0     1
SMALL
NO_CHARGES


@<TRIPOS>ATOM
      1 PA         11.3710   15.9900   32.0450 P.3       1 NAP501      0.0000 
      2 O1A        11.5880   17.3210   32.6440 O.co2     1 NAP501      0.0000 
      3 O2A        10.7450   14.8520   32.8600 O.co2     1 NAP501      0.0000 
      4 O5B        10.4640   16.3040   30.7350 O.3       1 NAP501      0.0000 
      5 C5B        10.7250   15.6990   29.4600 C.3       1 NAP501      0.0000 
      6 C4B         9.4850   15.6520   28.5780 C.3       1 NAP501      0.0000 
      7 O4B         8.4830   14.7540   29.0990 O.3       1 NAP501      0.0000 
      8 C3B         8.8120   17.0030   28.4300 C.3       1 NAP501      0.0000 
      9 O3B         9.4230   17.7290   27.3680 O.3       1 NAP501      0.0000 
     10 C2B         7.3520   16.6160   28.2360 C.3       1 NAP501      0.0000 
     11 O2B         7.0790   16.1770   26.9240 O.3       1 NAP501      0.0000 
     12 C1B         7.1870   15.3670   29.0790 C.3       1 NAP501      0.0000 
     13 N9A         6.7660   15.6580   30.4720 N.pl3     1 NAP501      0.0000 
     14 C8A         7.4410   15.3730   31.6180 C.2       1 NAP501      0.0000 
     15 N7A         6.7510   15.7490   32.7130 N.2       1 NAP501      0.0000 
     16 C5A         5.6150   16.2850   32.2690 C.ar      1 NAP501      0.0000 
     17 C6A         4.4240   16.8800   32.9050 C.ar      1 NAP501      0.0000 
     18 N6A         4.3790   16.9610   34.2590 N.pl3     1 NAP501      0.0000 
     19 N1A         3.4300   17.3360   32.0750 N.ar      1 NAP501      0.0000 
     20 C2A         3.5280   17.2360   30.7220 C.ar      1 NAP501      0.0000 
     21 N3A         4.5740   16.6970   30.0670 N.ar      1 NAP501      0.0000 
     22 C4A         5.6250   16.2290   30.7910 C.ar      1 NAP501      0.0000 
     23 O3         12.7260   15.2460   31.5140 O.3       1 NAP501      0.0000 
     24 PN         14.1600   15.8660   31.1040 P.3       1 NAP501      0.0000 
     25 O1N        15.0300   14.6790   30.7740 O.co2     1 NAP501      0.0000 
     26 O2N        13.8480   16.9800   30.1040 O.co2     1 NAP501      0.0000 
     27 O5D        14.7170   16.4200   32.5180 O.3       1 NAP501      0.0000 
     28 C5D        14.9000   17.8200   32.7680 C.3       1 NAP501      0.0000 
     29 C4D        15.4380   18.0520   34.1820 C.3       1 NAP501      0.0000 
     30 O4D        14.7050   17.3150   35.1840 O.3       1 NAP501      0.0000 
     31 C3D        16.9010   17.6460   34.3120 C.3       1 NAP501      0.0000 
     32 O3D        17.5800   18.7140   34.9760 O.3       1 NAP501      0.0000 
     33 C2D        16.8790   16.3680   35.1360 C.3       1 NAP501      0.0000 
     34 O2D        18.0820   16.1330   35.9010 O.3       1 NAP501      0.0000 
     35 C1D        15.6400   16.5970   36.0110 C.3       1 NAP501      0.0000 
     36 N1N        14.9130   15.4390   36.5620 N.pl3     1 NAP501      0.0000 
     37 C2N        14.5080   15.4530   37.8490 C.ar      1 NAP501      0.0000 
     38 C3N        13.7690   14.4110   38.3980 C.ar      1 NAP501      0.0000 
     39 C7N        13.3550   14.4430   39.8380 C.2       1 NAP501      0.0000 
     40 O7N        13.9900   15.1160   40.6270 O.2       1 NAP501      0.0000 
     41 N7N        12.2950   13.7510   40.2610 N.am      1 NAP501      0.0000 
     42 C4N        13.4230   13.3550   37.5800 C.ar      1 NAP501      0.0000 
     43 C5N        13.8280   13.3500   36.2540 C.ar      1 NAP501      0.0000 
     44 C6N        14.5740   14.4110   35.7600 C.ar      1 NAP501      0.0000 
     45 P2B         6.7600   17.1430   25.7010 P.3       1 NAP501      0.0000 
     46 O1X         8.1150   17.7270   25.3560 O.co2     1 NAP501      0.0000 
     47 O2X         6.2550   16.1420   24.6940 O.co2     1 NAP501      0.0000 
     48 O3X         5.6560   18.0270   26.2170 O.co2     1 NAP501      0.0000 
@<TRIPOS>BOND
     1    1    2 ar   
     2    1    3 ar   
     3    1    4 1    
     4    1   23 1    
     5    4    5 1    
     6    5    6 1    
     7    6    7 1    
     8    6    8 1    
     9    7   12 1    
    10    8    9 1    
    11    8   10 1    
    12   10   11 1    
    13   10   12 1    
    14   11   45 1    
    15   12   13 1    
    16   13   14 1    
    17   13   22 1    
    18   14   15 2    
    19   15   16 1    
    20   16   17 ar   
    21   16   22 ar   
    22   17   18 1    
    23   17   19 ar   
    24   19   20 ar   
    25   20   21 ar   
    26   21   22 ar   
    27   23   24 1    
    28   24   25 ar   
    29   24   26 ar   
    30   24   27 1    
    31   27   28 1    
    32   28   29 1    
    33   29   30 1    
    34   29   31 1    
    35   30   35 1    
    36   31   32 1    
    37   31   33 1    
    38   33   34 1    
    39   33   35 1    
    40   35   36 1    
    41   36   37 ar   
    42   36   44 ar   
    43   37   38 ar   
    44   38   39 1    
    45   38   42 ar   
    46   39   40 2    
    47   39   41 am   
    48   42   43 ar   
    49   43   44 ar   
    50   45   46 ar   
    51   45   47 ar   
    52   45   48 ar   
@<TRIPOS>SUBSTRUCTURE
     1 NAP501      1 GROUP   
@<TRIPOS>SET
ATOM$ORANGE STATIC     ATOMS   COLORGROUP SYSTEM 
42 5 5 6 6 8 8 10 10 12 12 14 14 16 16 17 17 20 \
20 22 22 28 28 29 29 31 31 33 33 35 35 37 37 38 38 39 \
39 42 42 43 43 44 44 

