#    Name: 6ajc_1_NAP
#    Modification time : Fri May 22 19:29:28 2020

@<TRIPOS>MOLECULE
6ajc_1_NAP
   48    52     1     0     1
SMALL
NO_CHARGES


@<TRIPOS>ATOM
      1 PA         14.3190  -15.9550   25.8650 P.3       1 NAP501      0.0000 
      2 O1A        14.9390  -17.2850   25.5100 O.co2     1 NAP501      0.0000 
      3 O2A        14.4860  -14.7630   24.9220 O.co2     1 NAP501      0.0000 
      4 O5B        12.7200  -16.2380   26.0090 O.3       1 NAP501      0.0000 
      5 C5B        11.8310  -15.4230   26.7750 C.3       1 NAP501      0.0000 
      6 C4B        10.3560  -15.5290   26.3590 C.3       1 NAP501      0.0000 
      7 O4B        10.0960  -14.6190   25.3110 O.3       1 NAP501      0.0000 
      8 C3B         9.8360  -16.8630   25.8460 C.3       1 NAP501      0.0000 
      9 O3B         9.4940  -17.7980   26.8710 O.3       1 NAP501      0.0000 
     10 C2B         8.6310  -16.4490   25.0500 C.3       1 NAP501      0.0000 
     11 O2B         7.4980  -16.0960   25.8710 O.3       1 NAP501      0.0000 
     12 C1B         9.2090  -15.2120   24.3770 C.3       1 NAP501      0.0000 
     13 N9A        10.0270  -15.4950   23.1810 N.pl3     1 NAP501      0.0000 
     14 C8A        11.3380  -15.2160   23.0040 C.2       1 NAP501      0.0000 
     15 N7A        11.7510  -15.6290   21.7870 N.2       1 NAP501      0.0000 
     16 C5A        10.6900  -16.1590   21.1770 C.ar      1 NAP501      0.0000 
     17 C6A        10.4260  -16.7780   19.8740 C.ar      1 NAP501      0.0000 
     18 N6A        11.4270  -16.8870   18.9810 N.pl3     1 NAP501      0.0000 
     19 N1A         9.1820  -17.2350   19.6150 N.ar      1 NAP501      0.0000 
     20 C2A         8.1830  -17.1400   20.5220 C.ar      1 NAP501      0.0000 
     21 N3A         8.3650  -16.5870   21.7400 N.ar      1 NAP501      0.0000 
     22 C4A         9.5710  -16.0890   22.1040 C.ar      1 NAP501      0.0000 
     23 O3         14.9010  -15.3990   27.2860 O.3       1 NAP501      0.0000 
     24 PN         15.0400  -16.2690   28.6360 P.3       1 NAP501      0.0000 
     25 O1N        15.4920  -15.3280   29.7330 O.co2     1 NAP501      0.0000 
     26 O2N        13.8090  -17.1390   28.8490 O.co2     1 NAP501      0.0000 
     27 O5D        16.1950  -17.2930   28.1890 O.3       1 NAP501      0.0000 
     28 C5D        17.3360  -16.7490   27.5580 C.3       1 NAP501      0.0000 
     29 C4D        18.4540  -17.7660   27.5290 C.3       1 NAP501      0.0000 
     30 O4D        19.2100  -17.5160   26.3430 O.3       1 NAP501      0.0000 
     31 C3D        19.3760  -17.5320   28.7070 C.3       1 NAP501      0.0000 
     32 O3D        19.9770  -18.7660   29.0570 O.3       1 NAP501      0.0000 
     33 C2D        20.3350  -16.4870   28.1570 C.3       1 NAP501      0.0000 
     34 O2D        21.6530  -16.6600   28.6470 O.3       1 NAP501      0.0000 
     35 C1D        20.3110  -16.6400   26.6320 C.3       1 NAP501      0.0000 
     36 N1N        20.1210  -15.4530   25.7650 N.pl3     1 NAP501      0.0000 
     37 C2N        20.7420  -15.4530   24.5530 C.ar      1 NAP501      0.0000 
     38 C3N        20.6410  -14.4140   23.6470 C.ar      1 NAP501      0.0000 
     39 C7N        21.3610  -14.4640   22.3120 C.2       1 NAP501      0.0000 
     40 O7N        22.4610  -15.0040   22.1830 O.2       1 NAP501      0.0000 
     41 N7N        20.7480  -13.9550   21.2280 N.am      1 NAP501      0.0000 
     42 C4N        19.8020  -13.3560   24.0050 C.ar      1 NAP501      0.0000 
     43 C5N        19.1170  -13.3610   25.2240 C.ar      1 NAP501      0.0000 
     44 C6N        19.2900  -14.4300   26.1000 C.ar      1 NAP501      0.0000 
     45 P2B         6.2600  -17.0750   26.3170 P.3       1 NAP501      0.0000 
     46 O1X         6.8090  -17.9870   27.3820 O.co2     1 NAP501      0.0000 
     47 O2X         5.2090  -16.1010   26.8240 O.co2     1 NAP501      0.0000 
     48 O3X         5.8560  -17.8520   25.0770 O.co2     1 NAP501      0.0000 
@<TRIPOS>BOND
     1    1    2 ar   
     2    1    3 ar   
     3    1    4 1    
     4    1   23 1    
     5    4    5 1    
     6    5    6 1    
     7    6    7 1    
     8    6    8 1    
     9    7   12 1    
    10    8    9 1    
    11    8   10 1    
    12   10   11 1    
    13   10   12 1    
    14   11   45 1    
    15   12   13 1    
    16   13   14 1    
    17   13   22 1    
    18   14   15 2    
    19   15   16 1    
    20   16   17 ar   
    21   16   22 ar   
    22   17   18 1    
    23   17   19 ar   
    24   19   20 ar   
    25   20   21 ar   
    26   21   22 ar   
    27   23   24 1    
    28   24   25 ar   
    29   24   26 ar   
    30   24   27 1    
    31   27   28 1    
    32   28   29 1    
    33   29   30 1    
    34   29   31 1    
    35   30   35 1    
    36   31   32 1    
    37   31   33 1    
    38   33   34 1    
    39   33   35 1    
    40   35   36 1    
    41   36   37 ar   
    42   36   44 ar   
    43   37   38 ar   
    44   38   39 1    
    45   38   42 ar   
    46   39   40 2    
    47   39   41 am   
    48   42   43 ar   
    49   43   44 ar   
    50   45   46 ar   
    51   45   47 ar   
    52   45   48 ar   
@<TRIPOS>SUBSTRUCTURE
     1 NAP501      1 GROUP   
@<TRIPOS>SET
ATOM$ORANGE STATIC     ATOMS   COLORGROUP SYSTEM 
42 5 5 6 6 8 8 10 10 12 12 14 14 16 16 17 17 20 \
20 22 22 28 28 29 29 31 31 33 33 35 35 37 37 38 38 39 \
39 42 42 43 43 44 44 

