#    Name: 6o5a_1_2NC
#    Modification time : Fri May 22 19:33:30 2020

@<TRIPOS>MOLECULE
6o5a_1_2NC
   54    53     1     0     0
SMALL
NO_CHARGES


@<TRIPOS>ATOM
      1 C          17.8390   -4.0140   -5.3340 C.2       1 2NC201      0.0000 
      2 O          16.7930   -3.5360   -4.9180 O.2       1 2NC201      0.0000 
      3 CH3        18.2610   -4.1830   -6.7300 C.3       1 2NC201      0.0000 
      4 N          18.7780   -4.5140   -4.5230 N.am      1 2NC201      0.0000 
      5 CA         18.6220   -4.3280   -3.2000 C.3       1 2NC201      0.0000 
      6 C1         19.4960   -3.2480   -2.6190 C.2       1 2NC201      0.0000 
      7 O1         20.7660   -3.2340   -2.6960 O.2       1 2NC201      0.0000 
      8 CB         19.0430   -5.7120   -2.6580 C.3       1 2NC201      0.0000 
      9 OG1        18.2980   -6.8830   -2.9830 O.3       1 2NC201      0.0000 
     10 CG2        18.8900   -5.7300   -1.1730 C.3       1 2NC201      0.0000 
     11 N1         18.8190   -2.4690   -1.9240 N.am      1 2NC201      0.0000 
     12 CA1        19.4460   -1.4060   -1.3000 C.3       1 2NC201      0.0000 
     13 C2         19.2540   -1.3520    0.1890 C.2       1 2NC201      0.0000 
     14 O2         18.3740   -0.9500    0.9680 O.2       1 2NC201      0.0000 
     15 CB1        19.1610   -0.1150   -2.0570 C.3       1 2NC201      0.0000 
     16 CG1        18.9500   -0.2450   -3.5580 C.3       1 2NC201      0.0000 
     17 CG21       20.1800    0.9980   -1.9910 C.3       1 2NC201      0.0000 
     18 CD1        20.3100   -0.5460   -4.2500 C.3       1 2NC201      0.0000 
     19 N2         20.2280   -1.7180    0.8040 N.am      1 2NC201      0.0000 
     20 CA2        20.0260   -1.7090    2.2400 C.3       1 2NC201      0.0000 
     21 C3         20.6240   -0.6940    3.2130 C.3       1 2NC201      0.0000 
     22 CB2        20.5740   -2.9470    2.8850 C.3       1 2NC201      0.0000 
     23 CG         20.3180   -4.1950    2.1050 C.3       1 2NC201      0.0000 
     24 CD         18.8800   -4.5100    2.1950 C.3       1 2NC201      0.0000 
     25 CE         18.8990   -5.9280    2.6020 C.3       1 2NC201      0.0000 
     26 N3         20.4890    0.6750    2.7670 N.4       1 2NC201      0.0000 
     27 CA3        20.4020    1.7380    3.7520 C.3       1 2NC201      0.0000 
     28 C4         19.5750    1.4720    4.9310 C.2       1 2NC201      0.0000 
     29 O3         18.4100    0.9170    5.0680 O.2       1 2NC201      0.0000 
     30 CB3        20.2440    3.0280    3.0030 C.3       1 2NC201      0.0000 
     31 CG3        20.1740    4.1880    3.9280 C.3       1 2NC201      0.0000 
     32 CD2        19.5970    5.4010    3.3130 C.3       1 2NC201      0.0000 
     33 CE1        18.1280    5.2990    3.5290 C.3       1 2NC201      0.0000 
     34 N4         20.0730    1.7780    6.0330 N.am      1 2NC201      0.0000 
     35 CA4        19.3160    1.6300    7.3260 C.3       1 2NC201      0.0000 
     36 C5         19.5700    2.8280    8.3330 C.2       1 2NC201      0.0000 
     37 O4         20.7110    3.2360    8.7720 O.2       1 2NC201      0.0000 
     38 CB4        19.3570    0.2080    7.9130 C.3       1 2NC201      0.0000 
     39 CG4        18.6980    0.0470    9.1760 C.3       1 2NC201      0.0000 
     40 CD3        19.3890    0.4900   10.3080 C.2       1 2NC201      0.0000 
     41 OE1        20.5640    0.5280   10.2140 O.2       1 2NC201      0.0000 
     42 NE2        18.7320    0.7950   11.4600 N.am      1 2NC201      0.0000 
     43 N5         18.6080    3.4850    8.9000 N.am      1 2NC201      0.0000 
     44 CA5        18.7370    4.4640   10.0410 C.3       1 2NC201      0.0000 
     45 C6         17.9530    4.0700   11.2190 C.2       1 2NC201      0.0000 
     46 O5         16.8840    3.5360   11.0170 O.2       1 2NC201      0.0000 
     47 CB5        18.3260    5.7890    9.5410 C.3       1 2NC201      0.0000 
     48 CG5        19.0620    6.1800    8.3340 C.3       1 2NC201      0.0000 
     49 CD4        18.3480    7.5520    8.2510 C.3       1 2NC201      0.0000 
     50 NE         18.7330    8.1770    6.9670 N.pl3     1 2NC201      0.0000 
     51 CZ         18.2690    9.3680    6.6370 C.cat     1 2NC201      0.0000 
     52 NH1        17.3220    9.9450    7.3880 N.pl3     1 2NC201      0.0000 
     53 NH2        18.7960    9.9890    5.6020 N.pl3     1 2NC201      0.0000 
     54 N6         18.3580    4.2240   12.5030 N.am      1 2NC201      0.0000 
@<TRIPOS>BOND
     1   51   52 ar   
     2   51   53 ar   
     3    1    2 2    
     4    1    3 1    
     5    1    4 am   
     6    4    5 1    
     7    5    6 1    
     8    5    8 1    
     9    6    7 2    
    10    6   11 am   
    11    8    9 1    
    12    8   10 1    
    13   11   12 1    
    14   12   13 1    
    15   12   15 1    
    16   13   14 2    
    17   13   19 am   
    18   15   16 1    
    19   15   17 1    
    20   16   18 1    
    21   19   20 1    
    22   20   21 1    
    23   20   22 1    
    24   21   26 1    
    25   22   23 1    
    26   23   24 1    
    27   24   25 1    
    28   26   27 1    
    29   27   28 1    
    30   27   30 1    
    31   28   29 2    
    32   28   34 am   
    33   30   31 1    
    34   31   32 1    
    35   32   33 1    
    36   34   35 1    
    37   35   36 1    
    38   35   38 1    
    39   36   37 2    
    40   36   43 am   
    41   38   39 1    
    42   39   40 1    
    43   40   41 2    
    44   40   42 am   
    45   43   44 1    
    46   44   45 1    
    47   44   47 1    
    48   45   46 2    
    49   45   54 am   
    50   47   48 1    
    51   48   49 1    
    52   49   50 1    
    53   50   51 ar   
@<TRIPOS>SUBSTRUCTURE
     1 2NC201      1 GROUP   
@<TRIPOS>SET

