#    Name: 6nh6_1_H4B_CAVITY_N1_12
#    Modification time : Fri May 22 19:32:56 2020

@<TRIPOS>MOLECULE
6nh6_1_H4B_CAVITY_N1_12
   90     0     6     0     0
SMALL
NO_CHARGES


@<TRIPOS>ATOM
      1 N          63.1300   20.4600 -175.8900 N.am      1 ALA2        0.0000 
      2 N          64.5200   19.9100 -176.0500 N.am      1 ALA2        0.0000 
      3 N          68.5600   23.6200 -181.9800 N.am      1 ALA2        0.0000 
      4 N          69.9500   23.0600 -182.1400 N.am      1 ALA2        0.0000 
      5 N          63.6500   21.4700 -174.9100 N.am      1 ALA2        0.0000 
      6 O          63.4000   20.5000 -173.7900 O.2       1 ALA2        0.0000 
      7 N          66.9300   22.2800 -177.4700 N.am      1 ALA2        0.0000 
      8 N          69.3400   25.5900 -182.1200 N.am      1 ALA2        0.0000 
      9 N          69.0800   24.6200 -181.0000 N.am      1 ALA2        0.0000 
     10 N          70.7200   25.0300 -182.2800 N.am      1 ALA2        0.0000 
     11 O          64.4200   23.4400 -175.0400 O.2       1 ALA2        0.0000 
     12 N          64.1700   22.4700 -173.9200 N.am      1 ALA2        0.0000 
     13 O          65.8100   22.8800 -175.2100 O.2       1 ALA2        0.0000 
     14 N          69.2400   30.0400 -184.3300 N.am      1 ALA2        0.0000 
     15 N          68.9800   29.0700 -183.2100 N.am      1 ALA2        0.0000 
     16 N          68.7200   28.1100 -182.0900 N.am      1 ALA2        0.0000 
     17 N          68.4700   27.1500 -180.9700 N.am      1 ALA2        0.0000 
     18 N          70.6200   29.4800 -184.5000 N.am      1 ALA2        0.0000 
     19 O          70.3600   28.5200 -183.3700 O.2       1 ALA2        0.0000 
     20 N          70.1100   27.5600 -182.2500 N.am      1 ALA2        0.0000 
     21 N          69.8500   26.5900 -181.1300 N.am      1 ALA2        0.0000 
     22 OD1        61.7300   22.8600 -182.1800 O.co2     2 ASP3        0.0000 
     23 OD1        63.3700   23.2700 -183.4600 O.co2     2 ASP3        0.0000 
     24 OD1        63.1200   22.3000 -182.3400 O.co2     2 ASP3        0.0000 
     25 OD1        64.7600   22.7100 -183.6200 O.co2     2 ASP3        0.0000 
     26 OD1        63.6300   23.3100 -181.3600 O.co2     2 ASP3        0.0000 
     27 OD1        63.3800   22.3500 -180.2400 O.co2     2 ASP3        0.0000 
     28 OD1        63.1200   21.3800 -179.1200 O.co2     2 ASP3        0.0000 
     29 OD1        65.2700   23.7200 -182.6400 O.co2     2 ASP3        0.0000 
     30 OD1        65.0200   22.7500 -181.5200 O.co2     2 ASP3        0.0000 
     31 OD1        66.6600   23.1600 -182.8000 O.co2     2 ASP3        0.0000 
     32 OD1        66.6700   22.2400 -179.5800 O.co2     2 ASP3        0.0000 
     33 NZ         65.7800   25.6500 -184.8800 N.4       3 LYS4        0.0000 
     34 NZ         67.1700   25.0900 -185.0400 N.4       3 LYS4        0.0000 
     35 NZ         66.3000   26.6500 -183.9000 N.4       3 LYS4        0.0000 
     36 NZ         67.9400   27.0600 -185.1800 N.4       3 LYS4        0.0000 
     37 NZ         67.6900   26.1000 -184.0600 N.4       3 LYS4        0.0000 
     38 NZ         69.3300   26.5100 -185.3400 N.4       3 LYS4        0.0000 
     39 NZ         70.7100   25.9500 -185.5000 N.4       3 LYS4        0.0000 
     40 NZ         70.1000   28.4800 -185.4800 N.4       3 LYS4        0.0000 
     41 CZ         62.5100   24.8300 -182.3200 C.ar      4 PHE5        0.0000 
     42 CZ         63.8900   24.2700 -182.4800 C.ar      4 PHE5        0.0000 
     43 CZ         62.8700   20.4200 -178.0000 C.ar      4 PHE5        0.0000 
     44 CZ         64.6600   26.2400 -182.6200 C.ar      4 PHE5        0.0000 
     45 CZ         63.9000   23.3500 -179.2500 C.ar      4 PHE5        0.0000 
     46 CZ         63.6400   22.3900 -178.1300 C.ar      4 PHE5        0.0000 
     47 CZ         63.3900   21.4200 -177.0100 C.ar      4 PHE5        0.0000 
     48 CZ         66.0500   25.6900 -182.7800 C.ar      4 PHE5        0.0000 
     49 CZ         65.7900   24.7200 -181.6600 C.ar      4 PHE5        0.0000 
     50 CZ         65.5400   23.7600 -180.5400 C.ar      4 PHE5        0.0000 
     51 CZ         65.2800   22.8000 -179.4200 C.ar      4 PHE5        0.0000 
     52 CZ         65.0300   21.8300 -178.2900 C.ar      4 PHE5        0.0000 
     53 CZ         64.7700   20.8700 -177.1700 C.ar      4 PHE5        0.0000 
     54 CZ         67.1800   24.1700 -181.8200 C.ar      4 PHE5        0.0000 
     55 CZ         66.9200   23.2100 -180.7000 C.ar      4 PHE5        0.0000 
     56 CZ         66.4100   21.2800 -178.4600 C.ar      4 PHE5        0.0000 
     57 CZ         63.9100   22.4300 -176.0300 C.ar      4 PHE5        0.0000 
     58 CZ         66.5700   26.7000 -181.7900 C.ar      4 PHE5        0.0000 
     59 CZ         65.5500   22.8400 -177.3100 C.ar      4 PHE5        0.0000 
     60 CZ         65.2900   21.8800 -176.1900 C.ar      4 PHE5        0.0000 
     61 CZ         65.0400   20.9100 -175.0700 C.ar      4 PHE5        0.0000 
     62 CZ         67.9500   26.1400 -181.9600 C.ar      4 PHE5        0.0000 
     63 CZ         67.7000   25.1800 -180.8300 C.ar      4 PHE5        0.0000 
     64 CZ         67.4400   24.2100 -179.7100 C.ar      4 PHE5        0.0000 
     65 CZ         67.1900   23.2500 -178.5900 C.ar      4 PHE5        0.0000 
     66 CZ         66.6700   21.3200 -176.3500 C.ar      4 PHE5        0.0000 
     67 CZ         65.5500   21.9200 -174.0900 C.ar      4 PHE5        0.0000 
     68 CA         66.4000   23.1200 -184.9100 C.3       5 GLY6        0.0000 
     69 CA         66.9100   24.1300 -183.9200 C.3       5 GLY6        0.0000 
     70 CA         68.3000   23.5700 -184.0900 C.3       5 GLY6        0.0000 
     71 CA         62.0000   21.9800 -176.8500 C.3       5 GLY6        0.0000 
     72 CA         61.7500   21.0100 -175.7300 C.3       5 GLY6        0.0000 
     73 CA         69.0700   25.5400 -184.2200 C.3       5 GLY6        0.0000 
     74 CA         70.4600   24.9900 -184.3800 C.3       5 GLY6        0.0000 
     75 CA         70.2000   24.0200 -183.2600 C.3       5 GLY6        0.0000 
     76 CA         62.2700   22.0200 -174.7500 C.3       5 GLY6        0.0000 
     77 CA         71.2300   26.9600 -184.5200 C.3       5 GLY6        0.0000 
     78 CA         70.9700   25.9900 -183.4000 C.3       5 GLY6        0.0000 
     79 CA         72.1000   24.4800 -182.4400 C.3       5 GLY6        0.0000 
     80 CA         71.4900   27.0000 -182.4200 C.3       5 GLY6        0.0000 
     81 DU         65.0100   23.6800 -184.7500 H         6 CUB7        0.0000 
     82 DU         64.1500   25.2400 -183.6000 H         6 CUB7        0.0000 
     83 DU         65.5300   24.6800 -183.7600 H         6 CUB7        0.0000 
     84 DU         67.4300   25.1300 -182.9400 H         6 CUB7        0.0000 
     85 DU         68.8200   24.5800 -183.1000 H         6 CUB7        0.0000 
     86 DU         66.8200   27.6600 -182.9100 H         6 CUB7        0.0000 
     87 DU         68.4600   28.0700 -184.2000 H         6 CUB7        0.0000 
     88 DU         68.2100   27.1000 -183.0800 H         6 CUB7        0.0000 
     89 DU         69.8500   27.5100 -184.3600 H         6 CUB7        0.0000 
     90 DU         69.5900   26.5500 -183.2400 H         6 CUB7        0.0000 
@<TRIPOS>BOND
@<TRIPOS>SUBSTRUCTURE
     1 ALA2        1 GROUP   
     2 ASP3       22 GROUP   
     3 LYS4       33 GROUP   
     4 PHE5       41 GROUP   
     5 GLY6       68 GROUP   
     6 CUB7       81 GROUP   
@<TRIPOS>SET

