#    Name: 6nh6_1_H4B
#    Modification time : Fri May 22 19:32:55 2020

@<TRIPOS>MOLECULE
6nh6_1_H4B
   17    18     1     0     1
SMALL
NO_CHARGES


@<TRIPOS>ATOM
      1 N1         67.0990   22.9140 -178.9360 N.2       1 H4B502      0.0000 
      2 C2         66.8880   23.3460 -180.2040 C.2       1 H4B502      0.0000 
      3 N2         67.9250   23.8240 -180.9460 N.pl3     1 H4B502      0.0000 
      4 N3         65.6390   23.3030 -180.7360 N.am      1 H4B502      0.0000 
      5 C4         64.5850   22.8310 -180.0200 C.2       1 H4B502      0.0000 
      6 O4         63.4340   22.8010 -180.5240 O.2       1 H4B502      0.0000 
      7 C4A        64.7920   22.3920 -178.7220 C.2       1 H4B502      0.0000 
      8 C8A        66.0730   22.4380 -178.1900 C.2       1 H4B502      0.0000 
      9 N5         63.7690   21.9190 -177.9780 N.3       1 H4B502      0.0000 
     10 N8         66.3070   22.0200 -176.9210 N.pl3     1 H4B502      0.0000 
     11 C6         63.9060   22.0100 -176.5320 C.3       1 H4B502      0.0000 
     12 C7         65.2570   21.4660 -176.0720 C.3       1 H4B502      0.0000 
     13 C9         62.7330   21.3390 -175.8080 C.3       1 H4B502      0.0000 
     14 O9         62.4120   20.0610 -176.3780 O.3       1 H4B502      0.0000 
     15 C10        63.0430   21.1630 -174.3270 C.3       1 H4B502      0.0000 
     16 C11        61.8670   20.4980 -173.6200 C.3       1 H4B502      0.0000 
     17 O10        63.3510   22.4410 -173.7510 O.3       1 H4B502      0.0000 
@<TRIPOS>BOND
     1    1    2 2    
     2    1    8 1    
     3    2    3 1    
     4    2    4 1    
     5    4    5 am   
     6    5    6 2    
     7    5    7 1    
     8    7    8 2    
     9    7    9 1    
    10    8   10 1    
    11    9   11 1    
    12   10   12 1    
    13   11   12 1    
    14   11   13 1    
    15   13   14 1    
    16   13   15 1    
    17   15   16 1    
    18   15   17 1    
@<TRIPOS>SUBSTRUCTURE
     1 H4B502      1 GROUP   
@<TRIPOS>SET
ATOM$ORANGE STATIC     ATOMS   COLORGROUP SYSTEM 
18 2 2 5 5 7 7 8 8 11 11 12 12 13 13 15 15 16 \
16 

