#    Name: 5oeq_3_FAD
#    Modification time : Fri May 22 19:22:06 2020

@<TRIPOS>MOLECULE
5oeq_3_FAD
   53    58     1     0     1
SMALL
NO_CHARGES


@<TRIPOS>ATOM
      1 PA        -12.3030  -20.5760   -4.1500 P.3       1 FAD900      0.0000 
      2 O1A       -13.3580  -21.6380   -4.1850 O.co2     1 FAD900      0.0000 
      3 O2A       -10.8700  -20.9430   -4.4020 O.co2     1 FAD900      0.0000 
      4 O5B       -12.5880  -19.3690   -5.1160 O.3       1 FAD900      0.0000 
      5 C5B       -13.9600  -18.9490   -5.2560 C.3       1 FAD900      0.0000 
      6 C4B       -14.0520  -17.6380   -6.0230 C.3       1 FAD900      0.0000 
      7 O4B       -13.3600  -16.6270   -5.2560 O.3       1 FAD900      0.0000 
      8 C3B       -13.3940  -17.7410   -7.4010 C.3       1 FAD900      0.0000 
      9 O3B       -14.1700  -16.9990   -8.3380 O.3       1 FAD900      0.0000 
     10 C2B       -12.0790  -17.0230   -7.1900 C.3       1 FAD900      0.0000 
     11 O2B       -11.5410  -16.4460   -8.3890 O.3       1 FAD900      0.0000 
     12 C1B       -12.4220  -16.0000   -6.1240 C.3       1 FAD900      0.0000 
     13 N9A       -11.2560  -15.5810   -5.3470 N.pl3     1 FAD900      0.0000 
     14 C8A       -10.5850  -16.3170   -4.4330 C.2       1 FAD900      0.0000 
     15 N7A        -9.5660  -15.5990   -3.9490 N.2       1 FAD900      0.0000 
     16 C5A        -9.5510  -14.4010   -4.5290 C.ar      1 FAD900      0.0000 
     17 C6A        -8.7170  -13.1910   -4.4700 C.ar      1 FAD900      0.0000 
     18 N6A        -7.6790  -13.0970   -3.6240 N.pl3     1 FAD900      0.0000 
     19 N1A        -9.0400  -12.1530   -5.2750 N.ar      1 FAD900      0.0000 
     20 C2A       -10.0910  -12.1890   -6.1410 C.ar      1 FAD900      0.0000 
     21 N3A       -10.9040  -13.2690   -6.2430 N.ar      1 FAD900      0.0000 
     22 C4A       -10.6810  -14.3850   -5.4710 C.ar      1 FAD900      0.0000 
     23 N1        -21.1250  -20.2940    1.0240 N.2       1 FAD900      0.0000 
     24 C2        -21.9930  -19.4950    1.6870 C.2       1 FAD900      0.0000 
     25 O2        -22.2210  -18.3580    1.2170 O.2       1 FAD900      0.0000 
     26 N3        -22.6190  -19.9040    2.8100 N.am      1 FAD900      0.0000 
     27 C4        -22.3960  -21.1250    3.3500 C.2       1 FAD900      0.0000 
     28 O4        -22.9430  -21.5110    4.4060 O.2       1 FAD900      0.0000 
     29 C4X       -21.4710  -22.0400    2.6690 C.2       1 FAD900      0.0000 
     30 N5        -21.2010  -23.2660    3.1610 N.2       1 FAD900      0.0000 
     31 C5X       -20.3350  -24.1060    2.5410 C.ar      1 FAD900      0.0000 
     32 C6        -20.1090  -25.3730    3.0960 C.ar      1 FAD900      0.0000 
     33 C7        -19.2160  -26.2490    2.4850 C.ar      1 FAD900      0.0000 
     34 C7M       -18.9800  -27.6130    3.1100 C.3       1 FAD900      0.0000 
     35 C8        -18.4960  -25.8200    1.2370 C.ar      1 FAD900      0.0000 
     36 C8M       -17.5290  -26.7520    0.5370 C.3       1 FAD900      0.0000 
     37 C9        -18.7410  -24.5540    0.6840 C.ar      1 FAD900      0.0000 
     38 C9A       -19.6320  -23.6620    1.2880 C.ar      1 FAD900      0.0000 
     39 N10       -19.9150  -22.3560    0.7670 N.pl3     1 FAD900      0.0000 
     40 C10       -20.8340  -21.5390    1.4400 C.2       1 FAD900      0.0000 
     41 C1'       -19.2920  -21.8120   -0.4430 C.3       1 FAD900      0.0000 
     42 C2'       -17.9660  -21.1320   -0.0660 C.3       1 FAD900      0.0000 
     43 O2'       -18.0920  -20.3780    1.1590 O.3       1 FAD900      0.0000 
     44 C3'       -17.5560  -20.1560   -1.1640 C.3       1 FAD900      0.0000 
     45 O3'       -17.5400  -20.8530   -2.4080 O.3       1 FAD900      0.0000 
     46 C4'       -16.1870  -19.5010   -0.9460 C.3       1 FAD900      0.0000 
     47 O4'       -16.1320  -18.4510   -1.9220 O.3       1 FAD900      0.0000 
     48 C5'       -14.9980  -20.4720   -1.1150 C.3       1 FAD900      0.0000 
     49 O5'       -13.7830  -19.8630   -0.6280 O.3       1 FAD900      0.0000 
     50 P         -12.3810  -20.2310   -1.2660 P.3       1 FAD900      0.0000 
     51 O1P       -11.3430  -19.3620   -0.6170 O.co2     1 FAD900      0.0000 
     52 O2P       -12.1660  -21.7020   -1.3210 O.co2     1 FAD900      0.0000 
     53 O3P       -12.4790  -19.7160   -2.7930 O.3       1 FAD900      0.0000 
@<TRIPOS>BOND
     1    1    2 ar   
     2    1    3 ar   
     3    1    4 1    
     4    1   53 1    
     5    4    5 1    
     6    5    6 1    
     7    6    7 1    
     8    6    8 1    
     9    7   12 1    
    10    8    9 1    
    11    8   10 1    
    12   10   11 1    
    13   10   12 1    
    14   12   13 1    
    15   13   14 1    
    16   13   22 1    
    17   14   15 2    
    18   15   16 1    
    19   16   17 ar   
    20   16   22 ar   
    21   17   18 1    
    22   17   19 ar   
    23   19   20 ar   
    24   20   21 ar   
    25   21   22 ar   
    26   23   24 1    
    27   23   40 2    
    28   24   25 2    
    29   24   26 am   
    30   26   27 am   
    31   27   28 2    
    32   27   29 1    
    33   29   30 2    
    34   29   40 1    
    35   30   31 1    
    36   31   32 ar   
    37   31   38 ar   
    38   32   33 ar   
    39   33   34 1    
    40   33   35 ar   
    41   35   36 1    
    42   35   37 ar   
    43   37   38 ar   
    44   38   39 1    
    45   39   40 1    
    46   39   41 1    
    47   41   42 1    
    48   42   43 1    
    49   42   44 1    
    50   44   45 1    
    51   44   46 1    
    52   46   47 1    
    53   46   48 1    
    54   48   49 1    
    55   49   50 1    
    56   50   51 ar   
    57   50   52 ar   
    58   50   53 1    
@<TRIPOS>SUBSTRUCTURE
     1 FAD900      1 GROUP   
@<TRIPOS>SET
ATOM$ORANGE STATIC     ATOMS   COLORGROUP SYSTEM 
54 5 5 6 6 8 8 10 10 12 12 14 14 16 16 17 17 20 \
20 22 22 24 24 27 27 29 29 31 31 32 32 33 33 34 34 35 \
35 36 36 37 37 38 38 40 40 41 41 42 42 44 44 46 46 48 \
48 

