#    Name: 5oeq_2_FAD
#    Modification time : Fri May 22 19:22:02 2020

@<TRIPOS>MOLECULE
5oeq_2_FAD
   53    58     1     0     1
SMALL
NO_CHARGES


@<TRIPOS>ATOM
      1 PA          2.9980   -8.0440   41.4300 P.3       1 FAD501      0.0000 
      2 O1A         3.8450   -9.1410   42.0440 O.co2     1 FAD501      0.0000 
      3 O2A         1.5430   -8.0000   41.7390 O.co2     1 FAD501      0.0000 
      4 O5B         3.6710   -6.6220   41.6530 O.3       1 FAD501      0.0000 
      5 C5B         5.0960   -6.4980   41.4850 C.3       1 FAD501      0.0000 
      6 C4B         5.5210   -5.0250   41.4620 C.3       1 FAD501      0.0000 
      7 O4B         5.0230   -4.4350   40.2600 O.3       1 FAD501      0.0000 
      8 C3B         4.9760   -4.1760   42.6160 C.3       1 FAD501      0.0000 
      9 O3B         5.9770   -3.2310   42.9420 O.3       1 FAD501      0.0000 
     10 C2B         3.8140   -3.4620   41.9660 C.3       1 FAD501      0.0000 
     11 O2B         3.4130   -2.2210   42.5560 O.3       1 FAD501      0.0000 
     12 C1B         4.3000   -3.2760   40.5490 C.3       1 FAD501      0.0000 
     13 N9A         3.1650   -3.1840   39.6360 N.pl3     1 FAD501      0.0000 
     14 C8A         2.2880   -4.1680   39.3100 C.2       1 FAD501      0.0000 
     15 N7A         1.3630   -3.6690   38.4700 N.2       1 FAD501      0.0000 
     16 C5A         1.6520   -2.3720   38.2370 C.ar      1 FAD501      0.0000 
     17 C6A         1.0730   -1.2510   37.4390 C.ar      1 FAD501      0.0000 
     18 N6A        -0.0400   -1.4540   36.6810 N.pl3     1 FAD501      0.0000 
     19 N1A         1.6810   -0.0310   37.4920 N.ar      1 FAD501      0.0000 
     20 C2A         2.7690    0.2010   38.2640 C.ar      1 FAD501      0.0000 
     21 N3A         3.3670   -0.7800   38.9890 N.ar      1 FAD501      0.0000 
     22 C4A         2.8500   -2.0510   39.0180 C.ar      1 FAD501      0.0000 
     23 N1         11.3090  -12.4910   37.4790 N.2       1 FAD501      0.0000 
     24 C2         12.2630  -12.3650   36.5770 C.2       1 FAD501      0.0000 
     25 O2         12.6930  -11.2190   36.3710 O.2       1 FAD501      0.0000 
     26 N3         12.7070  -13.4260   35.8810 N.am      1 FAD501      0.0000 
     27 C4         12.2290  -14.6680   36.1010 C.2       1 FAD501      0.0000 
     28 O4         12.6170  -15.6630   35.4630 O.2       1 FAD501      0.0000 
     29 C4X        11.1830  -14.8710   37.1090 C.2       1 FAD501      0.0000 
     30 N5         10.6430  -16.0820   37.3640 N.2       1 FAD501      0.0000 
     31 C5X         9.6620  -16.2300   38.2760 C.ar      1 FAD501      0.0000 
     32 C6          9.1130  -17.5040   38.4930 C.ar      1 FAD501      0.0000 
     33 C7          8.1210  -17.6460   39.4400 C.ar      1 FAD501      0.0000 
     34 C7M         7.5190  -19.0120   39.7110 C.3       1 FAD501      0.0000 
     35 C8          7.6100  -16.4560   40.1920 C.ar      1 FAD501      0.0000 
     36 C8M         6.5240  -16.6120   41.2430 C.3       1 FAD501      0.0000 
     37 C9          8.1510  -15.1990   39.9460 C.ar      1 FAD501      0.0000 
     38 C9A         9.1710  -15.0380   39.0220 C.ar      1 FAD501      0.0000 
     39 N10         9.7310  -13.7760   38.7580 N.pl3     1 FAD501      0.0000 
     40 C10        10.7340  -13.6710   37.7950 C.2       1 FAD501      0.0000 
     41 C1'         9.2960  -12.5450   39.4500 C.3       1 FAD501      0.0000 
     42 C2'         8.1610  -11.8910   38.6650 C.3       1 FAD501      0.0000 
     43 O2'         8.4880  -11.9080   37.2650 O.3       1 FAD501      0.0000 
     44 C3'         8.0180  -10.4410   39.1130 C.3       1 FAD501      0.0000 
     45 O3'         7.8950  -10.4490   40.5160 O.3       1 FAD501      0.0000 
     46 C4'         6.8200   -9.6890   38.4840 C.3       1 FAD501      0.0000 
     47 O4'         6.9930   -8.2890   38.7600 O.3       1 FAD501      0.0000 
     48 C5'         5.4770  -10.1420   39.0410 C.3       1 FAD501      0.0000 
     49 O5'         4.4050   -9.6150   38.2320 O.3       1 FAD501      0.0000 
     50 P           2.9910   -9.3570   38.8690 P.3       1 FAD501      0.0000 
     51 O1P         2.0350   -8.8160   37.8380 O.co2     1 FAD501      0.0000 
     52 O2P         2.5820  -10.5930   39.6340 O.co2     1 FAD501      0.0000 
     53 O3P         3.2550   -8.1020   39.8380 O.3       1 FAD501      0.0000 
@<TRIPOS>BOND
     1    1   53 1    
     2    4    5 1    
     3    5    6 1    
     4    6    7 1    
     5    6    8 1    
     6    7   12 1    
     7    8    9 1    
     8    8   10 1    
     9   10   11 1    
    10   10   12 1    
    11   12   13 1    
    12   13   14 1    
    13   13   22 1    
    14   14   15 2    
    15   15   16 1    
    16   16   17 ar   
    17   16   22 ar   
    18   17   18 1    
    19   17   19 ar   
    20   19   20 ar   
    21   20   21 ar   
    22   21   22 ar   
    23   23   24 1    
    24   23   40 2    
    25   24   25 2    
    26   24   26 am   
    27   26   27 am   
    28   27   28 2    
    29   27   29 1    
    30   29   30 2    
    31   29   40 1    
    32   30   31 1    
    33   31   32 ar   
    34   31   38 ar   
    35   32   33 ar   
    36   33   34 1    
    37   33   35 ar   
    38   35   36 1    
    39   35   37 ar   
    40   37   38 ar   
    41   38   39 1    
    42   39   40 1    
    43   39   41 1    
    44   41   42 1    
    45   42   43 1    
    46   42   44 1    
    47   44   45 1    
    48   44   46 1    
    49   46   47 1    
    50   46   48 1    
    51   48   49 1    
    52   49   50 1    
    53   50   51 ar   
    54   50   52 ar   
    55   50   53 1    
    56    1    2 ar   
    57    1    3 ar   
    58    1    4 1    
@<TRIPOS>SUBSTRUCTURE
     1 FAD501      1 GROUP   
@<TRIPOS>SET
ATOM$ORANGE STATIC     ATOMS   COLORGROUP SYSTEM 
54 5 5 6 6 8 8 10 10 12 12 14 14 16 16 17 17 20 \
20 22 22 24 24 27 27 29 29 31 31 32 32 33 33 34 34 35 \
35 36 36 37 37 38 38 40 40 41 41 42 42 44 44 46 46 48 \
48 

