#    Name: 6iso_1_ARG_THR_LYS_GLN_THR_ALA_ARG_CRD_CAVITY_N1_4
#    Modification time : Fri May 22 19:25:17 2020

@<TRIPOS>MOLECULE
6iso_1_ARG_THR_LYS_GLN_THR_ALA_ARG_CRD_CAVITY_N1_4
   67     0     5     0     0
SMALL
NO_CHARGES


@<TRIPOS>ATOM
      1 N         -23.4900  -27.4400  -39.3500 N.am      1 ALA2        0.0000 
      2 N         -23.3800  -26.6700  -40.6300 N.am      1 ALA2        0.0000 
      3 N         -22.2400  -26.7900  -38.8400 N.am      1 ALA2        0.0000 
      4 N         -22.1300  -26.0200  -40.1200 N.am      1 ALA2        0.0000 
      5 N         -21.7000  -24.2600  -39.0300 N.am      1 ALA2        0.0000 
      6 N         -20.0200  -21.8400  -37.4200 N.am      1 ALA2        0.0000 
      7 N         -19.2000  -22.9500  -38.0100 N.am      1 ALA2        0.0000 
      8 N         -18.8900  -21.9500  -35.6300 N.am      1 ALA2        0.0000 
      9 N         -20.2200  -18.7400  -32.0700 N.am      1 ALA2        0.0000 
     10 N         -19.4000  -19.8500  -32.6600 N.am      1 ALA2        0.0000 
     11 N         -17.5700  -21.8400  -30.1800 N.am      1 ALA2        0.0000 
     12 N         -18.2700  -19.9600  -30.8700 N.am      1 ALA2        0.0000 
     13 N         -18.9700  -18.0800  -31.5600 N.am      1 ALA2        0.0000 
     14 N         -18.1500  -19.1900  -32.1500 N.am      1 ALA2        0.0000 
     15 N         -18.8500  -17.3100  -32.8500 N.am      1 ALA2        0.0000 
     16 N         -18.0300  -18.4200  -33.4300 N.am      1 ALA2        0.0000 
     17 N         -17.0200  -19.3100  -30.3600 N.am      1 ALA2        0.0000 
     18 N         -18.5400  -16.3200  -30.4700 N.am      1 ALA2        0.0000 
     19 N         -17.7200  -17.4300  -31.0500 N.am      1 ALA2        0.0000 
     20 O         -16.9000  -18.5400  -31.6400 O.2       1 ALA2        0.0000 
     21 O         -16.0800  -19.6500  -32.2300 O.2       1 ALA2        0.0000 
     22 O         -15.7700  -18.6500  -29.8500 O.2       1 ALA2        0.0000 
     23 O         -14.9500  -19.7600  -30.4400 O.2       1 ALA2        0.0000 
     24 OD1       -21.2300  -27.6700  -35.7700 O.co2     2 ASP3        0.0000 
     25 OD1       -20.2900  -28.0100  -37.6400 O.co2     2 ASP3        0.0000 
     26 OD1       -19.9800  -27.0200  -35.2600 O.co2     2 ASP3        0.0000 
     27 CZ        -21.4200  -27.9000  -39.4300 C.ar      3 PHE5        0.0000 
     28 CZ        -21.3000  -27.1300  -40.7100 C.ar      3 PHE5        0.0000 
     29 CZ        -20.4800  -28.2400  -41.3000 C.ar      3 PHE5        0.0000 
     30 CZ        -21.1900  -26.3600  -42.0000 C.ar      3 PHE5        0.0000 
     31 CZ        -20.3600  -27.4700  -42.5800 C.ar      3 PHE5        0.0000 
     32 CZ        -21.9400  -25.7900  -36.4600 C.ar      3 PHE5        0.0000 
     33 CZ        -21.8200  -25.0200  -37.7400 C.ar      3 PHE5        0.0000 
     34 CZ        -20.9900  -26.1300  -38.3300 C.ar      3 PHE5        0.0000 
     35 CZ        -20.1700  -27.2400  -38.9200 C.ar      3 PHE5        0.0000 
     36 CZ        -20.8800  -25.3600  -39.6200 C.ar      3 PHE5        0.0000 
     37 CZ        -20.6900  -25.1400  -35.9500 C.ar      3 PHE5        0.0000 
     38 CZ        -19.0400  -27.3600  -37.1300 C.ar      3 PHE5        0.0000 
     39 CZ        -20.5700  -24.3700  -37.2400 C.ar      3 PHE5        0.0000 
     40 CZ        -19.7400  -25.4800  -37.8200 C.ar      3 PHE5        0.0000 
     41 CZ        -20.4500  -23.6000  -38.5200 C.ar      3 PHE5        0.0000 
     42 CZ        -18.6100  -25.5900  -36.0300 C.ar      3 PHE5        0.0000 
     43 CZ        -17.7900  -26.7000  -36.6200 C.ar      3 PHE5        0.0000 
     44 CZ        -20.1400  -22.6100  -36.1400 C.ar      3 PHE5        0.0000 
     45 CZ        -19.3200  -23.7200  -36.7300 C.ar      3 PHE5        0.0000 
     46 CZ        -18.4900  -24.8200  -37.3200 C.ar      3 PHE5        0.0000 
     47 CZ        -19.7100  -20.8400  -35.0400 C.ar      3 PHE5        0.0000 
     48 CZ        -18.0700  -23.0600  -36.2200 C.ar      3 PHE5        0.0000 
     49 CZ        -17.4500  -21.0700  -31.4600 C.ar      3 PHE5        0.0000 
     50 CZ        -17.3300  -20.3000  -32.7400 C.ar      3 PHE5        0.0000 
     51 CZ        -15.4900  -22.2900  -30.2500 C.ar      3 PHE5        0.0000 
     52 CZ        -16.2000  -20.4200  -30.9500 C.ar      3 PHE5        0.0000 
     53 CA        -22.4400  -27.0100  -42.5000 C.3       4 GLY6        0.0000 
     54 CA        -23.1900  -26.4500  -36.9700 C.3       4 GLY6        0.0000 
     55 CA        -22.0100  -25.2500  -41.4100 C.3       4 GLY6        0.0000 
     56 CA        -22.0500  -26.5600  -35.1800 C.3       4 GLY6        0.0000 
     57 CA        -20.2600  -23.3700  -34.8600 C.3       4 GLY6        0.0000 
     58 CA        -19.4400  -24.4800  -35.4400 C.3       4 GLY6        0.0000 
     59 CA        -19.0100  -22.7200  -34.3500 C.3       4 GLY6        0.0000 
     60 CA        -18.5800  -20.9600  -33.2500 C.3       4 GLY6        0.0000 
     61 CA        -19.2800  -19.0800  -33.9400 C.3       4 GLY6        0.0000 
     62 CA        -17.2100  -19.5300  -34.0200 C.3       4 GLY6        0.0000 
     63 CA        -18.6600  -17.0900  -29.1800 C.3       4 GLY6        0.0000 
     64 CA        -16.4700  -16.7700  -30.5400 C.3       4 GLY6        0.0000 
     65 DU        -22.5500  -27.7800  -41.2200 H         5 CUB7        0.0000 
     66 DU        -21.1100  -26.9000  -37.0500 H         5 CUB7        0.0000 
     67 DU        -19.8600  -26.2500  -36.5400 H         5 CUB7        0.0000 
@<TRIPOS>BOND
@<TRIPOS>SUBSTRUCTURE
     1 ALA2        1 GROUP   
     2 ASP3       24 GROUP   
     3 PHE5       27 GROUP   
     4 GLY6       53 GROUP   
     5 CUB7       65 GROUP   
@<TRIPOS>SET

