#    Name: 6iso_4_ARG_THR_LYS_GLN_THR_ALA_ARG_CRD
#    Modification time : Fri May 22 19:25:30 2020

@<TRIPOS>MOLECULE
6iso_4_ARG_THR_LYS_GLN_THR_ALA_ARG_CRD
   64    63     8     0     0
SMALL
NO_CHARGES


@<TRIPOS>ATOM
      1 N         -60.4370   11.7470   -4.3070 N.4       1 ARG0        0.0000 
      2 CA        -59.5300   11.7510   -5.4880 C.3       1 ARG0        0.0000 
      3 C         -59.4980   10.3500   -6.1180 C.2       1 ARG0        0.0000 
      4 O         -59.9410    9.3710   -5.4730 O.2       1 ARG0        0.0000 
      5 CB        -58.1150   12.1920   -5.1000 C.3       1 ARG0        0.0000 
      6 CG        -58.0400   13.5670   -4.4480 C.3       1 ARG0        0.0000 
      7 CD        -56.6250   13.9860   -4.0750 C.3       1 ARG0        0.0000 
      8 NE        -55.8670   14.5180   -5.2040 N.pl3     1 ARG0        0.0000 
      9 CZ        -54.5870   14.8790   -5.1570 C.cat     1 ARG0        0.0000 
     10 NH1       -53.9040   14.7770   -4.0260 N.pl3     1 ARG0        0.0000 
     11 NH2       -53.9900   15.3430   -6.2430 N.pl3     1 ARG0        0.0000 
     12 N         -59.0130   10.2700   -7.3590 N.am      2 THR1        0.0000 
     13 CA        -58.8830    9.0250   -8.1600 C.3       2 THR1        0.0000 
     14 C         -57.4520    8.9900   -8.7050 C.2       2 THR1        0.0000 
     15 O         -56.7060    9.9910   -8.5160 O.2       2 THR1        0.0000 
     16 CB        -59.9630    8.9440   -9.2550 C.3       2 THR1        0.0000 
     17 OG1       -60.0010   10.1690   -9.9870 O.3       2 THR1        0.0000 
     18 CG2       -61.3540    8.6860   -8.7140 C.3       2 THR1        0.0000 
     19 N         -57.0740    7.8780   -9.3340 N.am      3 LYS2        0.0000 
     20 CA        -55.6960    7.6450   -9.8420 C.3       3 LYS2        0.0000 
     21 C         -55.4590    8.5840  -11.0260 C.2       3 LYS2        0.0000 
     22 O         -55.9770    8.3020  -12.1370 O.2       3 LYS2        0.0000 
     23 CB        -55.5500    6.1710  -10.2230 C.3       3 LYS2        0.0000 
     24 CG        -54.1660    5.7070  -10.6510 C.3       3 LYS2        0.0000 
     25 CD        -54.1330    4.1930  -10.7930 C.3       3 LYS2        0.0000 
     26 CE        -53.2740    3.7190  -11.9420 C.3       3 LYS2        0.0000 
     27 NZ        -52.7580    2.3470  -11.7210 N.4       3 LYS2        0.0000 
     28 N         -54.7600    9.6920  -10.7750 N.am      4 GLN3        0.0000 
     29 CA        -54.3590   10.6850  -11.8040 C.3       4 GLN3        0.0000 
     30 C         -52.8300   10.7830  -11.7740 C.2       4 GLN3        0.0000 
     31 O         -52.2600   10.7860  -10.6780 O.2       4 GLN3        0.0000 
     32 CB        -55.0200   12.0420  -11.5530 C.3       4 GLN3        0.0000 
     33 CG        -56.4860   11.9740  -11.1150 C.3       4 GLN3        0.0000 
     34 CD        -57.5110   11.6850  -12.1950 C.2       4 GLN3        0.0000 
     35 OE1       -57.1980   11.2770  -13.3100 O.2       4 GLN3        0.0000 
     36 NE2       -58.7770   11.8950  -11.8620 N.am      4 GLN3        0.0000 
     37 N         -52.1840   10.7950  -12.9420 N.am      5 THR4        0.0000 
     38 CA        -50.7310   11.0700  -13.0720 C.3       5 THR4        0.0000 
     39 C         -50.5030   12.4550  -12.4750 C.2       5 THR4        0.0000 
     40 O         -51.3250   13.3440  -12.7450 O.2       5 THR4        0.0000 
     41 CB        -50.2150   11.0310  -14.5140 C.3       5 THR4        0.0000 
     42 OG1       -50.5110   12.3180  -15.0530 O.3       5 THR4        0.0000 
     43 CG2       -50.8050    9.9260  -15.3680 C.3       5 THR4        0.0000 
     44 N         -49.4530   12.6020  -11.6690 N.am      6 ALA5        0.0000 
     45 CA        -49.1210   13.8370  -10.9300 C.3       6 ALA5        0.0000 
     46 C         -48.8020   14.9540  -11.9300 C.2       6 ALA5        0.0000 
     47 O         -48.2000   14.6550  -12.9810 O.2       6 ALA5        0.0000 
     48 CB        -47.9620   13.5650  -10.0000 C.3       6 ALA5        0.0000 
     49 N         -49.2100   16.1880  -11.6160 N.am      7 ARG6        0.0000 
     50 CA        -48.7860   17.4380  -12.3160 C.3       7 ARG6        0.0000 
     51 C         -48.8570   17.2460  -13.8400 C.2       7 ARG6        0.0000 
     52 O         -49.8340   17.5750  -14.5210 O.2       7 ARG6        0.0000 
     53 CB        -47.3640   17.8260  -11.8980 C.3       7 ARG6        0.0000 
     54 CG        -47.0220   17.5040  -10.4490 C.3       7 ARG6        0.0000 
     55 CD        -47.7350   18.3810   -9.4340 C.3       7 ARG6        0.0000 
     56 NE        -47.0230   19.6300   -9.1670 N.pl3     7 ARG6        0.0000 
     57 CZ        -47.2310   20.4230   -8.1150 C.cat     7 ARG6        0.0000 
     58 NH1       -48.1360   20.1080   -7.2020 N.pl3     7 ARG6        0.0000 
     59 NH2       -46.5170   21.5270   -7.9740 N.pl3     7 ARG6        0.0000 
     60 CC1       -50.2390   -1.1900  -11.2210 C.3       8 CRD101      0.0000 
     61 CC2       -50.2310    0.3210  -11.2710 C.2       8 CRD101      0.0000 
     62 CC3       -51.4070    0.9350  -11.3440 C.2       8 CRD101      0.0000 
     63 CC4       -51.5120    2.4270  -11.4220 C.2       8 CRD101      0.0000 
     64 OC1       -50.5170    3.1980  -11.4320 O.2       8 CRD101      0.0000 
@<TRIPOS>BOND
     1    1    2 1    
     2    2    3 1    
     3    2    5 1    
     4    3    4 2    
     5    3   12 am   
     6    5    6 1    
     7    6    7 1    
     8    7    8 1    
     9    8    9 ar   
    10    9   10 ar   
    11    9   11 ar   
    12   12   13 1    
    13   13   14 1    
    14   13   16 1    
    15   14   15 2    
    16   14   19 am   
    17   16   17 1    
    18   16   18 1    
    19   19   20 1    
    20   20   21 1    
    21   20   23 1    
    22   21   22 2    
    23   21   28 am   
    24   23   24 1    
    25   24   25 1    
    26   25   26 1    
    27   26   27 1    
    28   27   63 du   
    29   28   29 1    
    30   29   30 1    
    31   29   32 1    
    32   30   31 2    
    33   30   37 am   
    34   32   33 1    
    35   33   34 1    
    36   34   35 2    
    37   34   36 am   
    38   37   38 1    
    39   38   39 1    
    40   38   41 1    
    41   39   40 2    
    42   39   44 am   
    43   41   42 1    
    44   41   43 1    
    45   44   45 1    
    46   45   46 1    
    47   45   48 1    
    48   46   47 2    
    49   46   49 am   
    50   49   50 1    
    51   50   51 1    
    52   50   53 1    
    53   51   52 2    
    54   53   54 1    
    55   54   55 1    
    56   55   56 1    
    57   56   57 ar   
    58   57   58 ar   
    59   57   59 ar   
    60   60   61 1    
    61   61   62 2    
    62   62   63 1    
    63   63   64 2    
@<TRIPOS>SUBSTRUCTURE
     1 ARG0        1 RESIDUE 
     2 THR1       12 RESIDUE 
     3 LYS2       19 RESIDUE 
     4 GLN3       28 RESIDUE 
     5 THR4       37 RESIDUE 
     6 ALA5       44 RESIDUE 
     7 ARG6       49 RESIDUE 
     8 CRD101     60 GROUP   
@<TRIPOS>SET

