#    Name: 6iso_3_ARG_THR_LYS_GLN_THR_ALA_ARG_CRD
#    Modification time : Fri May 22 19:25:24 2020

@<TRIPOS>MOLECULE
6iso_3_ARG_THR_LYS_GLN_THR_ALA_ARG_CRD
   64    63     8     0     0
SMALL
NO_CHARGES


@<TRIPOS>ATOM
      1 N           6.9840  -12.4770  -45.8860 N.4       1 ARG0        0.0000 
      2 CA          8.1620  -12.9700  -45.1110 C.3       1 ARG0        0.0000 
      3 C           7.7540  -13.1950  -43.6510 C.2       1 ARG0        0.0000 
      4 O           6.7720  -12.5720  -43.1840 O.2       1 ARG0        0.0000 
      5 CB          9.3190  -11.9670  -45.1620 C.3       1 ARG0        0.0000 
      6 CG         10.0000  -11.8490  -46.5180 C.3       1 ARG0        0.0000 
      7 CD         10.4270  -10.4250  -46.8310 C.3       1 ARG0        0.0000 
      8 NE          9.2900   -9.5380  -47.0770 N.pl3     1 ARG0        0.0000 
      9 CZ          9.3090   -8.2000  -46.9910 C.cat     1 ARG0        0.0000 
     10 NH1        10.4110   -7.5450  -46.6490 N.pl3     1 ARG0        0.0000 
     11 NH2         8.2050   -7.5120  -47.2340 N.pl3     1 ARG0        0.0000 
     12 N           8.5070  -14.0420  -42.9550 N.am      2 THR1        0.0000 
     13 CA          8.4110  -14.2450  -41.4880 C.3       2 THR1        0.0000 
     14 C           9.2150  -13.1620  -40.7420 C.2       2 THR1        0.0000 
     15 O          10.1000  -12.5040  -41.3580 O.2       2 THR1        0.0000 
     16 CB          8.9170  -15.6400  -41.1080 C.3       2 THR1        0.0000 
     17 OG1        10.3390  -15.6740  -41.2910 O.3       2 THR1        0.0000 
     18 CG2         8.2300  -16.7330  -41.9010 C.3       2 THR1        0.0000 
     19 N           8.9350  -12.9930  -39.4480 N.am      3 LYS2        0.0000 
     20 CA          9.6400  -12.0160  -38.5780 C.3       3 LYS2        0.0000 
     21 C          11.1210  -12.3750  -38.5200 C.2       3 LYS2        0.0000 
     22 O          11.4380  -13.5140  -38.1320 O.2       3 LYS2        0.0000 
     23 CB          9.0310  -12.0190  -37.1770 C.3       3 LYS2        0.0000 
     24 CG          9.7570  -11.1760  -36.1440 C.3       3 LYS2        0.0000 
     25 CD          8.9370  -11.0140  -34.8980 C.3       3 LYS2        0.0000 
     26 CE          9.6690  -10.3420  -33.7640 C.3       3 LYS2        0.0000 
     27 NZ          8.6750   -9.7910  -32.8150 N.4       3 LYS2        0.0000 
     28 N          11.9860  -11.4290  -38.8880 N.am      4 GLN3        0.0000 
     29 CA         13.4650  -11.5940  -38.9060 C.3       4 GLN3        0.0000 
     30 C          14.1160  -10.3030  -38.4150 C.2       4 GLN3        0.0000 
     31 O          13.5180   -9.2200  -38.6360 O.2       4 GLN3        0.0000 
     32 CB         13.9620  -11.9030  -40.3200 C.3       4 GLN3        0.0000 
     33 CG         13.3490  -13.1490  -40.9510 C.3       4 GLN3        0.0000 
     34 CD         13.6030  -14.4520  -40.2150 C.2       4 GLN3        0.0000 
     35 OE1        12.9210  -15.4530  -40.4510 O.2       4 GLN3        0.0000 
     36 NE2        14.5790  -14.4600  -39.3170 N.am      4 GLN3        0.0000 
     37 N          15.2970  -10.4180  -37.7940 N.am      5 THR4        0.0000 
     38 CA         16.2010   -9.2700  -37.5140 C.3       5 THR4        0.0000 
     39 C          16.6320   -8.6990  -38.8660 C.2       5 THR4        0.0000 
     40 O          16.4950   -9.4150  -39.8730 O.2       5 THR4        0.0000 
     41 CB         17.4140   -9.6460  -36.6570 C.3       5 THR4        0.0000 
     42 OG1        18.3310  -10.3710  -37.4780 O.3       5 THR4        0.0000 
     43 CG2        17.0600  -10.4590  -35.4290 C.3       5 THR4        0.0000 
     44 N          17.1270   -7.4580  -38.8760 N.am      6 ALA5        0.0000 
     45 CA         17.4130   -6.6590  -40.0870 C.3       6 ALA5        0.0000 
     46 C          18.9040   -6.7650  -40.4450 C.2       6 ALA5        0.0000 
     47 O          19.7360   -6.8030  -39.5210 O.2       6 ALA5        0.0000 
     48 CB         16.9770   -5.2430  -39.8360 C.3       6 ALA5        0.0000 
     49 N          19.2350   -6.8450  -41.7390 N.am      7 ARG6        0.0000 
     50 CA         20.6390   -6.8930  -42.2250 C.3       7 ARG6        0.0000 
     51 C          21.3430   -8.0700  -41.5250 C.2       7 ARG6        0.0000 
     52 O          22.5610   -8.2800  -41.4810 O.2       7 ARG6        0.0000 
     53 CB         21.2530   -5.5060  -41.9870 C.3       7 ARG6        0.0000 
     54 CG         22.7710   -5.4600  -41.8950 C.3       7 ARG6        0.0000 
     55 CD         23.2520   -4.6830  -40.6830 C.3       7 ARG6        0.0000 
     56 NE         24.6170   -5.0610  -40.3380 N.pl3     7 ARG6        0.0000 
     57 CZ         25.3850   -4.4320  -39.4530 C.cat     7 ARG6        0.0000 
     58 NH1        24.9300   -3.3700  -38.8110 N.pl3     7 ARG6        0.0000 
     59 NH2        26.6110   -4.8630  -39.2200 N.pl3     7 ARG6        0.0000 
     60 CC1         6.7270   -8.2330  -29.1570 C.3       8 CRD101      0.0000 
     61 CC2         7.9250   -8.2700  -30.0470 C.2       8 CRD101      0.0000 
     62 CC3         7.9560   -9.0200  -31.1450 C.2       8 CRD101      0.0000 
     63 CC4         9.1800   -8.9780  -32.0010 C.2       8 CRD101      0.0000 
     64 OC1        10.1900   -8.2710  -31.7850 O.2       8 CRD101      0.0000 
@<TRIPOS>BOND
     1    1    2 1    
     2    2    3 1    
     3    2    5 1    
     4    3    4 2    
     5    3   12 am   
     6    5    6 1    
     7    6    7 1    
     8    7    8 1    
     9    8    9 ar   
    10    9   10 ar   
    11    9   11 ar   
    12   12   13 1    
    13   13   14 1    
    14   13   16 1    
    15   14   15 2    
    16   14   19 am   
    17   16   17 1    
    18   16   18 1    
    19   19   20 1    
    20   20   21 1    
    21   20   23 1    
    22   21   22 2    
    23   21   28 am   
    24   23   24 1    
    25   24   25 1    
    26   25   26 1    
    27   26   27 1    
    28   27   63 du   
    29   28   29 1    
    30   29   30 1    
    31   29   32 1    
    32   30   37 am   
    33   30   31 2    
    34   32   33 1    
    35   33   34 1    
    36   34   35 2    
    37   34   36 am   
    38   37   38 1    
    39   38   39 1    
    40   38   41 1    
    41   39   40 2    
    42   39   44 am   
    43   41   42 1    
    44   41   43 1    
    45   44   45 1    
    46   45   46 1    
    47   45   48 1    
    48   46   47 2    
    49   46   49 am   
    50   49   50 1    
    51   50   51 1    
    52   50   53 1    
    53   51   52 2    
    54   53   54 1    
    55   54   55 1    
    56   55   56 1    
    57   56   57 ar   
    58   57   58 ar   
    59   57   59 ar   
    60   60   61 1    
    61   61   62 2    
    62   62   63 1    
    63   63   64 2    
@<TRIPOS>SUBSTRUCTURE
     1 ARG0        1 RESIDUE 
     2 THR1       12 RESIDUE 
     3 LYS2       19 RESIDUE 
     4 GLN3       28 RESIDUE 
     5 THR4       37 RESIDUE 
     6 ALA5       44 RESIDUE 
     7 ARG6       49 RESIDUE 
     8 CRD101     60 GROUP   
@<TRIPOS>SET

