#    Name: 6iso_3_ARG_THR_LYS_GLN_THR_ALA_ARG_CRD_CAVITY_N1_4
#    Modification time : Fri May 22 19:25:27 2020

@<TRIPOS>MOLECULE
6iso_3_ARG_THR_LYS_GLN_THR_ALA_ARG_CRD_CAVITY_N1_4
   59     0     6     0     0
SMALL
NO_CHARGES


@<TRIPOS>ATOM
      1 OG          7.8000   -9.7700  -32.8500 O.3       1 SER1        0.0000 
      2 OG          9.0500   -9.1100  -32.3400 O.3       1 SER1        0.0000 
      3 OG          9.4800   -7.3500  -31.2500 O.3       1 SER1        0.0000 
      4 O           8.8300  -13.9800  -38.7900 O.2       2 ALA2        0.0000 
      5 N           8.3100  -11.8700  -35.8200 N.am      2 ALA2        0.0000 
      6 N           9.2500  -12.2100  -37.6900 N.am      2 ALA2        0.0000 
      7 O          10.0800  -13.3200  -38.2800 O.2       2 ALA2        0.0000 
      8 N           8.5500  -10.3300  -38.3900 N.am      2 ALA2        0.0000 
      9 N           9.3700  -11.4400  -38.9700 N.am      2 ALA2        0.0000 
     10 N          10.1900  -12.5500  -39.5600 N.am      2 ALA2        0.0000 
     11 N           8.6200  -10.8800  -33.4400 N.am      2 ALA2        0.0000 
     12 O           9.4400  -11.9900  -34.0300 O.2       2 ALA2        0.0000 
     13 N           9.5600  -11.2200  -35.3100 N.am      2 ALA2        0.0000 
     14 N          10.5000  -11.5600  -37.1800 N.am      2 ALA2        0.0000 
     15 O          11.3300  -12.6700  -37.7700 O.2       2 ALA2        0.0000 
     16 N          11.4400  -11.9000  -39.0500 N.am      2 ALA2        0.0000 
     17 N           8.6600   -6.2400  -30.6600 N.am      2 ALA2        0.0000 
     18 N           9.0900   -4.4800  -29.5600 N.am      2 ALA2        0.0000 
     19 NZ         12.8000   -7.1500  -30.8200 N.4       3 LYS4        0.0000 
     20 CZ          8.7400  -10.1100  -34.7200 C.ar      4 PHE5        0.0000 
     21 CZ          8.1100   -8.7700  -30.4700 C.ar      4 PHE5        0.0000 
     22 CZ          8.9300   -9.8800  -31.0600 C.ar      4 PHE5        0.0000 
     23 CZ          9.8700  -10.2200  -32.9300 C.ar      4 PHE5        0.0000 
     24 CZ         10.6900  -11.3300  -33.5200 C.ar      4 PHE5        0.0000 
     25 CZ         10.8100  -10.5600  -34.8000 C.ar      4 PHE5        0.0000 
     26 CZ         11.7500  -10.9000  -36.6700 C.ar      4 PHE5        0.0000 
     27 CZ         12.5800  -12.0100  -37.2600 C.ar      4 PHE5        0.0000 
     28 CZ          8.5400   -7.0100  -29.3700 C.ar      4 PHE5        0.0000 
     29 CZ          9.3600   -8.1200  -29.9600 C.ar      4 PHE5        0.0000 
     30 CZ         10.1800   -9.2300  -30.5500 C.ar      4 PHE5        0.0000 
     31 CZ         10.3000   -8.4600  -31.8300 C.ar      4 PHE5        0.0000 
     32 CZ         10.4200   -7.6900  -33.1200 C.ar      4 PHE5        0.0000 
     33 CZ          8.8500   -6.0100  -26.9900 C.ar      4 PHE5        0.0000 
     34 CZ          9.7900   -6.3500  -28.8700 C.ar      4 PHE5        0.0000 
     35 CZ         10.6100   -7.4600  -29.4500 C.ar      4 PHE5        0.0000 
     36 CZ         11.5500   -7.8000  -31.3200 C.ar      4 PHE5        0.0000 
     37 CZ         11.8600   -6.8100  -28.9400 C.ar      4 PHE5        0.0000 
     38 CZ         12.6800   -7.9200  -29.5300 C.ar      4 PHE5        0.0000 
     39 CZ         13.6200   -8.2600  -31.4000 C.ar      4 PHE5        0.0000 
     40 CA          7.6900  -13.8600  -40.5800 C.3       5 GLY6        0.0000 
     41 CA          8.0000  -12.8700  -38.2000 C.3       5 GLY6        0.0000 
     42 CA          9.6500  -15.0800  -39.3800 C.3       5 GLY6        0.0000 
     43 CA          8.1200  -12.1000  -39.4800 C.3       5 GLY6        0.0000 
     44 CA          9.0600  -12.4400  -41.3500 C.3       5 GLY6        0.0000 
     45 CA          7.4900  -10.7600  -35.2300 C.3       5 GLY6        0.0000 
     46 CA          8.4300  -11.1000  -37.1000 C.3       5 GLY6        0.0000 
     47 CA         10.3800  -12.3300  -35.9000 C.3       5 GLY6        0.0000 
     48 CA          8.8600   -9.3400  -36.0100 C.3       5 GLY6        0.0000 
     49 CA          9.6800  -10.4500  -36.5900 C.3       5 GLY6        0.0000 
     50 CA          9.7500  -10.9900  -31.6500 C.3       5 GLY6        0.0000 
     51 CA          9.9900   -9.4500  -34.2100 C.3       5 GLY6        0.0000 
     52 CA          8.9700   -5.2500  -28.2800 C.3       5 GLY6        0.0000 
     53 CA         10.0300   -4.8200  -31.4300 C.3       5 GLY6        0.0000 
     54 CA         10.8500   -5.9300  -32.0200 C.3       5 GLY6        0.0000 
     55 CA         12.1000   -5.2700  -31.5100 C.3       5 GLY6        0.0000 
     56 DU          8.9400  -13.2100  -40.0700 H         6 CUB7        0.0000 
     57 DU          9.9100   -5.5900  -30.1500 H         6 CUB7        0.0000 
     58 DU         10.7300   -6.6900  -30.7400 H         6 CUB7        0.0000 
     59 DU         11.9800   -6.0400  -30.2300 H         6 CUB7        0.0000 
@<TRIPOS>BOND
@<TRIPOS>SUBSTRUCTURE
     1 SER1        1 GROUP   
     2 ALA2        4 GROUP   
     3 LYS4       19 GROUP   
     4 PHE5       20 GROUP   
     5 GLY6       40 GROUP   
     6 CUB7       56 GROUP   
@<TRIPOS>SET

