#    Name: 6iso_1_ARG_THR_LYS_GLN_THR_ALA_ARG_CRD
#    Modification time : Fri May 22 19:25:15 2020

@<TRIPOS>MOLECULE
6iso_1_ARG_THR_LYS_GLN_THR_ALA_ARG_CRD
   64    63     8     0     0
SMALL
NO_CHARGES


@<TRIPOS>ATOM
      1 N         -20.1750  -11.3990  -28.0710 N.4       1 ARG0        0.0000 
      2 CA        -20.2890  -12.8900  -27.7830 C.3       1 ARG0        0.0000 
      3 C         -20.1200  -13.6820  -29.0850 C.2       1 ARG0        0.0000 
      4 O         -21.0940  -13.7500  -29.8450 O.2       1 ARG0        0.0000 
      5 CB        -21.6230  -13.2640  -27.1210 C.3       1 ARG0        0.0000 
      6 CG        -21.6290  -14.6840  -26.5830 C.3       1 ARG0        0.0000 
      7 CD        -22.3990  -14.9110  -25.2830 C.3       1 ARG0        0.0000 
      8 NE        -22.0200  -16.2090  -24.7060 N.pl3     1 ARG0        0.0000 
      9 CZ        -22.8200  -17.2770  -24.5300 C.cat     1 ARG0        0.0000 
     10 NH1       -24.1080  -17.2430  -24.8430 N.pl3     1 ARG0        0.0000 
     11 NH2       -22.3190  -18.3860  -24.0170 N.pl3     1 ARG0        0.0000 
     12 N         -18.9380  -14.2710  -29.2970 N.am      2 THR1        0.0000 
     13 CA        -18.4810  -14.8550  -30.5830 C.3       2 THR1        0.0000 
     14 C         -18.6520  -16.3730  -30.5830 C.2       2 THR1        0.0000 
     15 O         -18.9720  -16.9180  -29.5370 O.2       2 THR1        0.0000 
     16 CB        -17.0030  -14.5330  -30.8400 C.3       2 THR1        0.0000 
     17 OG1       -16.2090  -15.1250  -29.8090 O.3       2 THR1        0.0000 
     18 CG2       -16.7520  -13.0480  -30.9260 C.3       2 THR1        0.0000 
     19 N         -18.4160  -17.0210  -31.7210 N.am      3 LYS2        0.0000 
     20 CA        -18.5790  -18.4840  -31.8840 C.3       3 LYS2        0.0000 
     21 C         -17.4140  -19.2290  -31.2140 C.2       3 LYS2        0.0000 
     22 O         -16.2480  -19.0850  -31.6260 O.2       3 LYS2        0.0000 
     23 CB        -18.7250  -18.8320  -33.3640 C.3       3 LYS2        0.0000 
     24 CG        -18.7210  -20.3250  -33.6580 C.3       3 LYS2        0.0000 
     25 CD        -19.2680  -20.7060  -35.0320 C.3       3 LYS2        0.0000 
     26 CE        -18.5580  -21.8980  -35.6460 C.3       3 LYS2        0.0000 
     27 NZ        -19.2410  -22.3550  -36.8730 N.4       3 LYS2        0.0000 
     28 N         -17.7240  -20.0390  -30.2140 N.am      4 GLN3        0.0000 
     29 CA        -16.7290  -20.8900  -29.5160 C.3       4 GLN3        0.0000 
     30 C         -17.3770  -22.2320  -29.1940 C.2       4 GLN3        0.0000 
     31 O         -18.6070  -22.2850  -29.1190 O.2       4 GLN3        0.0000 
     32 CB        -16.2770  -20.2180  -28.2180 C.3       4 GLN3        0.0000 
     33 CG        -15.7580  -18.7930  -28.3910 C.3       4 GLN3        0.0000 
     34 CD        -14.5010  -18.7180  -29.2300 C.2       4 GLN3        0.0000 
     35 OE1       -13.7530  -19.6970  -29.3820 O.2       4 GLN3        0.0000 
     36 NE2       -14.2680  -17.5350  -29.7810 N.am      4 GLN3        0.0000 
     37 N         -16.5610  -23.2600  -28.9840 N.am      5 THR4        0.0000 
     38 CA        -16.9830  -24.6240  -28.5490 C.3       5 THR4        0.0000 
     39 C         -17.5570  -24.5500  -27.1310 C.2       5 THR4        0.0000 
     40 O         -17.1670  -23.6460  -26.4010 O.2       5 THR4        0.0000 
     41 CB        -15.7720  -25.5540  -28.6620 C.3       5 THR4        0.0000 
     42 OG1       -14.7420  -24.9380  -27.8890 O.3       5 THR4        0.0000 
     43 CG2       -15.2630  -25.7440  -30.0820 C.3       5 THR4        0.0000 
     44 N         -18.4660  -25.4240  -26.7210 N.am      6 ALA5        0.0000 
     45 CA        -19.0250  -25.3860  -25.3430 C.3       6 ALA5        0.0000 
     46 C         -18.1040  -26.1610  -24.3940 C.2       6 ALA5        0.0000 
     47 O         -17.4530  -27.1010  -24.8710 O.2       6 ALA5        0.0000 
     48 CB        -20.4250  -25.9380  -25.3310 C.3       6 ALA5        0.0000 
     49 N         -18.0300  -25.7470  -23.1170 N.am      7 ARG6        0.0000 
     50 CA        -17.3230  -26.4240  -21.9770 C.3       7 ARG6        0.0000 
     51 C         -16.1140  -27.2430  -22.4540 C.2       7 ARG6        0.0000 
     52 O         -15.1130  -26.6950  -22.8810 O.2       7 ARG6        0.0000 
     53 CB        -18.2650  -27.3830  -21.2390 C.3       7 ARG6        0.0000 
     54 CG        -19.4930  -26.7120  -20.6370 C.3       7 ARG6        0.0000 
     55 CD        -19.2370  -25.9990  -19.3070 C.3       7 ARG6        0.0000 
     56 NE        -19.3390  -26.8630  -18.1290 N.pl3     7 ARG6        0.0000 
     57 CZ        -20.4600  -27.1390  -17.4470 C.cat     7 ARG6        0.0000 
     58 NH1       -21.6290  -26.6220  -17.7940 N.pl3     7 ARG6        0.0000 
     59 NH2       -20.4110  -27.9490  -16.4020 N.pl3     7 ARG6        0.0000 
     60 CC1       -21.2740  -24.4680  -40.8420 C.3       8 CRD101      0.0000 
     61 CC2       -20.8620  -24.3480  -39.4220 C.2       8 CRD101      0.0000 
     62 CC3       -20.2470  -23.2690  -38.9330 C.2       8 CRD101      0.0000 
     63 CC4       -19.8840  -23.2240  -37.4940 C.2       8 CRD101      0.0000 
     64 OC1       -20.1100  -24.1350  -36.6990 O.2       8 CRD101      0.0000 
@<TRIPOS>BOND
     1    1    2 1    
     2    2    3 1    
     3    2    5 1    
     4    3    4 2    
     5    3   12 am   
     6    5    6 1    
     7    6    7 1    
     8    7    8 1    
     9    8    9 ar   
    10    9   10 ar   
    11    9   11 ar   
    12   12   13 1    
    13   13   14 1    
    14   13   16 1    
    15   14   15 2    
    16   14   19 am   
    17   16   17 1    
    18   16   18 1    
    19   19   20 1    
    20   20   21 1    
    21   20   23 1    
    22   21   22 2    
    23   21   28 am   
    24   23   24 1    
    25   24   25 1    
    26   25   26 1    
    27   26   27 1    
    28   27   63 du   
    29   28   29 1    
    30   29   30 1    
    31   29   32 1    
    32   30   31 2    
    33   30   37 am   
    34   32   33 1    
    35   33   34 1    
    36   34   35 2    
    37   34   36 am   
    38   37   38 1    
    39   38   39 1    
    40   38   41 1    
    41   39   40 2    
    42   39   44 am   
    43   41   42 1    
    44   41   43 1    
    45   44   45 1    
    46   45   46 1    
    47   45   48 1    
    48   46   47 2    
    49   46   49 am   
    50   49   50 1    
    51   50   51 1    
    52   50   53 1    
    53   51   52 2    
    54   53   54 1    
    55   54   55 1    
    56   55   56 1    
    57   56   57 ar   
    58   57   58 ar   
    59   57   59 ar   
    60   60   61 1    
    61   61   62 2    
    62   62   63 1    
    63   63   64 2    
@<TRIPOS>SUBSTRUCTURE
     1 ARG0        1 RESIDUE 
     2 THR1       12 RESIDUE 
     3 LYS2       19 RESIDUE 
     4 GLN3       28 RESIDUE 
     5 THR4       37 RESIDUE 
     6 ALA5       44 RESIDUE 
     7 ARG6       49 RESIDUE 
     8 CRD101     60 GROUP   
@<TRIPOS>SET

