#    Name: 6iso_5_ARG_THR_LYS_GLN_THR_ALA_CRD_CAVITY_N1_4
#    Modification time : Fri May 22 19:25:42 2020

@<TRIPOS>MOLECULE
6iso_5_ARG_THR_LYS_GLN_THR_ALA_CRD_CAVITY_N1_4
   55     0     5     0     0
SMALL
NO_CHARGES


@<TRIPOS>ATOM
      1 OG         17.8400  -35.9900  -45.8900 O.3       1 SER1        0.0000 
      2 OG         18.2700  -34.2300  -44.7900 O.3       1 SER1        0.0000 
      3 N          16.1600  -38.4100  -47.4900 N.am      2 ALA2        0.0000 
      4 N          16.0100  -34.0000  -48.3700 N.am      2 ALA2        0.0000 
      5 N          17.2600  -33.3500  -47.8600 N.am      2 ALA2        0.0000 
      6 O          18.9400  -30.9300  -46.2600 O.2       2 ALA2        0.0000 
      7 N          19.9500  -31.8100  -43.1800 N.am      2 ALA2        0.0000 
      8 N          18.4300  -28.8200  -43.2900 N.am      2 ALA2        0.0000 
      9 N          19.2500  -29.9300  -43.8800 N.am      2 ALA2        0.0000 
     10 N          19.3700  -29.1600  -45.1600 N.am      2 ALA2        0.0000 
     11 N          20.3800  -30.0500  -42.0800 N.am      2 ALA2        0.0000 
     12 N          20.5000  -29.2800  -43.3700 N.am      2 ALA2        0.0000 
     13 N          21.3200  -30.3900  -43.9600 N.am      2 ALA2        0.0000 
     14 O          20.6200  -28.5100  -44.6500 O.2       2 ALA2        0.0000 
     15 O          21.4400  -29.6200  -45.2400 O.2       2 ALA2        0.0000 
     16 N          21.6300  -29.3900  -41.5800 N.am      2 ALA2        0.0000 
     17 N          20.1100  -26.4100  -41.6800 N.am      2 ALA2        0.0000 
     18 N          20.9300  -27.5100  -42.2700 N.am      2 ALA2        0.0000 
     19 N          21.7500  -28.6200  -42.8600 N.am      2 ALA2        0.0000 
     20 N          22.5700  -29.7300  -43.4500 N.am      2 ALA2        0.0000 
     21 N          23.3900  -30.8400  -44.0400 N.am      2 ALA2        0.0000 
     22 O          21.8700  -27.8600  -44.1400 O.2       2 ALA2        0.0000 
     23 O          22.6900  -28.9600  -44.7300 O.2       2 ALA2        0.0000 
     24 CZ         16.4700  -37.4200  -45.1100 C.ar      3 PHE5        0.0000 
     25 CZ         16.5900  -36.6500  -46.4000 C.ar      3 PHE5        0.0000 
     26 CZ         16.7100  -35.8800  -47.6800 C.ar      3 PHE5        0.0000 
     27 CZ         17.1400  -34.1200  -46.5800 C.ar      3 PHE5        0.0000 
     28 CZ         17.9600  -35.2200  -47.1700 C.ar      3 PHE5        0.0000 
     29 CZ         18.7800  -36.3300  -47.7600 C.ar      3 PHE5        0.0000 
     30 CZ         18.0800  -34.4600  -48.4500 C.ar      3 PHE5        0.0000 
     31 CZ         19.2100  -34.5700  -46.6600 C.ar      3 PHE5        0.0000 
     32 CZ         18.5100  -32.6900  -47.3500 C.ar      3 PHE5        0.0000 
     33 CZ         17.8800  -31.3600  -43.1000 C.ar      3 PHE5        0.0000 
     34 CZ         19.7600  -32.0400  -46.8400 C.ar      3 PHE5        0.0000 
     35 CZ         22.1400  -31.5000  -44.5400 C.ar      3 PHE5        0.0000 
     36 CZ         22.2600  -30.7300  -45.8300 C.ar      3 PHE5        0.0000 
     37 CZ         24.2100  -31.9500  -44.6200 C.ar      3 PHE5        0.0000 
     38 CZ         23.5100  -30.0700  -45.3200 C.ar      3 PHE5        0.0000 
     39 CA         17.7200  -36.7600  -44.6000 C.3       4 GLY6        0.0000 
     40 CA         19.9100  -36.4500  -45.9700 C.3       4 GLY6        0.0000 
     41 CA         17.5700  -32.3500  -45.4800 C.3       4 GLY6        0.0000 
     42 CA         18.3900  -33.4600  -46.0700 C.3       4 GLY6        0.0000 
     43 CA         18.7000  -32.4700  -43.6900 C.3       4 GLY6        0.0000 
     44 CA         18.0000  -30.5900  -44.3900 C.3       4 GLY6        0.0000 
     45 CA         18.8200  -31.7000  -44.9700 C.3       4 GLY6        0.0000 
     46 CA         19.6400  -32.8100  -45.5600 C.3       4 GLY6        0.0000 
     47 CA         19.1300  -30.7000  -42.5900 C.3       4 GLY6        0.0000 
     48 CA         20.0700  -31.0400  -44.4600 C.3       4 GLY6        0.0000 
     49 CA         20.8900  -32.1500  -45.0500 C.3       4 GLY6        0.0000 
     50 CA         20.1900  -30.2700  -45.7500 C.3       4 GLY6        0.0000 
     51 CA         19.5600  -28.9400  -41.5000 C.3       4 GLY6        0.0000 
     52 CA         20.8100  -28.2800  -40.9900 C.3       4 GLY6        0.0000 
     53 DU         16.2800  -37.6400  -48.7800 H         5 CUB7        0.0000 
     54 DU         17.4100  -37.7600  -46.9800 H         5 CUB7        0.0000 
     55 DU         18.6600  -37.1000  -46.4800 H         5 CUB7        0.0000 
@<TRIPOS>BOND
@<TRIPOS>SUBSTRUCTURE
     1 SER1        1 GROUP   
     2 ALA2        3 GROUP   
     3 PHE5       24 GROUP   
     4 GLY6       39 GROUP   
     5 CUB7       53 GROUP   
@<TRIPOS>SET

