#    Name: 6iso_6_ARG_THR_LYS_GLN_THR_ALA_ARG_CRD_CAVITY_N1_12
#    Modification time : Fri May 22 19:25:47 2020

@<TRIPOS>MOLECULE
6iso_6_ARG_THR_LYS_GLN_THR_ALA_ARG_CRD_CAVITY_N1_12
   74     0     6     0     0
SMALL
NO_CHARGES


@<TRIPOS>ATOM
      1 OG        -74.6100  -10.9200  -50.0000 O.3       1 SER1        0.0000 
      2 OG        -73.3600  -10.2600  -49.4900 O.3       1 SER1        0.0000 
      3 OG        -73.2400   -9.4900  -50.7800 O.3       1 SER1        0.0000 
      4 OG        -71.8700   -8.0700  -51.5500 O.3       1 SER1        0.0000 
      5 OG        -70.9300   -8.4100  -53.4200 O.3       1 SER1        0.0000 
      6 O         -74.3400  -14.5600  -50.4100 O.2       2 ALA2        0.0000 
      7 N         -73.9100  -12.8000  -49.3100 N.am      2 ALA2        0.0000 
      8 N         -73.1900   -8.1800  -57.0000 N.am      2 ALA2        0.0000 
      9 N         -73.4800  -11.0300  -48.2100 N.am      2 ALA2        0.0000 
     10 N         -71.9400   -7.5300  -56.4900 N.am      2 ALA2        0.0000 
     11 N         -71.8200   -6.7600  -57.7800 N.am      2 ALA2        0.0000 
     12 N         -72.2300  -10.3800  -47.7000 N.am      2 ALA2        0.0000 
     13 N         -72.8100   -7.7300  -49.6800 N.am      2 ALA2        0.0000 
     14 N         -72.6900   -6.9600  -50.9600 N.am      2 ALA2        0.0000 
     15 O         -72.5700   -6.1900  -52.2400 O.2       2 ALA2        0.0000 
     16 N         -71.7500   -7.3000  -52.8300 N.am      2 ALA2        0.0000 
     17 N         -71.6300   -6.5300  -54.1100 N.am      2 ALA2        0.0000 
     18 N         -70.8100   -7.6400  -54.7000 N.am      2 ALA2        0.0000 
     19 N         -69.9900   -8.7500  -55.2900 N.am      2 ALA2        0.0000 
     20 N         -70.6900   -6.8700  -55.9800 N.am      2 ALA2        0.0000 
     21 O         -71.3900   -4.9900  -56.6800 O.2       2 ALA2        0.0000 
     22 N         -70.5700   -6.1000  -57.2700 N.am      2 ALA2        0.0000 
     23 N         -70.5000   -6.6500  -52.3200 N.am      2 ALA2        0.0000 
     24 N         -70.3800   -5.8800  -53.6000 N.am      2 ALA2        0.0000 
     25 N         -70.2600   -5.1100  -54.8900 N.am      2 ALA2        0.0000 
     26 N         -69.3200   -5.4500  -56.7600 N.am      2 ALA2        0.0000 
     27 N         -69.2000   -4.6800  -58.0400 N.am      2 ALA2        0.0000 
     28 NZ        -79.8800   -9.8900  -51.6300 N.4       3 LYS4        0.0000 
     29 NZ        -77.9300  -11.1200  -50.4300 N.4       3 LYS4        0.0000 
     30 NZ        -77.1100  -12.2300  -51.0200 N.4       3 LYS4        0.0000 
     31 NZ        -77.8100  -10.3500  -51.7100 N.4       3 LYS4        0.0000 
     32 CZ        -77.6900   -9.5800  -53.0000 C.ar      4 PHE5        0.0000 
     33 CZ        -77.6200  -10.1200  -48.0500 C.ar      4 PHE5        0.0000 
     34 CZ        -76.8000  -11.2300  -48.6400 C.ar      4 PHE5        0.0000 
     35 CZ        -77.5000   -9.3500  -49.3300 C.ar      4 PHE5        0.0000 
     36 CZ        -76.5600   -9.6900  -51.2000 C.ar      4 PHE5        0.0000 
     37 CZ        -75.5500  -10.5800  -48.1300 C.ar      4 PHE5        0.0000 
     38 CZ        -75.4300   -9.8100  -49.4100 C.ar      4 PHE5        0.0000 
     39 CZ        -73.7900  -12.0300  -50.5900 C.ar      4 PHE5        0.0000 
     40 CZ        -75.3100   -9.0400  -50.7000 C.ar      4 PHE5        0.0000 
     41 CZ        -74.3000   -9.9200  -47.6200 C.ar      4 PHE5        0.0000 
     42 CZ        -74.1800   -9.1500  -48.9000 C.ar      4 PHE5        0.0000 
     43 CZ        -74.0600   -8.3800  -50.1900 C.ar      4 PHE5        0.0000 
     44 CZ        -73.9400   -7.6200  -51.4700 C.ar      4 PHE5        0.0000 
     45 CZ        -73.1200   -8.7300  -52.0600 C.ar      4 PHE5        0.0000 
     46 CZ        -73.8200   -6.8500  -52.7500 C.ar      4 PHE5        0.0000 
     47 CZ        -73.0000   -7.9600  -53.3400 C.ar      4 PHE5        0.0000 
     48 CZ        -72.8800   -7.1900  -54.6200 C.ar      4 PHE5        0.0000 
     49 CZ        -72.7600   -6.4200  -55.9000 C.ar      4 PHE5        0.0000 
     50 CZ        -72.6400   -5.6500  -57.1900 C.ar      4 PHE5        0.0000 
     51 CZ        -72.9300   -8.5000  -48.4000 C.ar      4 PHE5        0.0000 
     52 CA        -79.7600   -9.1200  -52.9200 C.3       5 GLY6        0.0000 
     53 CA        -76.2900  -13.3400  -51.6100 C.3       5 GLY6        0.0000 
     54 CA        -78.6300   -9.2400  -51.1300 C.3       5 GLY6        0.0000 
     55 CA        -76.9900  -11.4600  -52.3000 C.3       5 GLY6        0.0000 
     56 CA        -75.8600  -11.5700  -50.5100 C.3       5 GLY6        0.0000 
     57 CA        -75.0400  -12.6800  -51.1000 C.3       5 GLY6        0.0000 
     58 CA        -75.7400  -10.8000  -51.7900 C.3       5 GLY6        0.0000 
     59 CA        -74.4900  -10.1500  -51.2800 C.3       5 GLY6        0.0000 
     60 CA        -74.3700   -9.3800  -52.5700 C.3       5 GLY6        0.0000 
     61 CA        -72.0600   -8.3000  -55.2100 C.3       5 GLY6        0.0000 
     62 CA        -73.4600   -4.5400  -56.6000 C.3       5 GLY6        0.0000 
     63 CA        -71.5100   -5.7600  -55.4000 C.3       5 GLY6        0.0000 
     64 CA        -69.6800   -7.7600  -52.9100 C.3       5 GLY6        0.0000 
     65 CA        -69.5600   -6.9900  -54.1900 C.3       5 GLY6        0.0000 
     66 CA        -69.4400   -6.2200  -55.4700 C.3       5 GLY6        0.0000 
     67 DU        -78.8700  -10.7800  -48.5600 H         6 CUB7        0.0000 
     68 DU        -78.0500  -11.8900  -49.1500 H         6 CUB7        0.0000 
     69 DU        -77.2300  -13.0000  -49.7400 H         6 CUB7        0.0000 
     70 DU        -76.4100  -14.1000  -50.3300 H         6 CUB7        0.0000 
     71 DU        -78.7500  -10.0100  -49.8400 H         6 CUB7        0.0000 
     72 DU        -75.1600  -13.4500  -49.8200 H         6 CUB7        0.0000 
     73 DU        -76.6800  -10.4600  -49.9200 H         6 CUB7        0.0000 
     74 DU        -74.7300  -11.6900  -48.7200 H         6 CUB7        0.0000 
@<TRIPOS>BOND
@<TRIPOS>SUBSTRUCTURE
     1 SER1        1 GROUP   
     2 ALA2        6 GROUP   
     3 LYS4       28 GROUP   
     4 PHE5       32 GROUP   
     5 GLY6       52 GROUP   
     6 CUB7       67 GROUP   
@<TRIPOS>SET

