#    Name: 6iso_6_ARG_THR_LYS_GLN_THR_ALA_ARG_CRD
#    Modification time : Fri May 22 19:25:45 2020

@<TRIPOS>MOLECULE
6iso_6_ARG_THR_LYS_GLN_THR_ALA_ARG_CRD
   64    63     8     0     0
SMALL
NO_CHARGES


@<TRIPOS>ATOM
      1 N         -66.7620   -7.0370  -62.8970 N.4       1 ARG0        0.0000 
      2 CA        -65.8620   -6.0210  -62.2370 C.3       1 ARG0        0.0000 
      3 C         -66.3450   -5.8210  -60.7850 C.2       1 ARG0        0.0000 
      4 O         -65.6710   -6.3430  -59.8750 O.2       1 ARG0        0.0000 
      5 CB        -65.8070   -4.6870  -63.0090 C.3       1 ARG0        0.0000 
      6 CG        -66.3730   -4.6770  -64.4310 C.3       1 ARG0        0.0000 
      7 CD        -67.7690   -4.0570  -64.5550 C.3       1 ARG0        0.0000 
      8 NE        -68.4510   -4.2930  -65.8290 N.pl3     1 ARG0        0.0000 
      9 CZ        -69.7700   -4.1820  -66.0410 C.cat     1 ARG0        0.0000 
     10 NH1       -70.5910   -3.8370  -65.0580 N.pl3     1 ARG0        0.0000 
     11 NH2       -70.2660   -4.4270  -67.2450 N.pl3     1 ARG0        0.0000 
     12 N         -67.5080   -5.1750  -60.6060 N.am      2 THR1        0.0000 
     13 CA        -68.0770   -4.6630  -59.3290 C.3       2 THR1        0.0000 
     14 C         -69.0620   -5.6930  -58.7680 C.2       2 THR1        0.0000 
     15 O         -69.5650   -6.5080  -59.5470 O.2       2 THR1        0.0000 
     16 CB        -68.6910   -3.2660  -59.5450 C.3       2 THR1        0.0000 
     17 OG1       -67.7110   -2.3000  -59.1720 O.3       2 THR1        0.0000 
     18 CG2       -69.9200   -2.9650  -58.7260 C.3       2 THR1        0.0000 
     19 N         -69.3140   -5.6520  -57.4610 N.am      3 LYS2        0.0000 
     20 CA        -70.3300   -6.5050  -56.8030 C.3       3 LYS2        0.0000 
     21 C         -71.7180   -6.1540  -57.3500 C.2       3 LYS2        0.0000 
     22 O         -72.2250   -5.0900  -57.0100 O.2       3 LYS2        0.0000 
     23 CB        -70.2820   -6.3660  -55.2770 C.3       3 LYS2        0.0000 
     24 CG        -71.4850   -6.9570  -54.5490 C.3       3 LYS2        0.0000 
     25 CD        -71.2080   -7.4060  -53.1320 C.3       3 LYS2        0.0000 
     26 CE        -72.4790   -7.5950  -52.3250 C.3       3 LYS2        0.0000 
     27 NZ        -72.1750   -7.9400  -50.9180 N.4       3 LYS2        0.0000 
     28 N         -72.3110   -7.0520  -58.1380 N.am      4 GLN3        0.0000 
     29 CA        -73.6630   -6.8970  -58.7410 C.3       4 GLN3        0.0000 
     30 C         -74.5110   -8.1390  -58.4370 C.2       4 GLN3        0.0000 
     31 O         -73.9200   -9.2090  -58.1680 O.2       4 GLN3        0.0000 
     32 CB        -73.5260   -6.6700  -60.2520 C.3       4 GLN3        0.0000 
     33 CG        -72.7520   -5.4060  -60.6300 C.3       4 GLN3        0.0000 
     34 CD        -73.3790   -4.1230  -60.1210 C.2       4 GLN3        0.0000 
     35 OE1       -72.7000   -3.1010  -59.9650 O.2       4 GLN3        0.0000 
     36 NE2       -74.6780   -4.1600  -59.8390 N.am      4 GLN3        0.0000 
     37 N         -75.8420   -8.0080  -58.4750 N.am      5 THR4        0.0000 
     38 CA        -76.7910   -9.1570  -58.3900 C.3       5 THR4        0.0000 
     39 C         -76.8240   -9.8770  -59.7500 C.2       5 THR4        0.0000 
     40 O         -76.3290   -9.3120  -60.7450 O.2       5 THR4        0.0000 
     41 CB        -78.1860   -8.7320  -57.8920 C.3       5 THR4        0.0000 
     42 OG1       -78.5100   -7.4280  -58.3680 O.3       5 THR4        0.0000 
     43 CG2       -78.3010   -8.6990  -56.3850 C.3       5 THR4        0.0000 
     44 N         -77.3530  -11.1010  -59.7770 N.am      6 ALA5        0.0000 
     45 CA        -77.4910  -11.9510  -60.9850 C.3       6 ALA5        0.0000 
     46 C         -78.9730  -12.0450  -61.3740 C.2       6 ALA5        0.0000 
     47 O         -79.6410  -13.0040  -60.9310 O.2       6 ALA5        0.0000 
     48 CB        -76.8900  -13.3140  -60.7290 C.3       6 ALA5        0.0000 
     49 N         -79.4690  -11.0610  -62.1400 N.am      7 ARG6        0.0000 
     50 CA        -80.8430  -11.0480  -62.7330 C.3       7 ARG6        0.0000 
     51 C         -80.8850  -10.1040  -63.9460 C.2       7 ARG6        0.0000 
     52 O         -79.8830   -9.5730  -64.4400 O.2       7 ARG6        0.0000 
     53 CB        -81.9060  -10.6580  -61.6940 C.3       7 ARG6        0.0000 
     54 CG        -81.8160   -9.2180  -61.2060 C.3       7 ARG6        0.0000 
     55 CD        -82.8680   -8.8480  -60.1760 C.3       7 ARG6        0.0000 
     56 NE        -82.4220   -7.7200  -59.3630 N.pl3     7 ARG6        0.0000 
     57 CZ        -83.1990   -6.9730  -58.5760 C.cat     7 ARG6        0.0000 
     58 NH1       -84.4950   -7.2110  -58.4890 N.pl3     7 ARG6        0.0000 
     59 NH2       -82.6740   -5.9770  -57.8820 N.pl3     7 ARG6        0.0000 
     60 CC1       -72.4300   -9.3140  -46.5810 C.3       8 CRD101      0.0000 
     61 CC2       -73.0570   -9.2430  -47.9440 C.2       8 CRD101      0.0000 
     62 CC3       -72.4460   -8.5940  -48.9240 C.2       8 CRD101      0.0000 
     63 CC4       -73.0640   -8.5500  -50.2690 C.2       8 CRD101      0.0000 
     64 OC1       -74.1180   -9.1330  -50.4960 O.2       8 CRD101      0.0000 
@<TRIPOS>BOND
     1    1    2 1    
     2    2    3 1    
     3    2    5 1    
     4    3    4 2    
     5    3   12 am   
     6    5    6 1    
     7    6    7 1    
     8    7    8 1    
     9    8    9 ar   
    10    9   10 ar   
    11    9   11 ar   
    12   12   13 1    
    13   13   14 1    
    14   13   16 1    
    15   14   15 2    
    16   14   19 am   
    17   16   17 1    
    18   16   18 1    
    19   19   20 1    
    20   20   21 1    
    21   20   23 1    
    22   21   22 2    
    23   21   28 am   
    24   23   24 1    
    25   24   25 1    
    26   25   26 1    
    27   26   27 1    
    28   27   63 du   
    29   28   29 1    
    30   29   30 1    
    31   29   32 1    
    32   30   31 2    
    33   30   37 am   
    34   32   33 1    
    35   33   34 1    
    36   34   35 2    
    37   34   36 am   
    38   37   38 1    
    39   38   39 1    
    40   38   41 1    
    41   39   40 2    
    42   39   44 am   
    43   41   42 1    
    44   41   43 1    
    45   44   45 1    
    46   45   46 1    
    47   45   48 1    
    48   46   47 2    
    49   46   49 am   
    50   49   50 1    
    51   50   51 1    
    52   50   53 1    
    53   51   52 2    
    54   53   54 1    
    55   54   55 1    
    56   55   56 1    
    57   56   57 ar   
    58   57   58 ar   
    59   57   59 ar   
    60   60   61 1    
    61   61   62 2    
    62   62   63 1    
    63   63   64 2    
@<TRIPOS>SUBSTRUCTURE
     1 ARG0        1 RESIDUE 
     2 THR1       12 RESIDUE 
     3 LYS2       19 RESIDUE 
     4 GLN3       28 RESIDUE 
     5 THR4       37 RESIDUE 
     6 ALA5       44 RESIDUE 
     7 ARG6       49 RESIDUE 
     8 CRD101     60 GROUP   
@<TRIPOS>SET

