#    Name: 6iso_4_ARG_THR_LYS_GLN_THR_ALA_ARG_CRD_CAVITY_N1_12
#    Modification time : Fri May 22 19:25:33 2020

@<TRIPOS>MOLECULE
6iso_4_ARG_THR_LYS_GLN_THR_ALA_ARG_CRD_CAVITY_N1_12
   70     0     6     0     0
SMALL
NO_CHARGES


@<TRIPOS>ATOM
      1 OG        -44.7700    4.1800  -10.0900 O.3       1 SER1        0.0000 
      2 OG        -44.6500    4.9500  -11.3700 O.3       1 SER1        0.0000 
      3 OG        -44.5300    5.7200  -12.6600 O.3       1 SER1        0.0000 
      4 N         -58.0100    8.0200   -9.0300 N.am      2 ALA2        0.0000 
      5 N         -56.3700    5.8000  -10.2000 N.am      2 ALA2        0.0000 
      6 O         -57.8900    8.7800  -10.3100 O.2       2 ALA2        0.0000 
      7 O         -57.0700    7.6800  -10.9000 O.2       2 ALA2        0.0000 
      8 N         -55.9400    7.5600   -9.1100 N.am      2 ALA2        0.0000 
      9 N         -55.1200    6.4500   -9.6900 N.am      2 ALA2        0.0000 
     10 N         -54.3000    5.3400  -10.2800 N.am      2 ALA2        0.0000 
     11 N         -53.4800    4.2300  -10.8700 N.am      2 ALA2        0.0000 
     12 N         -52.6600    3.1200  -11.4600 N.am      2 ALA2        0.0000 
     13 N         -55.8200    8.3300  -10.3900 N.am      2 ALA2        0.0000 
     14 O         -55.7000    9.1000  -11.6700 O.2       2 ALA2        0.0000 
     15 N         -53.7500    7.8800  -10.4700 N.am      2 ALA2        0.0000 
     16 N         -54.4500    9.7500  -11.1600 N.am      2 ALA2        0.0000 
     17 N         -53.2000   10.4100  -10.6500 N.am      2 ALA2        0.0000 
     18 N         -47.3000    8.0500  -13.2700 N.am      2 ALA2        0.0000 
     19 N         -47.1800    8.8200  -14.5500 N.am      2 ALA2        0.0000 
     20 O         -45.5900    5.2900   -9.5000 O.2       2 ALA2        0.0000 
     21 NZ        -46.3600    7.7100  -15.1400 N.4       3 LYS4        0.0000 
     22 NZ        -44.4100    6.4900  -13.9400 N.4       3 LYS4        0.0000 
     23 NZ        -45.1100    8.3600  -14.6300 N.4       3 LYS4        0.0000 
     24 CZ        -51.8400    2.0200  -12.0500 C.ar      4 PHE5        0.0000 
     25 CZ        -55.0000    7.2200  -10.9800 C.ar      4 PHE5        0.0000 
     26 CZ        -54.1800    6.1100  -11.5700 C.ar      4 PHE5        0.0000 
     27 CZ        -53.3600    5.0000  -12.1500 C.ar      4 PHE5        0.0000 
     28 CZ        -52.5400    3.8900  -12.7400 C.ar      4 PHE5        0.0000 
     29 CZ        -51.7200    2.7800  -13.3300 C.ar      4 PHE5        0.0000 
     30 CZ        -54.8800    7.9900  -12.2600 C.ar      4 PHE5        0.0000 
     31 CZ        -51.4100    3.7800  -10.9500 C.ar      4 PHE5        0.0000 
     32 CZ        -50.5900    2.6700  -11.5400 C.ar      4 PHE5        0.0000 
     33 CZ        -49.7700    1.5600  -12.1300 C.ar      4 PHE5        0.0000 
     34 CZ        -51.2900    4.5500  -12.2300 C.ar      4 PHE5        0.0000 
     35 CZ        -50.4700    3.4400  -12.8200 C.ar      4 PHE5        0.0000 
     36 CZ        -49.6500    2.3300  -13.4100 C.ar      4 PHE5        0.0000 
     37 CZ        -53.6300    8.6400  -11.7500 C.ar      4 PHE5        0.0000 
     38 CZ        -49.3400    3.3200  -11.0300 C.ar      4 PHE5        0.0000 
     39 CZ        -49.1000    4.8600  -13.6000 C.ar      4 PHE5        0.0000 
     40 CZ        -48.2800    3.7500  -14.1800 C.ar      4 PHE5        0.0000 
     41 CZ        -48.2100    3.2100   -9.2400 C.ar      4 PHE5        0.0000 
     42 CZ        -47.7300    6.2900  -14.3700 C.ar      4 PHE5        0.0000 
     43 CZ        -49.2500    9.2700  -14.4700 C.ar      4 PHE5        0.0000 
     44 CA        -56.2500    6.5700  -11.4900 C.3       5 GLY6        0.0000 
     45 CA        -54.4200    4.5700   -9.0000 C.3       5 GLY6        0.0000 
     46 CA        -56.7600    8.6700   -8.5200 C.3       5 GLY6        0.0000 
     47 CA        -53.0500    6.0000   -9.7700 C.3       5 GLY6        0.0000 
     48 CA        -52.2300    4.8900  -10.3600 C.3       5 GLY6        0.0000 
     49 CA        -52.9300    6.7700  -11.0600 C.3       5 GLY6        0.0000 
     50 CA        -52.1100    5.6600  -11.6500 C.3       5 GLY6        0.0000 
     51 CA        -50.1600    4.4300  -10.4400 C.3       5 GLY6        0.0000 
     52 CA        -49.2200    4.0900  -12.3100 C.3       5 GLY6        0.0000 
     53 CA        -48.0900    3.9800  -10.5200 C.3       5 GLY6        0.0000 
     54 CA        -47.1500    3.6400  -12.3900 C.3       5 GLY6        0.0000 
     55 CA        -47.0300    4.4100  -13.6800 C.3       5 GLY6        0.0000 
     56 CA        -48.5500    7.3900  -13.7800 C.3       5 GLY6        0.0000 
     57 CA        -46.9100    5.1800  -14.9600 C.3       5 GLY6        0.0000 
     58 CA        -46.8400    4.6300  -10.0100 C.3       5 GLY6        0.0000 
     59 CA        -45.9000    4.2900  -11.8800 C.3       5 GLY6        0.0000 
     60 CA        -46.6000    6.1700  -12.5800 C.3       5 GLY6        0.0000 
     61 CA        -45.7800    5.0600  -13.1700 C.3       5 GLY6        0.0000 
     62 CA        -46.4800    6.9400  -13.8600 C.3       5 GLY6        0.0000 
     63 CA        -45.5400    6.6000  -15.7300 C.3       5 GLY6        0.0000 
     64 CA        -45.4700    6.0600  -10.7900 C.3       5 GLY6        0.0000 
     65 CA        -45.3500    6.8300  -12.0700 C.3       5 GLY6        0.0000 
     66 DU        -48.5200    2.2200  -11.6200 H         6 CUB7        0.0000 
     67 DU        -48.4000    2.9800  -12.9000 H         6 CUB7        0.0000 
     68 DU        -47.2700    2.8700  -11.1100 H         6 CUB7        0.0000 
     69 DU        -46.0200    3.5200  -10.6000 H         6 CUB7        0.0000 
     70 DU        -45.6600    5.8300  -14.4500 H         6 CUB7        0.0000 
@<TRIPOS>BOND
@<TRIPOS>SUBSTRUCTURE
     1 SER1        1 GROUP   
     2 ALA2        4 GROUP   
     3 LYS4       21 GROUP   
     4 PHE5       24 GROUP   
     5 GLY6       44 GROUP   
     6 CUB7       66 GROUP   
@<TRIPOS>SET

