#    Name: 6iso_5_ARG_THR_LYS_GLN_THR_ALA_CRD
#    Modification time : Fri May 22 19:25:39 2020

@<TRIPOS>MOLECULE
6iso_5_ARG_THR_LYS_GLN_THR_ALA_CRD
   53    53     7     0     0
SMALL
NO_CHARGES


@<TRIPOS>ATOM
      1 N          20.5810  -24.4960  -39.5720 N.4       1 ARG0        0.0000 
      2 CA         20.4200  -25.5870  -38.5640 C.3       1 ARG0        0.0000 
      3 C          21.6010  -26.5650  -38.6090 C.2       1 ARG0        0.0000 
      4 O          22.1890  -26.7940  -37.5530 O.2       1 ARG0        0.0000 
      5 CB         19.0450  -26.2520  -38.7180 C.3       1 ARG0        0.0000 
      6 CG         18.2270  -26.2920  -37.4310 C.3       1 ARG0        0.0000 
      7 CD         16.7500  -25.9770  -37.6500 C.3       1 ARG0        0.0000 
      8 NE         16.1700  -25.1610  -36.5810 N.pl3     1 ARG0        0.0000 
      9 CZ         15.0650  -24.4140  -36.6840 C.cat     1 ARG0        0.0000 
     10 NH1        14.6540  -23.7000  -35.6480 N.pl3     1 ARG0        0.0000 
     11 NH2        14.3770  -24.3690  -37.8110 N.pl3     1 ARG0        0.0000 
     12 N          21.9790  -27.1590  -39.7620 N.am      2 THR1        0.0000 
     13 CA         21.4050  -27.0070  -41.0980 C.3       2 THR1        0.0000 
     14 C          21.5130  -28.3750  -41.8080 C.2       2 THR1        0.0000 
     15 O          22.4370  -29.1170  -41.4370 O.2       2 THR1        0.0000 
     16 CB         22.1430  -25.8730  -41.8400 C.3       2 THR1        0.0000 
     17 OG1        21.2680  -25.2770  -42.8000 O.3       2 THR1        0.0000 
     18 CG2        23.4260  -26.3190  -42.5090 C.3       2 THR1        0.0000 
     19 N          20.6480  -28.7200  -42.7790 N.am      3 LYS2        0.0000 
     20 CA         20.6870  -30.0610  -43.4510 C.3       3 LYS2        0.0000 
     21 C          22.0840  -30.2790  -44.0630 C.2       3 LYS2        0.0000 
     22 O          22.3870  -29.6290  -45.0670 O.2       3 LYS2        0.0000 
     23 CB         19.5770  -30.2390  -44.5020 C.3       3 LYS2        0.0000 
     24 CG         19.4950  -31.6350  -45.1340 C.3       3 LYS2        0.0000 
     25 CD         18.2250  -31.9500  -45.9750 C.3       3 LYS2        0.0000 
     26 CE         18.2920  -33.2830  -46.7100 C.3       3 LYS2        0.0000 
     27 NZ         17.0860  -33.5830  -47.5340 N.4       3 LYS2        0.0000 
     28 N          22.9000  -31.1620  -43.4730 N.am      4 GLN3        0.0000 
     29 CA         24.3290  -31.3880  -43.8470 C.3       4 GLN3        0.0000 
     30 C          24.6580  -32.8900  -43.8770 C.2       4 GLN3        0.0000 
     31 O          23.8090  -33.6860  -43.4820 O.2       4 GLN3        0.0000 
     32 CB         25.2560  -30.6990  -42.8390 C.3       4 GLN3        0.0000 
     33 CG         25.0120  -29.2030  -42.6810 C.3       4 GLN3        0.0000 
     34 CD         25.9890  -28.3380  -43.4410 C.2       4 GLN3        0.0000 
     35 OE1        27.2040  -28.5280  -43.3860 O.2       4 GLN3        0.0000 
     36 NE2        25.4460  -27.3520  -44.1360 N.am      4 GLN3        0.0000 
     37 N          25.8680  -33.2590  -44.3050 N.am      5 THR4        0.0000 
     38 CA         26.3840  -34.6580  -44.2620 C.3       5 THR4        0.0000 
     39 C          26.9150  -34.9600  -42.8480 C.2       5 THR4        0.0000 
     40 O          27.1430  -33.9910  -42.0870 O.2       5 THR4        0.0000 
     41 CB         27.4150  -34.9250  -45.3750 C.3       5 THR4        0.0000 
     42 OG1        27.9020  -36.2490  -45.1490 O.3       5 THR4        0.0000 
     43 CG2        28.5770  -33.9530  -45.4270 C.3       5 THR4        0.0000 
     44 N          27.1030  -36.2480  -42.5200 N.am      6 ALA5        0.0000 
     45 CA         27.4410  -36.7770  -41.1700 C.3       6 ALA5        0.0000 
     46 C          28.5350  -35.9220  -40.5240 C.2       6 ALA5        0.0000 
     47 O          29.6480  -36.3940  -40.3410 O.2       6 ALA5        0.0000 
     48 CB         27.8730  -38.2250  -41.2540 C.3       6 ALA5        0.0000 
     49 CC1        15.9720  -35.4250  -52.0240 C.3       7 CRD101      0.0000 
     50 CC2        16.5300  -34.6850  -50.8350 C.2       7 CRD101      0.0000 
     51 CC3        16.1750  -35.1180  -49.6130 C.2       7 CRD101      0.0000 
     52 CC4        16.6250  -34.4700  -48.3480 C.2       7 CRD101      0.0000 
     53 OC1        16.2060  -34.9640  -47.3270 O.2       7 CRD101      0.0000 
@<TRIPOS>BOND
     1    1    2 1    
     2    2    3 1    
     3    2    5 1    
     4    3    4 2    
     5    3   12 am   
     6    5    6 1    
     7    6    7 1    
     8    7    8 1    
     9    8    9 ar   
    10    9   10 ar   
    11    9   11 ar   
    12   12   13 1    
    13   13   14 1    
    14   13   16 1    
    15   14   15 2    
    16   14   19 am   
    17   16   17 1    
    18   16   18 1    
    19   19   20 1    
    20   20   21 1    
    21   20   23 1    
    22   21   22 2    
    23   21   28 am   
    24   23   24 1    
    25   24   25 1    
    26   25   26 1    
    27   26   27 1    
    28   27   52 du   
    29   27   53 du   
    30   28   29 1    
    31   29   30 1    
    32   29   32 1    
    33   30   31 2    
    34   30   37 am   
    35   32   33 1    
    36   33   34 1    
    37   34   35 2    
    38   34   36 am   
    39   37   38 1    
    40   38   39 1    
    41   38   41 1    
    42   39   40 2    
    43   39   44 am   
    44   41   42 1    
    45   41   43 1    
    46   44   45 1    
    47   45   46 1    
    48   45   48 1    
    49   46   47 2    
    50   49   50 1    
    51   50   51 2    
    52   51   52 1    
    53   52   53 2    
@<TRIPOS>SUBSTRUCTURE
     1 ARG0        1 RESIDUE 
     2 THR1       12 RESIDUE 
     3 LYS2       19 RESIDUE 
     4 GLN3       28 RESIDUE 
     5 THR4       37 RESIDUE 
     6 ALA5       44 RESIDUE 
     7 CRD101     49 GROUP   
@<TRIPOS>SET

