#    Name: 6o61_2_GTP_CAVITY_N1_8
#    Modification time : Fri May 22 19:34:53 2020

@<TRIPOS>MOLECULE
6o61_2_GTP_CAVITY_N1_8
   33     0     6     0     0
SMALL
NO_CHARGES


@<TRIPOS>ATOM
      1 OG          7.5500  -15.7700   15.3000 O.3       1 SER1        0.0000 
      2 OG          8.7400  -16.0100   17.0300 O.3       1 SER1        0.0000 
      3 OG          7.6800  -15.0400   16.6000 O.3       1 SER1        0.0000 
      4 O           4.2400  -19.1300   15.8000 O.2       2 ALA2        0.0000 
      5 O           5.4400  -21.2300   18.5700 O.2       2 ALA2        0.0000 
      6 O           4.3800  -20.2600   18.1400 O.2       2 ALA2        0.0000 
      7 N           4.3800  -14.7000   15.0400 N.am      2 ALA2        0.0000 
      8 N           8.7400  -14.1600   16.0000 N.am      2 ALA2        0.0000 
      9 N           5.5700  -13.0900   15.7400 N.am      2 ALA2        0.0000 
     10 OD1         6.6300  -14.0700   16.1700 O.co2     3 ASP3        0.0000 
     11 OD1         7.8200  -14.3100   17.9100 O.co2     3 ASP3        0.0000 
     12 OD1         8.8800  -13.4300   17.3100 O.co2     3 ASP3        0.0000 
     13 CZ          5.4400  -19.3800   17.5400 C.ar      4 PHE5        0.0000 
     14 CZ          6.4900  -18.5000   16.9400 C.ar      4 PHE5        0.0000 
     15 CA          5.3000  -18.2500   15.2000 C.3       5 GLY6        0.0000 
     16 CA          4.2400  -17.2800   14.7700 C.3       5 GLY6        0.0000 
     17 CA          4.3800  -18.4000   17.1100 C.3       5 GLY6        0.0000 
     18 CA          5.4300  -17.5200   16.5000 C.3       5 GLY6        0.0000 
     19 CA          6.4900  -16.6500   15.9000 C.3       5 GLY6        0.0000 
     20 CA          4.3800  -16.5500   16.0700 C.3       5 GLY6        0.0000 
     21 CA          5.4300  -15.6700   15.4700 C.3       5 GLY6        0.0000 
     22 CA          6.4900  -14.7900   14.8700 C.3       5 GLY6        0.0000 
     23 CA          5.5800  -20.5000   19.8800 C.3       5 GLY6        0.0000 
     24 CA          6.6300  -19.6200   19.2700 C.3       5 GLY6        0.0000 
     25 CA          5.5700  -18.6500   18.8400 C.3       5 GLY6        0.0000 
     26 CA          6.6300  -17.7700   18.2400 C.3       5 GLY6        0.0000 
     27 CA          7.6800  -16.8900   17.6400 C.3       5 GLY6        0.0000 
     28 CA          9.8000  -15.1300   16.4300 C.3       5 GLY6        0.0000 
     29 CA          5.5700  -16.8000   17.8100 C.3       5 GLY6        0.0000 
     30 CA          6.6300  -15.9200   17.2100 C.3       5 GLY6        0.0000 
     31 CA          8.8800  -15.2800   18.3400 C.3       5 GLY6        0.0000 
     32 CA          9.9300  -14.4000   17.7400 C.3       5 GLY6        0.0000 
     33 DU          5.5700  -14.9400   16.7700 H         6 CUB7        0.0000 
@<TRIPOS>BOND
@<TRIPOS>SUBSTRUCTURE
     1 SER1        1 GROUP   
     2 ALA2        4 GROUP   
     3 ASP3       10 GROUP   
     4 PHE5       13 GROUP   
     5 GLY6       15 GROUP   
     6 CUB7       33 GROUP   
@<TRIPOS>SET

