#    Name: 6o61_2_GTP
#    Modification time : Fri May 22 19:34:52 2020

@<TRIPOS>MOLECULE
6o61_2_GTP
   32    34     1     0     1
SMALL
NO_CHARGES


@<TRIPOS>ATOM
      1 PG         20.0290  -18.3710   16.6080 P.3       1 GTP501      0.0000 
      2 O1G        20.1970  -16.9460   16.1390 O.co2     1 GTP501      0.0000 
      3 O2G        21.3030  -18.8150   17.2860 O.co2     1 GTP501      0.0000 
      4 O3G        18.8640  -18.4420   17.5630 O.co2     1 GTP501      0.0000 
      5 O3B        19.7770  -19.3220   15.3310 O.3       1 GTP501      0.0000 
      6 PB         18.4790  -20.2720   15.2020 P.3       1 GTP501      0.0000 
      7 O1B        18.7290  -21.2770   14.1010 O.co2     1 GTP501      0.0000 
      8 O2B        18.1650  -20.9620   16.5080 O.co2     1 GTP501      0.0000 
      9 O3A        17.2910  -19.2690   14.8040 O.3       1 GTP501      0.0000 
     10 PA         15.8930  -19.7460   14.1590 P.3       1 GTP501      0.0000 
     11 O1A        15.9580  -21.1480   13.5930 O.co2     1 GTP501      0.0000 
     12 O2A        14.7820  -19.6130   15.1730 O.co2     1 GTP501      0.0000 
     13 O5'        15.7180  -18.6910   12.9590 O.3       1 GTP501      0.0000 
     14 C5'        14.6800  -17.7420   12.9220 C.3       1 GTP501      0.0000 
     15 C4'        13.8210  -18.0290   11.7000 C.3       1 GTP501      0.0000 
     16 O4'        13.3220  -19.3440   11.8060 O.3       1 GTP501      0.0000 
     17 C3'        12.6240  -17.1050   11.6500 C.3       1 GTP501      0.0000 
     18 O3'        12.3500  -16.8130   10.3000 O.3       1 GTP501      0.0000 
     19 C2'        11.5000  -17.9310   12.2250 C.3       1 GTP501      0.0000 
     20 O2'        10.2710  -17.5590   11.6540 O.3       1 GTP501      0.0000 
     21 C1'        11.9070  -19.3410   11.8330 C.3       1 GTP501      0.0000 
     22 N9         11.4740  -20.3660   12.7980 N.pl3     1 GTP501      0.0000 
     23 C8         11.8830  -20.5250   14.0970 C.2       1 GTP501      0.0000 
     24 N7         11.2560  -21.6080   14.6090 N.2       1 GTP501      0.0000 
     25 C5         10.4680  -22.1460   13.6520 C.2       1 GTP501      0.0000 
     26 C6          9.6210  -23.2460   13.6320 C.2       1 GTP501      0.0000 
     27 O6          9.4840  -23.9450   14.6350 O.2       1 GTP501      0.0000 
     28 N1          8.9300  -23.5530   12.4780 N.am      1 GTP501      0.0000 
     29 C2          9.0810  -22.7690   11.3530 C.2       1 GTP501      0.0000 
     30 N2          8.4200  -23.0580   10.2380 N.pl3     1 GTP501      0.0000 
     31 N3          9.9220  -21.6800   11.3820 N.2       1 GTP501      0.0000 
     32 C4         10.6020  -21.3770   12.5090 C.2       1 GTP501      0.0000 
@<TRIPOS>BOND
     1    1    2 ar   
     2    1    3 ar   
     3    1    4 ar   
     4    1    5 1    
     5    5    6 1    
     6    6    7 ar   
     7    6    8 ar   
     8    6    9 1    
     9    9   10 1    
    10   10   11 ar   
    11   10   12 ar   
    12   10   13 1    
    13   13   14 1    
    14   14   15 1    
    15   15   16 1    
    16   15   17 1    
    17   16   21 1    
    18   17   18 1    
    19   17   19 1    
    20   19   20 1    
    21   19   21 1    
    22   21   22 1    
    23   22   23 1    
    24   22   32 1    
    25   23   24 2    
    26   24   25 1    
    27   25   26 1    
    28   25   32 2    
    29   26   27 2    
    30   26   28 am   
    31   28   29 1    
    32   29   30 1    
    33   29   31 2    
    34   31   32 1    
@<TRIPOS>SUBSTRUCTURE
     1 GTP501      1 GROUP   
@<TRIPOS>SET
ATOM$ORANGE STATIC     ATOMS   COLORGROUP SYSTEM 
20 14 14 15 15 17 17 19 19 21 21 23 23 25 25 26 26 29 \
29 32 32 

