#    Name: 6o61_2_GTP_CAVITY_N1_6
#    Modification time : Fri May 22 19:34:53 2020

@<TRIPOS>MOLECULE
6o61_2_GTP_CAVITY_N1_6
    6     0     3     0     0
SMALL
NO_CHARGES


@<TRIPOS>ATOM
      1 OG          7.5500  -15.7700   15.3000 O.3       1 SER1        0.0000 
      2 OG          8.7400  -16.0100   17.0300 O.3       1 SER1        0.0000 
      3 N           8.7400  -14.1600   16.0000 N.am      2 ALA2        0.0000 
      4 CA          6.4900  -16.6500   15.9000 C.3       3 GLY6        0.0000 
      5 CA          6.4900  -14.7900   14.8700 C.3       3 GLY6        0.0000 
      6 CA          9.8000  -15.1300   16.4300 C.3       3 GLY6        0.0000 
@<TRIPOS>BOND
@<TRIPOS>SUBSTRUCTURE
     1 SER1        1 GROUP   
     2 ALA2        3 GROUP   
     3 GLY6        4 GROUP   
@<TRIPOS>SET

