#    Name: 6o61_3_GDP_CAVITY_N1_8
#    Modification time : Fri May 22 19:34:58 2020

@<TRIPOS>MOLECULE
6o61_3_GDP_CAVITY_N1_8
   86     0     6     0     0
SMALL
NO_CHARGES


@<TRIPOS>ATOM
      1 OG         22.6000   12.1100   41.2800 O.3       1 SER1        0.0000 
      2 OG         21.5400   13.0800   40.8500 O.3       1 SER1        0.0000 
      3 OG         18.3700   14.1500   40.5900 O.3       1 SER1        0.0000 
      4 OG         19.4300   15.0300   39.9800 O.3       1 SER1        0.0000 
      5 OG         18.3700   16.0000   39.5500 O.3       1 SER1        0.0000 
      6 OG         19.5600   15.7600   41.2900 O.3       1 SER1        0.0000 
      7 OG         20.7600   17.3600   41.9900 O.3       1 SER1        0.0000 
      8 OG         21.8100   18.2400   41.3900 O.3       1 SER1        0.0000 
      9 OG         20.8900   18.0900   43.2900 O.3       1 SER1        0.0000 
     10 O          19.1500   13.5700   37.3700 O.2       2 ALA2        0.0000 
     11 O          20.2100   14.4500   36.7700 O.2       2 ALA2        0.0000 
     12 O          21.4000   14.2100   38.5100 O.2       2 ALA2        0.0000 
     13 O          18.2300   13.4200   39.2800 O.2       2 ALA2        0.0000 
     14 O          19.2900   14.3000   38.6800 O.2       2 ALA2        0.0000 
     15 O          18.2300   15.2700   38.2500 O.2       2 ALA2        0.0000 
     16 O          23.6500   11.1400   41.7100 O.2       2 ALA2        0.0000 
     17 O          19.4300   11.3200   42.0500 O.2       2 ALA2        0.0000 
     18 O          24.8500   10.8900   43.4500 O.2       2 ALA2        0.0000 
     19 O          25.9000   11.7700   42.8400 O.2       2 ALA2        0.0000 
     20 O          23.7900   11.8600   43.0100 O.2       2 ALA2        0.0000 
     21 O          24.8500   12.7400   42.4100 O.2       2 ALA2        0.0000 
     22 N          20.6200   12.9300   42.7500 N.am      2 ALA2        0.0000 
     23 N          21.6800   13.8100   42.1500 N.am      2 ALA2        0.0000 
     24 O          18.5100   13.0200   42.9200 O.2       2 ALA2        0.0000 
     25 N          19.5600   13.9000   42.3200 N.am      2 ALA2        0.0000 
     26 O          24.9900   11.6200   44.7500 O.2       2 ALA2        0.0000 
     27 O          24.9800   13.4700   43.7200 O.2       2 ALA2        0.0000 
     28 O          26.0400   14.3500   43.1100 O.2       2 ALA2        0.0000 
     29 N          22.8700   13.5700   43.8900 N.am      2 ALA2        0.0000 
     30 O          23.9300   14.4400   43.2800 O.2       2 ALA2        0.0000 
     31 N          21.8100   14.5400   43.4600 N.am      2 ALA2        0.0000 
     32 O          22.8700   15.4200   42.8500 O.2       2 ALA2        0.0000 
     33 N          19.7000   14.6300   43.6300 N.am      2 ALA2        0.0000 
     34 N          20.7600   15.5100   43.0200 N.am      2 ALA2        0.0000 
     35 O          21.8100   16.3900   42.4200 O.2       2 ALA2        0.0000 
     36 O          22.8700   17.2700   41.8200 O.2       2 ALA2        0.0000 
     37 O          27.2400   12.2500   45.8800 O.2       2 ALA2        0.0000 
     38 N          23.0100   12.4400   46.2300 N.am      2 ALA2        0.0000 
     39 O          25.1200   14.2000   45.0200 O.2       2 ALA2        0.0000 
     40 O          26.1800   15.0800   44.4200 O.2       2 ALA2        0.0000 
     41 N          23.0100   14.2900   45.1900 N.am      2 ALA2        0.0000 
     42 O          24.0600   15.1700   44.5900 O.2       2 ALA2        0.0000 
     43 N          21.9500   15.2700   44.7600 N.am      2 ALA2        0.0000 
     44 N          23.0100   18.0000   43.1200 N.am      2 ALA2        0.0000 
     45 O          27.3700   14.8300   46.1500 O.2       2 ALA2        0.0000 
     46 O          26.3100   15.8100   45.7200 O.2       2 ALA2        0.0000 
     47 O          28.5700   14.5900   47.8900 O.2       2 ALA2        0.0000 
     48 O          27.5100   15.5600   47.4600 O.2       2 ALA2        0.0000 
     49 NZ         20.3400   15.1800   38.0800 N.4       3 LYS4        0.0000 
     50 NZ         19.2900   16.1500   37.6500 N.4       3 LYS4        0.0000 
     51 NZ         21.5400   14.9300   39.8100 N.4       3 LYS4        0.0000 
     52 NZ         22.5900   15.8100   39.2100 N.4       3 LYS4        0.0000 
     53 NZ         20.4800   15.9100   39.3800 N.4       3 LYS4        0.0000 
     54 NZ         21.6800   15.6600   41.1200 N.4       3 LYS4        0.0000 
     55 NZ         22.7300   16.5400   40.5100 N.4       3 LYS4        0.0000 
     56 NZ         20.6200   16.6400   40.6900 N.4       3 LYS4        0.0000 
     57 NZ         26.0400   10.6500   45.1800 N.4       3 LYS4        0.0000 
     58 NZ         25.1200   12.3500   46.0500 N.4       3 LYS4        0.0000 
     59 NZ         26.1800   13.2300   45.4500 N.4       3 LYS4        0.0000 
     60 NZ         24.0700   13.3200   45.6200 N.4       3 LYS4        0.0000 
     61 NZ         27.3700   12.9800   47.1900 N.4       3 LYS4        0.0000 
     62 NZ         26.3200   13.9600   46.7600 N.4       3 LYS4        0.0000 
     63 NZ         23.1500   13.1700   47.5300 N.4       3 LYS4        0.0000 
     64 NZ         24.2000   14.0500   46.9300 N.4       3 LYS4        0.0000 
     65 NZ         25.2600   14.9300   46.3200 N.4       3 LYS4        0.0000 
     66 NZ         27.5100   13.7100   48.4900 N.4       3 LYS4        0.0000 
     67 NZ         26.4500   14.6800   48.0600 N.4       3 LYS4        0.0000 
     68 CZ         17.3100   13.2700   41.1900 C.ar      4 PHE5        0.0000 
     69 CA         19.2900   12.4500   39.7100 C.3       5 GLY6        0.0000 
     70 CA         20.3500   13.3300   39.1100 C.3       5 GLY6        0.0000 
     71 CA         24.7100   12.0200   41.1100 C.3       5 GLY6        0.0000 
     72 CA         23.6500   12.9900   40.6800 C.3       5 GLY6        0.0000 
     73 CA         20.4800   12.2000   41.4500 C.3       5 GLY6        0.0000 
     74 CA         22.6000   13.9600   40.2400 C.3       5 GLY6        0.0000 
     75 CA         18.3700   12.3000   41.6200 C.3       5 GLY6        0.0000 
     76 CA         19.4300   13.1800   41.0200 C.3       5 GLY6        0.0000 
     77 CA         22.7300   12.8400   42.5800 C.3       5 GLY6        0.0000 
     78 CA         23.7900   13.7200   41.9800 C.3       5 GLY6        0.0000 
     79 CA         22.7300   14.6900   41.5500 C.3       5 GLY6        0.0000 
     80 CA         27.1000   11.5300   44.5800 C.3       5 GLY6        0.0000 
     81 CA         26.0400   12.5000   44.1500 C.3       5 GLY6        0.0000 
     82 CA         27.1000   13.3800   43.5500 C.3       5 GLY6        0.0000 
     83 CA         23.9300   12.5900   44.3200 C.3       5 GLY6        0.0000 
     84 CA         27.2300   14.1100   44.8500 C.3       5 GLY6        0.0000 
     85 DU         20.4800   14.0600   40.4200 H         6 CUB7        0.0000 
     86 DU         20.6200   14.7800   41.7200 H         6 CUB7        0.0000 
@<TRIPOS>BOND
@<TRIPOS>SUBSTRUCTURE
     1 SER1        1 GROUP   
     2 ALA2       10 GROUP   
     3 LYS4       49 GROUP   
     4 PHE5       68 GROUP   
     5 GLY6       69 GROUP   
     6 CUB7       85 GROUP   
@<TRIPOS>SET

