#    Name: 6o61_4_ACP
#    Modification time : Fri May 22 19:35:02 2020

@<TRIPOS>MOLECULE
6o61_4_ACP
   31    33     1     0     1
SMALL
NO_CHARGES


@<TRIPOS>ATOM
      1 PG          9.5300  -48.0670  -93.8280 P.3       1 ACP401      0.0000 
      2 O1G         8.9140  -49.0140  -92.8280 O.co2     1 ACP401      0.0000 
      3 O2G        10.8160  -48.6570  -94.3570 O.co2     1 ACP401      0.0000 
      4 O3G         9.8290  -46.7550  -93.1410 O.co2     1 ACP401      0.0000 
      5 PB          8.3260  -49.2480  -96.3790 P.3       1 ACP401      0.0000 
      6 O1B         7.3530  -49.0050  -97.5080 O.co2     1 ACP401      0.0000 
      7 O2B         7.8570  -50.4640  -95.6250 O.co2     1 ACP401      0.0000 
      8 C3B         8.3480  -47.7770  -95.2390 C.3       1 ACP401      0.0000 
      9 PA         10.2360  -50.0560  -98.4560 P.3       1 ACP401      0.0000 
     10 O1A         9.1630  -51.0030  -98.9370 O.co2     1 ACP401      0.0000 
     11 O2A        11.5610  -50.7800  -98.4010 O.co2     1 ACP401      0.0000 
     12 O3A         9.8550  -49.4880  -96.9540 O.3       1 ACP401      0.0000 
     13 O5'        10.3600  -48.7850  -99.5020 O.3       1 ACP401      0.0000 
     14 C5'         9.4290  -47.7380  -99.4280 C.3       1 ACP401      0.0000 
     15 C4'         8.6750  -47.6120 -100.7800 C.3       1 ACP401      0.0000 
     16 O4'         9.3270  -48.2530 -101.7080 O.3       1 ACP401      0.0000 
     17 C3'         7.2990  -48.3080 -100.7160 C.3       1 ACP401      0.0000 
     18 O3'         6.3230  -47.4010 -100.4520 O.3       1 ACP401      0.0000 
     19 C2'         7.0940  -48.9260 -102.1170 C.3       1 ACP401      0.0000 
     20 O2'         5.9990  -48.2030 -102.8360 O.3       1 ACP401      0.0000 
     21 C1'         8.2220  -48.7810 -102.7640 C.3       1 ACP401      0.0000 
     22 N9          8.6570  -50.0420 -103.3050 N.pl3     1 ACP401      0.0000 
     23 C8          9.4270  -50.9580 -102.7130 C.2       1 ACP401      0.0000 
     24 N7          9.5900  -51.9720 -103.5670 N.2       1 ACP401      0.0000 
     25 C5          8.9200  -51.6810 -104.6910 C.ar      1 ACP401      0.0000 
     26 C6          8.7590  -52.3710 -105.8720 C.ar      1 ACP401      0.0000 
     27 N6          9.2450  -53.6570 -106.3340 N.pl3     1 ACP401      0.0000 
     28 N1          8.0310  -51.8510 -106.8480 N.ar      1 ACP401      0.0000 
     29 C2          7.4450  -50.6410 -106.6840 C.ar      1 ACP401      0.0000 
     30 N3          7.6050  -49.9600 -105.5250 N.ar      1 ACP401      0.0000 
     31 C4          8.3440  -50.4870 -104.5310 C.ar      1 ACP401      0.0000 
@<TRIPOS>BOND
     1    1    2 ar   
     2    1    3 ar   
     3    1    4 ar   
     4    1    8 1    
     5    5    6 ar   
     6    5    7 ar   
     7    5    8 1    
     8    5   12 1    
     9    9   10 ar   
    10    9   11 ar   
    11    9   12 1    
    12    9   13 1    
    13   13   14 1    
    14   14   15 1    
    15   15   16 1    
    16   15   17 1    
    17   16   21 1    
    18   17   18 1    
    19   17   19 1    
    20   19   20 1    
    21   19   21 1    
    22   21   22 1    
    23   22   23 1    
    24   22   31 1    
    25   23   24 2    
    26   24   25 1    
    27   25   26 ar   
    28   25   31 ar   
    29   26   27 1    
    30   26   28 ar   
    31   28   29 ar   
    32   29   30 ar   
    33   30   31 ar   
@<TRIPOS>SUBSTRUCTURE
     1 ACP401      1 GROUP   
@<TRIPOS>SET
ATOM$ORANGE STATIC     ATOMS   COLORGROUP SYSTEM 
22 8 8 14 14 15 15 17 17 19 19 21 21 23 23 25 25 26 \
26 29 29 31 31 

