#    Name: 6o61_3_GDP
#    Modification time : Fri May 22 19:34:57 2020

@<TRIPOS>MOLECULE
6o61_3_GDP
   28    30     1     0     1
SMALL
NO_CHARGES


@<TRIPOS>ATOM
      1 PB         25.4150   11.7040   42.7990 P.3       1 GDP501      0.0000 
      2 O1B        26.5670   11.1710   41.9820 O.co2     1 GDP501      0.0000 
      3 O2B        24.5780   10.5700   43.3330 O.co2     1 GDP501      0.0000 
      4 O3B        25.9530   12.5200   43.9540 O.co2     1 GDP501      0.0000 
      5 O3A        24.5130   12.6080   41.8210 O.3       1 GDP501      0.0000 
      6 PA         22.9050   12.6650   41.8950 P.3       1 GDP501      0.0000 
      7 O1A        22.3180   11.2740   41.8490 O.co2     1 GDP501      0.0000 
      8 O2A        22.4310   13.4080   43.1230 O.co2     1 GDP501      0.0000 
      9 O5'        22.5380   13.4790   40.5560 O.3       1 GDP501      0.0000 
     10 C5'        21.6970   14.6260   40.6030 C.3       1 GDP501      0.0000 
     11 C4'        20.9150   14.7270   39.3050 C.3       1 GDP501      0.0000 
     12 O4'        20.2450   13.4900   39.1080 O.3       1 GDP501      0.0000 
     13 C3'        19.8360   15.7900   39.3680 C.3       1 GDP501      0.0000 
     14 O3'        19.8020   16.4620   38.1090 O.3       1 GDP501      0.0000 
     15 C2'        18.5210   15.0850   39.5220 C.3       1 GDP501      0.0000 
     16 O2'        17.5520   15.6750   38.6520 O.3       1 GDP501      0.0000 
     17 C1'        18.8300   13.6620   39.1260 C.3       1 GDP501      0.0000 
     18 N9         18.2960   12.7830   40.1740 N.pl3     1 GDP501      0.0000 
     19 C8         18.8130   12.5830   41.4000 C.2       1 GDP501      0.0000 
     20 N7         18.0580   11.6940   42.0950 N.2       1 GDP501      0.0000 
     21 C5         17.0430   11.3250   41.2930 C.2       1 GDP501      0.0000 
     22 C6         15.8830   10.4210   41.3820 C.2       1 GDP501      0.0000 
     23 O6         15.6620    9.7640   42.4200 O.2       1 GDP501      0.0000 
     24 N1         15.0860   10.3400   40.3120 N.am      1 GDP501      0.0000 
     25 C2         15.2860   11.0260   39.1720 C.2       1 GDP501      0.0000 
     26 N2         14.4170   10.8710   38.1430 N.pl3     1 GDP501      0.0000 
     27 N3         16.3290   11.8710   39.0200 N.2       1 GDP501      0.0000 
     28 C4         17.2090   12.0490   40.0280 C.2       1 GDP501      0.0000 
@<TRIPOS>BOND
     1    1    2 ar   
     2    1    3 ar   
     3    1    4 ar   
     4    1    5 1    
     5    5    6 1    
     6    6    7 ar   
     7    6    8 ar   
     8    6    9 1    
     9    9   10 1    
    10   10   11 1    
    11   11   12 1    
    12   11   13 1    
    13   12   17 1    
    14   13   14 1    
    15   13   15 1    
    16   15   16 1    
    17   15   17 1    
    18   17   18 1    
    19   18   19 1    
    20   18   28 1    
    21   19   20 2    
    22   20   21 1    
    23   21   22 1    
    24   21   28 2    
    25   22   23 2    
    26   22   24 am   
    27   24   25 1    
    28   25   26 1    
    29   25   27 2    
    30   27   28 1    
@<TRIPOS>SUBSTRUCTURE
     1 GDP501      1 GROUP   
@<TRIPOS>SET
ATOM$ORANGE STATIC     ATOMS   COLORGROUP SYSTEM 
20 10 10 11 11 13 13 15 15 17 17 19 19 21 21 22 22 25 \
25 28 28 

