#    Name: 6bkj_1_LEU_LEU_ACE_AR7
#    Modification time : Fri May 22 19:25:53 2020

@<TRIPOS>MOLECULE
6bkj_1_LEU_LEU_ACE_AR7
   30    29     4     0     0
SMALL
NO_CHARGES


@<TRIPOS>ATOM
      1 N          29.9510  111.1980   50.7370 N.am      1 LEU356      0.0000 
      2 CA         29.7730  110.3610   51.9050 C.3       1 LEU356      0.0000 
      3 C          31.1220  110.2480   52.5500 C.2       1 LEU356      0.0000 
      4 O          32.1170  110.0520   51.8720 O.2       1 LEU356      0.0000 
      5 CB         29.2110  108.9950   51.5420 C.3       1 LEU356      0.0000 
      6 CG         30.1670  107.9600   50.9720 C.3       1 LEU356      0.0000 
      7 CD1        31.1010  107.4440   52.0530 C.3       1 LEU356      0.0000 
      8 CD2        29.3520  106.8140   50.4010 C.3       1 LEU356      0.0000 
      9 N          31.1570  110.3690   53.8660 N.am      2 LEU357      0.0000 
     10 CA         32.4200  110.3040   54.5670 C.3       2 LEU357      0.0000 
     11 C          32.7310  108.9460   55.1610 C.2       2 LEU357      0.0000 
     12 O          31.8810  108.2940   55.7350 O.2       2 LEU357      0.0000 
     13 CB         32.4920  111.3920   55.6240 C.3       2 LEU357      0.0000 
     14 CG         33.4200  112.4880   55.1250 C.3       2 LEU357      0.0000 
     15 CD1        33.0950  112.8080   53.6780 C.3       2 LEU357      0.0000 
     16 CD2        33.3100  113.7190   55.9940 C.3       2 LEU357      0.0000 
     17 C          30.2120  112.4770   50.9490 C.2       3 ACE355      0.0000 
     18 O          30.1510  112.9580   52.0810 O.2       3 ACE355      0.0000 
     19 CH3        30.5720  113.3400   49.7390 C.3       3 ACE355      0.0000 
     20 N          33.9720  108.5510   54.9950 N.4       4 AR7358      0.0000 
     21 CA         34.6070  107.5070   55.7870 C.3       4 AR7358      0.0000 
     22 C          35.6330  108.1930   56.6450 C.3       4 AR7358      0.0000 
     23 O          36.8820  107.5090   57.1640 O.3       4 AR7358      0.0000 
     24 CB         35.2390  106.5620   54.7800 C.3       4 AR7358      0.0000 
     25 CG         34.2620  106.3080   53.6330 C.3       4 AR7358      0.0000 
     26 CD         34.7390  105.2700   52.6180 C.3       4 AR7358      0.0000 
     27 NE         35.7400  104.4490   53.2830 N.pl3     4 AR7358      0.0000 
     28 CZ         36.5120  103.6110   52.7450 C.cat     4 AR7358      0.0000 
     29 NH1        36.4460  103.4300   51.5030 N.pl3     4 AR7358      0.0000 
     30 NH2        37.3410  102.9630   53.4400 N.pl3     4 AR7358      0.0000 
@<TRIPOS>BOND
     1    1    2 1    
     2    1   17 du   
     3    2    3 1    
     4    2    5 1    
     5    3    4 2    
     6    3    9 am   
     7    5    6 1    
     8    6    7 1    
     9    6    8 1    
    10    9   10 1    
    11   10   11 1    
    12   10   13 1    
    13   11   12 2    
    14   11   20 du   
    15   13   14 1    
    16   14   15 1    
    17   14   16 1    
    18   17   18 2    
    19   17   19 1    
    20   20   21 1    
    21   21   22 1    
    22   21   24 1    
    23   22   23 1    
    24   24   25 1    
    25   25   26 1    
    26   26   27 1    
    27   27   28 ar   
    28   28   29 ar   
    29   28   30 ar   
@<TRIPOS>SUBSTRUCTURE
     1 LEU356      1 RESIDUE 
     2 LEU357      9 RESIDUE 
     3 ACE355     17 GROUP   
     4 AR7358     20 GROUP   
@<TRIPOS>SET

