#    Name: 6bkj_1_LEU_LEU_ACE_AR7_CAVITY_N1_4
#    Modification time : Fri May 22 19:25:55 2020

@<TRIPOS>MOLECULE
6bkj_1_LEU_LEU_ACE_AR7_CAVITY_N1_4
   63     0     5     0     0
SMALL
NO_CHARGES


@<TRIPOS>ATOM
      1 OG         32.2000  115.7800   53.5800 O.3       1 SER1        0.0000 
      2 OG         33.4700  115.0300   53.3300 O.3       1 SER1        0.0000 
      3 OG         34.1300  116.3000   52.9000 O.3       1 SER1        0.0000 
      4 OG         32.6300  116.0300   55.0000 O.3       1 SER1        0.0000 
      5 OG         31.7300  113.7300   57.2700 O.3       1 SER1        0.0000 
      6 N          28.1200  115.5000   51.7000 N.am      2 ALA2        0.0000 
      7 O          30.3800  109.6800   53.6300 O.2       2 ALA2        0.0000 
      8 O          31.6500  108.9300   53.3800 O.2       2 ALA2        0.0000 
      9 N          29.7700  111.7000   53.4600 N.am      2 ALA2        0.0000 
     10 N          31.0400  110.9500   53.2000 N.am      2 ALA2        0.0000 
     11 O          29.1600  113.7300   53.2900 O.2       2 ALA2        0.0000 
     12 N          30.4300  112.9800   53.0300 N.am      2 ALA2        0.0000 
     13 O          29.8300  115.0000   52.8600 O.2       2 ALA2        0.0000 
     14 O          30.4900  116.2800   52.4300 O.2       2 ALA2        0.0000 
     15 N          32.0900  109.1800   54.7900 N.am      2 ALA2        0.0000 
     16 N          31.4800  111.2000   54.6200 N.am      2 ALA2        0.0000 
     17 N          32.7500  110.4500   54.3600 N.am      2 ALA2        0.0000 
     18 N          34.0200  109.7000   54.1000 N.am      2 ALA2        0.0000 
     19 N          30.8700  113.2300   54.4400 N.am      2 ALA2        0.0000 
     20 N          32.1400  112.4800   54.1900 N.am      2 ALA2        0.0000 
     21 N          33.4100  111.7300   53.9300 N.am      2 ALA2        0.0000 
     22 O          31.5300  114.5000   54.0100 O.2       2 ALA2        0.0000 
     23 N          34.0800  113.0000   53.5000 N.am      2 ALA2        0.0000 
     24 N          35.4100  115.5500   52.6400 N.am      2 ALA2        0.0000 
     25 N          32.5200  109.4300   56.2100 N.am      2 ALA2        0.0000 
     26 N          31.9100  111.4600   56.0300 N.am      2 ALA2        0.0000 
     27 N          33.1800  110.7100   55.7800 N.am      2 ALA2        0.0000 
     28 N          34.4600  109.9600   55.5200 N.am      2 ALA2        0.0000 
     29 N          31.3000  113.4800   55.8600 N.am      2 ALA2        0.0000 
     30 N          32.5700  112.7300   55.6000 N.am      2 ALA2        0.0000 
     31 N          33.8500  111.9800   55.3500 N.am      2 ALA2        0.0000 
     32 O          30.6900  115.5100   55.6900 O.2       2 ALA2        0.0000 
     33 O          31.9600  114.7600   55.4300 O.2       2 ALA2        0.0000 
     34 O          34.2800  112.2300   56.7600 O.2       2 ALA2        0.0000 
     35 O          34.9400  113.5100   56.3300 O.2       2 ALA2        0.0000 
     36 NZ         33.8800  113.7800   50.2400 N.4       3 LYS4        0.0000 
     37 NZ         31.9900  116.5500   50.3300 N.4       3 LYS4        0.0000 
     38 NZ         33.7000  116.0500   51.4800 N.4       3 LYS4        0.0000 
     39 NZ         34.9700  115.3000   51.2300 N.4       3 LYS4        0.0000 
     40 NZ         31.3500  116.7800   55.2600 N.4       3 LYS4        0.0000 
     41 CA         34.9200  112.0000   51.8300 C.3       4 GLY6        0.0000 
     42 CA         34.3100  114.0300   51.6600 C.3       4 GLY6        0.0000 
     43 CA         35.5800  113.2800   51.4000 C.3       4 GLY6        0.0000 
     44 CA         34.7400  114.2800   53.0700 C.3       4 GLY6        0.0000 
     45 CA         33.2400  114.0100   55.1700 C.3       4 GLY6        0.0000 
     46 CA         34.5100  113.2600   54.9200 C.3       4 GLY6        0.0000 
     47 CA         33.9000  115.2800   54.7400 C.3       4 GLY6        0.0000 
     48 CA         35.1800  114.5300   54.4900 C.3       4 GLY6        0.0000 
     49 CA         33.0100  112.9800   57.0200 C.3       4 GLY6        0.0000 
     50 CA         32.4000  115.0100   56.8400 C.3       4 GLY6        0.0000 
     51 CA         33.6700  114.2600   56.5900 C.3       4 GLY6        0.0000 
     52 DU         30.0000  112.7300   51.6200 H         5 CUB7        0.0000 
     53 DU         29.3900  114.7500   51.4400 H         5 CUB7        0.0000 
     54 DU         30.0600  116.0300   51.0100 H         5 CUB7        0.0000 
     55 DU         31.3300  115.2800   50.7600 H         5 CUB7        0.0000 
     56 DU         32.3200  110.2000   52.9500 H         5 CUB7        0.0000 
     57 DU         31.7100  112.2300   52.7700 H         5 CUB7        0.0000 
     58 DU         32.9800  111.4800   52.5200 H         5 CUB7        0.0000 
     59 DU         31.1000  114.2500   52.6000 H         5 CUB7        0.0000 
     60 DU         33.6500  112.7500   52.0900 H         5 CUB7        0.0000 
     61 DU         31.7600  115.5300   52.1700 H         5 CUB7        0.0000 
     62 DU         33.0400  114.7800   51.9100 H         5 CUB7        0.0000 
     63 DU         32.8100  113.7500   53.7600 H         5 CUB7        0.0000 
@<TRIPOS>BOND
@<TRIPOS>SUBSTRUCTURE
     1 SER1        1 GROUP   
     2 ALA2        6 GROUP   
     3 LYS4       36 GROUP   
     4 GLY6       41 GROUP   
     5 CUB7       52 GROUP   
@<TRIPOS>SET

