#    Name: 6o9g_1_CYZ
#    Modification time : Fri May 22 19:27:39 2020

@<TRIPOS>MOLECULE
6o9g_1_CYZ
   24    31     1     0     0
SMALL
NO_CHARGES


@<TRIPOS>ATOM
      1 C1        152.2580  182.2990  170.1250 C.3       1 CYZ1302     0.0000 
      2 C2        152.1310  183.4120  170.0450 C.3       1 CYZ1302     0.0000 
      3 C3        152.6530  184.2600  169.5220 Du        1 CYZ1302     0.0000 
      4 C4        154.1820  183.9410  169.8370 Du        1 CYZ1302     0.0000 
      5 C5        154.0750  183.0830  170.4870 C.3       1 CYZ1302     0.0000 
      6 C6        153.6130  182.0680  170.3350 C.3       1 CYZ1302     0.0000 
      7 C7        153.1200  183.5700  171.2390 Du        1 CYZ1302     0.0000 
      8 C8        151.8170  181.6430  168.6060 C.3       1 CYZ1302     0.0000 
      9 N1        150.4830  182.0180  168.3740 N.pl3     1 CYZ1302     0.0000 
     10 S1        150.0970  181.4710  166.9430 S.o2      1 CYZ1302     0.0000 
     11 C9        150.6070  179.9750  166.5830 C.ar      1 CYZ1302     0.0000 
     12 C10       151.4960  179.3810  167.3800 C.ar      1 CYZ1302     0.0000 
     13 N2        152.0250  180.1590  168.6220 N.pl3     1 CYZ1302     0.0000 
     14 C11       150.1050  179.3360  165.4410 C.ar      1 CYZ1302     0.0000 
     15 C12       150.5270  178.0790  165.1670 C.ar      1 CYZ1302     0.0000 
     16 C13       151.4540  177.4530  165.9850 C.ar      1 CYZ1302     0.0000 
     17 C14       151.9470  178.0820  167.0990 C.ar      1 CYZ1302     0.0000 
     18 CL        152.0040  175.7870  165.5860 Cl        1 CYZ1302     0.0000 
     19 S2        149.8600  177.2210  163.6880 S.o2      1 CYZ1302     0.0000 
     20 O1        150.7010  182.3360  165.9750 O.2       1 CYZ1302     0.0000 
     21 O2        148.6190  181.4540  166.8580 O.2       1 CYZ1302     0.0000 
     22 O3        148.6970  177.9860  163.1190 O.2       1 CYZ1302     0.0000 
     23 O4        149.1900  175.9660  164.0690 O.2       1 CYZ1302     0.0000 
     24 N3        151.1340  176.9560  162.5210 N.pl3     1 CYZ1302     0.0000 
@<TRIPOS>BOND
     1    1    2 1    
     2    1    6 1    
     3    1    7 du   
     4    1    8 1    
     5    2    3 du   
     6    2    7 du   
     7    3    4 du   
     8    3    7 du   
     9    4    5 du   
    10    4    7 du   
    11    5    6 1    
    12    5    7 du   
    13    6    7 du   
    14    8    9 1    
    15    8   13 1    
    16    9   10 1    
    17   10   11 1    
    18   10   20 2    
    19   10   21 2    
    20   11   12 ar   
    21   11   14 ar   
    22   12   13 1    
    23   12   17 ar   
    24   14   15 ar   
    25   15   16 ar   
    26   15   19 1    
    27   16   17 ar   
    28   16   18 1    
    29   19   22 2    
    30   19   23 2    
    31   19   24 1    
@<TRIPOS>SUBSTRUCTURE
     1 CYZ1302     1 GROUP   
@<TRIPOS>SET

