#    Name: 6o9g_2_CYZ
#    Modification time : Fri May 22 19:28:05 2020

@<TRIPOS>MOLECULE
6o9g_2_CYZ
   24    31     1     0     0
SMALL
NO_CHARGES


@<TRIPOS>ATOM
      1 C1        171.7540  141.6850  170.1370 C.3       1 CYZ1302     0.0000 
      2 C2        171.8930  140.5730  170.0640 C.3       1 CYZ1302     0.0000 
      3 C3        171.3850  139.7170  169.5410 Du        1 CYZ1302     0.0000 
      4 C4        169.8500  140.0230  169.8360 Du        1 CYZ1302     0.0000 
      5 C5        169.9400  140.8850  170.4830 C.3       1 CYZ1302     0.0000 
      6 C6        170.3940  141.9030  170.3310 C.3       1 CYZ1302     0.0000 
      7 C7        170.8910  140.4100  171.2470 Du        1 CYZ1302     0.0000 
      8 C8        172.2050  142.3390  168.6200 C.3       1 CYZ1302     0.0000 
      9 N1        173.5420  141.9680  168.3980 N.pl3     1 CYZ1302     0.0000 
     10 S1        173.9370  142.5140  166.9680 S.o2      1 CYZ1302     0.0000 
     11 C9        173.4230  144.0080  166.6010 C.ar      1 CYZ1302     0.0000 
     12 C10       172.5240  144.5990  167.3900 C.ar      1 CYZ1302     0.0000 
     13 N2        171.9920  143.8220  168.6310 N.pl3     1 CYZ1302     0.0000 
     14 C11       173.9280  144.6470  165.4610 C.ar      1 CYZ1302     0.0000 
     15 C12       173.5020  145.9010  165.1820 C.ar      1 CYZ1302     0.0000 
     16 C13       172.5670  146.5240  165.9920 C.ar      1 CYZ1302     0.0000 
     17 C14       172.0700  145.8950  167.1040 C.ar      1 CYZ1302     0.0000 
     18 CL        172.0110  148.1860  165.5860 Cl        1 CYZ1302     0.0000 
     19 S2        174.1730  146.7600  163.7050 S.o2      1 CYZ1302     0.0000 
     20 O1        173.3470  141.6440  165.9970 O.2       1 CYZ1302     0.0000 
     21 O2        175.4160  142.5360  166.8960 O.2       1 CYZ1302     0.0000 
     22 O3        175.3380  145.9960  163.1410 O.2       1 CYZ1302     0.0000 
     23 O4        174.8380  148.0180  164.0850 O.2       1 CYZ1302     0.0000 
     24 N3        172.9020  147.0210  162.5340 N.pl3     1 CYZ1302     0.0000 
@<TRIPOS>BOND
     1    1    2 1    
     2    1    6 1    
     3    1    7 du   
     4    1    8 1    
     5    2    3 du   
     6    2    7 du   
     7    3    4 du   
     8    3    7 du   
     9    4    5 du   
    10    4    7 du   
    11    5    6 1    
    12    5    7 du   
    13    6    7 du   
    14    8    9 1    
    15    8   13 1    
    16    9   10 1    
    17   10   11 1    
    18   10   20 2    
    19   10   21 2    
    20   11   12 ar   
    21   11   14 ar   
    22   12   13 1    
    23   12   17 ar   
    24   14   15 ar   
    25   15   16 ar   
    26   15   19 1    
    27   16   17 ar   
    28   16   18 1    
    29   19   22 2    
    30   19   23 2    
    31   19   24 1    
@<TRIPOS>SUBSTRUCTURE
     1 CYZ1302     1 GROUP   
@<TRIPOS>SET

