#    Name: 6rq7_1_DO3_CAVITY_N1_4
#    Modification time : Fri May 22 19:24:13 2020

@<TRIPOS>MOLECULE
6rq7_1_DO3_CAVITY_N1_4
   55     0     6     0     0
SMALL
NO_CHARGES


@<TRIPOS>ATOM
      1 O          16.2200  -34.3900  -22.5400 O.2       1 ALA2        0.0000 
      2 N          12.8900  -31.3200  -21.1300 N.am      1 ALA2        0.0000 
      3 N          12.5800  -30.3900  -22.2700 N.am      1 ALA2        0.0000 
      4 O          17.2900  -33.4500  -22.0600 O.2       1 ALA2        0.0000 
      5 N          14.2600  -31.3100  -19.5100 N.am      1 ALA2        0.0000 
      6 N          13.9500  -30.3800  -20.6500 N.am      1 ALA2        0.0000 
      7 O          18.3500  -32.5100  -21.5800 O.2       1 ALA2        0.0000 
      8 N          15.6300  -31.3100  -17.8900 N.am      1 ALA2        0.0000 
      9 N          21.7400  -33.9300  -21.6600 N.am      1 ALA2        0.0000 
     10 O          19.0200  -32.7200  -17.9700 O.2       1 ALA2        0.0000 
     11 O          17.7000  -31.0800  -18.2600 O.2       1 ALA2        0.0000 
     12 N          22.8100  -32.9900  -21.1800 N.am      1 ALA2        0.0000 
     13 N          22.5100  -32.0600  -22.3100 N.am      1 ALA2        0.0000 
     14 N          22.8700  -31.3400  -19.8400 N.am      1 ALA2        0.0000 
     15 N          23.9300  -30.4000  -19.3600 N.am      1 ALA2        0.0000 
     16 OD1        17.5900  -34.3800  -20.9200 O.co2     2 ASP3        0.0000 
     17 OD1        16.5800  -33.6700  -20.0700 O.co2     2 ASP3        0.0000 
     18 OD1        22.0500  -34.8600  -20.5200 O.co2     2 ASP3        0.0000 
     19 OD1        23.1100  -33.9200  -20.0400 O.co2     2 ASP3        0.0000 
     20 NZ         15.2100  -33.6700  -21.6900 N.4       3 LYS4        0.0000 
     21 NZ         14.2000  -32.9600  -20.8400 N.4       3 LYS4        0.0000 
     22 NZ         13.9000  -32.0300  -21.9800 N.4       3 LYS4        0.0000 
     23 NZ         15.5700  -32.9500  -19.2200 N.4       3 LYS4        0.0000 
     24 NZ         15.2700  -32.0200  -20.3600 N.4       3 LYS4        0.0000 
     25 CZ         25.7100  -29.2500  -20.8700 C.ar      4 PHE5        0.0000 
     26 CZ         24.7000  -28.5300  -20.0200 C.ar      4 PHE5        0.0000 
     27 CZ         24.4000  -27.6000  -21.1500 C.ar      4 PHE5        0.0000 
     28 CA         13.1900  -32.2500  -19.9900 C.3       5 GLY6        0.0000 
     29 CA         14.5600  -32.2400  -18.3700 C.3       5 GLY6        0.0000 
     30 CA         19.6700  -34.1500  -21.2900 C.3       5 GLY6        0.0000 
     31 CA         18.9600  -34.3700  -19.3000 C.3       5 GLY6        0.0000 
     32 CA         18.6600  -33.4400  -20.4400 C.3       5 GLY6        0.0000 
     33 CA         15.3200  -30.3800  -19.0300 C.3       5 GLY6        0.0000 
     34 CA         15.0200  -29.4500  -20.1700 C.3       5 GLY6        0.0000 
     35 CA         21.0400  -34.1400  -19.6700 C.3       5 GLY6        0.0000 
     36 CA         16.3900  -29.4400  -18.5500 C.3       5 GLY6        0.0000 
     37 CA         18.5200  -27.5600  -17.5800 C.3       5 GLY6        0.0000 
     38 DU         16.2800  -32.7400  -21.2100 H         6 CUB7        0.0000 
     39 DU         15.9700  -31.8100  -22.3500 H         6 CUB7        0.0000 
     40 DU         14.9600  -31.1000  -21.5000 H         6 CUB7        0.0000 
     41 DU         13.6500  -29.4500  -21.7900 H         6 CUB7        0.0000 
     42 DU         17.6500  -32.7300  -19.5900 H         6 CUB7        0.0000 
     43 DU         17.3400  -31.8000  -20.7300 H         6 CUB7        0.0000 
     44 DU         16.6400  -32.0200  -18.7400 H         6 CUB7        0.0000 
     45 DU         16.3300  -31.0900  -19.8800 H         6 CUB7        0.0000 
     46 DU         20.7300  -33.2100  -20.8100 H         6 CUB7        0.0000 
     47 DU         20.0300  -33.4300  -18.8200 H         6 CUB7        0.0000 
     48 DU         19.7200  -32.5000  -19.9600 H         6 CUB7        0.0000 
     49 DU         18.7100  -31.7900  -19.1100 H         6 CUB7        0.0000 
     50 DU         17.4000  -30.1500  -19.4000 H         6 CUB7        0.0000 
     51 DU         22.1000  -33.2100  -19.1900 H         6 CUB7        0.0000 
     52 DU         21.8000  -32.2800  -20.3300 H         6 CUB7        0.0000 
     53 DU         19.7800  -30.8500  -18.6300 H         6 CUB7        0.0000 
     54 DU         23.6300  -29.4700  -20.5000 H         6 CUB7        0.0000 
     55 DU         23.3900  -26.8900  -20.3000 H         6 CUB7        0.0000 
@<TRIPOS>BOND
@<TRIPOS>SUBSTRUCTURE
     1 ALA2        1 GROUP   
     2 ASP3       16 GROUP   
     3 LYS4       20 GROUP   
     4 PHE5       25 GROUP   
     5 GLY6       28 GROUP   
     6 CUB7       38 GROUP   
@<TRIPOS>SET

