#    Name: 6rq7_1_DO3
#    Modification time : Fri May 22 19:24:12 2020

@<TRIPOS>MOLECULE
6rq7_1_DO3
   28    28     1     0     0
SMALL
NO_CHARGES


@<TRIPOS>ATOM
      1 N1         17.9280  -26.3340  -24.0880 N.3       1 DO3808      0.0000 
      2 N2         20.3460  -27.9250  -24.5760 N.3       1 DO3808      0.0000 
      3 N3         19.0080  -30.5560  -24.5250 N.3       1 DO3808      0.0000 
      4 N4         16.1930  -28.8960  -24.1870 N.4       1 DO3808      0.0000 
      5 O1         18.7270  -26.3390  -21.3810 O.co2     1 DO3808      0.0000 
      6 O3         20.9560  -29.6230  -22.2030 O.co2     1 DO3808      0.0000 
      7 O5         18.3040  -31.3130  -22.0680 O.co2     1 DO3808      0.0000 
      8 O7         16.1150  -28.6570  -21.5170 O.3       1 DO3808      0.0000 
      9 C1         19.1600  -25.7360  -24.6230 C.3       1 DO3808      0.0000 
     10 C2         20.0290  -26.7260  -25.3650 C.3       1 DO3808      0.0000 
     11 C3         20.7810  -29.0510  -25.4150 C.3       1 DO3808      0.0000 
     12 C4         19.6690  -30.0270  -25.7270 C.3       1 DO3808      0.0000 
     13 C5         17.5930  -30.8760  -24.7570 C.3       1 DO3808      0.0000 
     14 C6         16.7910  -29.6990  -25.2650 C.3       1 DO3808      0.0000 
     15 C7         15.8220  -27.5440  -24.6330 C.3       1 DO3808      0.0000 
     16 C8         16.9960  -26.7430  -25.1480 C.3       1 DO3808      0.0000 
     17 C9         17.5570  -26.0090  -21.6560 C.2       1 DO3808      0.0000 
     18 C10        17.2910  -25.4970  -23.0700 C.3       1 DO3808      0.0000 
     19 C11        21.7860  -28.9290  -22.8220 C.2       1 DO3808      0.0000 
     20 C12        21.2730  -27.6490  -23.4780 C.3       1 DO3808      0.0000 
     21 C13        19.3090  -31.9260  -22.4780 C.2       1 DO3808      0.0000 
     22 C14        19.7460  -31.6650  -23.9180 C.3       1 DO3808      0.0000 
     23 C15        14.8690  -29.0360  -22.0880 C.3       1 DO3808      0.0000 
     24 C16        15.1050  -29.5920  -23.4820 C.3       1 DO3808      0.0000 
     25 C17        14.1440  -30.0150  -21.1810 C.3       1 DO3808      0.0000 
     26 O2         16.5840  -26.0600  -20.8770 O.co2     1 DO3808      0.0000 
     27 O4         22.9990  -29.1880  -22.9530 O.co2     1 DO3808      0.0000 
     28 O6         19.9900  -32.7340  -21.8150 O.co2     1 DO3808      0.0000 
@<TRIPOS>BOND
     1    1    9 1    
     2    1   16 1    
     3    1   18 1    
     4    2   10 1    
     5    2   11 1    
     6    2   20 1    
     7    3   12 1    
     8    3   13 1    
     9    3   22 1    
    10    4   14 1    
    11    4   15 1    
    12    4   24 1    
    13    5   17 ar   
    14    6   19 ar   
    15    7   21 ar   
    16    8   23 1    
    17    9   10 1    
    18   11   12 1    
    19   13   14 1    
    20   15   16 1    
    21   17   18 1    
    22   17   26 ar   
    23   19   20 1    
    24   19   27 ar   
    25   21   22 1    
    26   21   28 ar   
    27   23   24 1    
    28   23   25 1    
@<TRIPOS>SUBSTRUCTURE
     1 DO3808      1 GROUP   
@<TRIPOS>SET

