#    Name: 6rq7_2_DO3
#    Modification time : Fri May 22 19:24:17 2020

@<TRIPOS>MOLECULE
6rq7_2_DO3
   28    28     1     0     0
SMALL
NO_CHARGES


@<TRIPOS>ATOM
      1 N1         23.5550  -27.8040  -17.5770 N.3       1 DO3809      0.0000 
      2 N2         21.2090  -29.6250  -15.8360 N.3       1 DO3809      0.0000 
      3 N3         22.8300  -31.9780  -15.2930 N.3       1 DO3809      0.0000 
      4 N4         24.9980  -30.2470  -16.9330 N.4       1 DO3809      0.0000 
      5 O1         21.3750  -27.9810  -19.0870 O.co2     1 DO3809      0.0000 
      6 O3         19.7580  -30.6830  -17.8550 O.co2     1 DO3809      0.0000 
      7 O5         23.0900  -34.3440  -17.4780 O.co2     1 DO3809      0.0000 
      8 O7         24.7050  -30.2080  -19.5550 O.3       1 DO3809      0.0000 
      9 C1         22.4560  -27.6170  -16.6180 C.3       1 DO3809      0.0000 
     10 C2         22.3540  -28.7330  -15.6030 C.3       1 DO3809      0.0000 
     11 C3         20.9280  -30.4920  -14.6830 C.3       1 DO3809      0.0000 
     12 C4         22.1370  -31.2660  -14.2100 C.3       1 DO3809      0.0000 
     13 C5         24.2930  -31.8770  -15.1870 C.3       1 DO3809      0.0000 
     14 C6         24.8180  -30.4930  -15.4940 C.3       1 DO3809      0.0000 
     15 C7         25.7120  -28.9890  -17.2020 C.3       1 DO3809      0.0000 
     16 C8         24.8760  -27.7590  -16.9330 C.3       1 DO3809      0.0000 
     17 C9         22.1510  -27.0940  -19.4950 C.2       1 DO3809      0.0000 
     18 C10        23.4580  -26.9050  -18.7290 C.3       1 DO3809      0.0000 
     19 C11        19.1820  -29.7470  -17.2660 C.2       1 DO3809      0.0000 
     20 C12        20.0220  -28.9070  -16.3050 C.3       1 DO3809      0.0000 
     21 C13        22.1600  -33.7390  -16.9080 C.2       1 DO3809      0.0000 
     22 C14        22.3700  -33.3600  -15.4440 C.3       1 DO3809      0.0000 
     23 C15        25.1030  -31.4930  -19.0930 C.3       1 DO3809      0.0000 
     24 C16        25.5670  -31.3990  -17.6490 C.3       1 DO3809      0.0000 
     25 C17        23.9810  -32.5000  -19.2860 C.3       1 DO3809      0.0000 
     26 O2         21.9540  -26.3480  -20.4750 O.co2     1 DO3809      0.0000 
     27 O4         17.9810  -29.4360  -17.3920 O.co2     1 DO3809      0.0000 
     28 O6         21.0750  -33.4150  -17.4290 O.co2     1 DO3809      0.0000 
@<TRIPOS>BOND
     1    1    9 1    
     2    1   16 1    
     3    1   18 1    
     4    2   10 1    
     5    2   11 1    
     6    2   20 1    
     7    3   12 1    
     8    3   13 1    
     9    3   22 1    
    10    4   14 1    
    11    4   15 1    
    12    4   24 1    
    13    5   17 ar   
    14    6   19 ar   
    15    7   21 ar   
    16    8   23 1    
    17    9   10 1    
    18   11   12 1    
    19   13   14 1    
    20   15   16 1    
    21   17   18 1    
    22   17   26 ar   
    23   19   20 1    
    24   19   27 ar   
    25   21   22 1    
    26   21   28 ar   
    27   23   24 1    
    28   23   25 1    
@<TRIPOS>SUBSTRUCTURE
     1 DO3809      1 GROUP   
@<TRIPOS>SET

