#    Name: 6rq7_1_DO3_CAVITY_N1_6
#    Modification time : Fri May 22 19:24:13 2020

@<TRIPOS>MOLECULE
6rq7_1_DO3_CAVITY_N1_6
  105     0     6     0     0
SMALL
NO_CHARGES


@<TRIPOS>ATOM
      1 O          16.2200  -34.3900  -22.5400 O.2       1 ALA2        0.0000 
      2 N          12.8900  -31.3200  -21.1300 N.am      1 ALA2        0.0000 
      3 N          12.5800  -30.3900  -22.2700 N.am      1 ALA2        0.0000 
      4 O          17.2900  -33.4500  -22.0600 O.2       1 ALA2        0.0000 
      5 N          14.2600  -31.3100  -19.5100 N.am      1 ALA2        0.0000 
      6 N          13.9500  -30.3800  -20.6500 N.am      1 ALA2        0.0000 
      7 O          18.3500  -32.5100  -21.5800 O.2       1 ALA2        0.0000 
      8 O          16.9400  -32.9500  -17.6000 O.2       1 ALA2        0.0000 
      9 N          15.6300  -31.3100  -17.8900 N.am      1 ALA2        0.0000 
     10 N          21.7400  -33.9300  -21.6600 N.am      1 ALA2        0.0000 
     11 N          21.6400  -36.0000  -17.4000 N.am      1 ALA2        0.0000 
     12 N          20.6300  -35.2900  -16.5500 N.am      1 ALA2        0.0000 
     13 O          19.3200  -33.6500  -16.8300 O.2       1 ALA2        0.0000 
     14 O          19.0200  -32.7200  -17.9700 O.2       1 ALA2        0.0000 
     15 O          18.0000  -32.0100  -17.1200 O.2       1 ALA2        0.0000 
     16 O          17.7000  -31.0800  -18.2600 O.2       1 ALA2        0.0000 
     17 N          16.6900  -30.3700  -17.4100 N.am      1 ALA2        0.0000 
     18 N          22.8100  -32.9900  -21.1800 N.am      1 ALA2        0.0000 
     19 N          22.5100  -32.0600  -22.3100 N.am      1 ALA2        0.0000 
     20 O          20.3800  -32.7100  -16.3500 O.2       1 ALA2        0.0000 
     21 O          20.0800  -31.7800  -17.4900 O.2       1 ALA2        0.0000 
     22 O          19.0700  -31.0700  -16.6400 O.2       1 ALA2        0.0000 
     23 O          18.7700  -30.1400  -17.7800 O.2       1 ALA2        0.0000 
     24 O          17.7600  -29.4300  -16.9300 O.2       1 ALA2        0.0000 
     25 N          24.1800  -32.9800  -19.5600 N.am      1 ALA2        0.0000 
     26 N          22.8700  -31.3400  -19.8400 N.am      1 ALA2        0.0000 
     27 N          25.2500  -32.0400  -19.0700 N.am      1 ALA2        0.0000 
     28 N          23.9300  -30.4000  -19.3600 N.am      1 ALA2        0.0000 
     29 N          23.7400  -26.1700  -17.8300 N.am      1 ALA2        0.0000 
     30 OD1        17.5900  -34.3800  -20.9200 O.co2     2 ASP3        0.0000 
     31 OD1        16.8800  -34.6000  -18.9400 O.co2     2 ASP3        0.0000 
     32 OD1        16.5800  -33.6700  -20.0700 O.co2     2 ASP3        0.0000 
     33 OD1        22.0500  -34.8600  -20.5200 O.co2     2 ASP3        0.0000 
     34 OD1        23.1100  -33.9200  -20.0400 O.co2     2 ASP3        0.0000 
     35 NZ         15.2100  -33.6700  -21.6900 N.4       3 LYS4        0.0000 
     36 NZ         14.2000  -32.9600  -20.8400 N.4       3 LYS4        0.0000 
     37 NZ         13.9000  -32.0300  -21.9800 N.4       3 LYS4        0.0000 
     38 NZ         15.8700  -33.8800  -18.0900 N.4       3 LYS4        0.0000 
     39 NZ         15.5700  -32.9500  -19.2200 N.4       3 LYS4        0.0000 
     40 NZ         15.2700  -32.0200  -20.3600 N.4       3 LYS4        0.0000 
     41 CZ         25.7100  -29.2500  -20.8700 C.ar      4 PHE5        0.0000 
     42 CZ         24.7000  -28.5300  -20.0200 C.ar      4 PHE5        0.0000 
     43 CZ         24.4000  -27.6000  -21.1500 C.ar      4 PHE5        0.0000 
     44 CZ         26.0700  -28.5300  -18.4000 C.ar      4 PHE5        0.0000 
     45 CZ         25.7600  -27.6000  -19.5300 C.ar      4 PHE5        0.0000 
     46 CZ         25.0600  -27.8100  -17.5500 C.ar      4 PHE5        0.0000 
     47 CZ         24.7500  -26.8800  -18.6800 C.ar      4 PHE5        0.0000 
     48 CA         13.1900  -32.2500  -19.9900 C.3       5 GLY6        0.0000 
     49 CA         17.1800  -35.5300  -17.8000 C.3       5 GLY6        0.0000 
     50 CA         14.5600  -32.2400  -18.3700 C.3       5 GLY6        0.0000 
     51 CA         19.6700  -34.1500  -21.2900 C.3       5 GLY6        0.0000 
     52 CA         19.5600  -36.2300  -17.0300 C.3       5 GLY6        0.0000 
     53 CA         18.9600  -34.3700  -19.3000 C.3       5 GLY6        0.0000 
     54 CA         18.6600  -33.4400  -20.4400 C.3       5 GLY6        0.0000 
     55 CA         18.2500  -34.5900  -17.3200 C.3       5 GLY6        0.0000 
     56 CA         17.9500  -33.6600  -18.4500 C.3       5 GLY6        0.0000 
     57 CA         15.3200  -30.3800  -19.0300 C.3       5 GLY6        0.0000 
     58 CA         15.0200  -29.4500  -20.1700 C.3       5 GLY6        0.0000 
     59 CA         22.3500  -35.7900  -19.3800 C.3       5 GLY6        0.0000 
     60 CA         21.3400  -35.0700  -18.5300 C.3       5 GLY6        0.0000 
     61 CA         21.0400  -34.1400  -19.6700 C.3       5 GLY6        0.0000 
     62 CA         20.3300  -34.3600  -17.6800 C.3       5 GLY6        0.0000 
     63 CA         16.3900  -29.4400  -18.5500 C.3       5 GLY6        0.0000 
     64 CA         23.4200  -34.8500  -18.9000 C.3       5 GLY6        0.0000 
     65 CA         24.4800  -33.9100  -18.4200 C.3       5 GLY6        0.0000 
     66 CA         18.8300  -28.4900  -16.4400 C.3       5 GLY6        0.0000 
     67 CA         18.5200  -27.5600  -17.5800 C.3       5 GLY6        0.0000 
     68 CA         26.3100  -31.1100  -18.5900 C.3       5 GLY6        0.0000 
     69 CA         26.0100  -30.1800  -19.7300 C.3       5 GLY6        0.0000 
     70 CA         27.0800  -29.2400  -19.2500 C.3       5 GLY6        0.0000 
     71 CA         24.4500  -25.9600  -19.8200 C.3       5 GLY6        0.0000 
     72 CA         23.4400  -25.2400  -18.9700 C.3       5 GLY6        0.0000 
     73 DU         16.2800  -32.7400  -21.2100 H         6 CUB7        0.0000 
     74 DU         15.9700  -31.8100  -22.3500 H         6 CUB7        0.0000 
     75 DU         14.9600  -31.1000  -21.5000 H         6 CUB7        0.0000 
     76 DU         13.6500  -29.4500  -21.7900 H         6 CUB7        0.0000 
     77 DU         17.6500  -32.7300  -19.5900 H         6 CUB7        0.0000 
     78 DU         17.3400  -31.8000  -20.7300 H         6 CUB7        0.0000 
     79 DU         16.6400  -32.0200  -18.7400 H         6 CUB7        0.0000 
     80 DU         16.3300  -31.0900  -19.8800 H         6 CUB7        0.0000 
     81 DU         20.7300  -33.2100  -20.8100 H         6 CUB7        0.0000 
     82 DU         20.0300  -33.4300  -18.8200 H         6 CUB7        0.0000 
     83 DU         19.7200  -32.5000  -19.9600 H         6 CUB7        0.0000 
     84 DU         18.7100  -31.7900  -19.1100 H         6 CUB7        0.0000 
     85 DU         17.4000  -30.1500  -19.4000 H         6 CUB7        0.0000 
     86 DU         22.4000  -34.1400  -18.0500 H         6 CUB7        0.0000 
     87 DU         22.1000  -33.2100  -19.1900 H         6 CUB7        0.0000 
     88 DU         21.8000  -32.2800  -20.3300 H         6 CUB7        0.0000 
     89 DU         21.3900  -33.4200  -17.2000 H         6 CUB7        0.0000 
     90 DU         19.7800  -30.8500  -18.6300 H         6 CUB7        0.0000 
     91 DU         23.4700  -33.2000  -17.5700 H         6 CUB7        0.0000 
     92 DU         23.1700  -32.2700  -18.7100 H         6 CUB7        0.0000 
     93 DU         22.4600  -32.4900  -16.7200 H         6 CUB7        0.0000 
     94 DU         21.1500  -30.8500  -17.0100 H         6 CUB7        0.0000 
     95 DU         19.8400  -29.2000  -17.2900 H         6 CUB7        0.0000 
     96 DU         24.2400  -31.3300  -18.2200 H         6 CUB7        0.0000 
     97 DU         23.6300  -29.4700  -20.5000 H         6 CUB7        0.0000 
     98 DU         20.9000  -28.2700  -16.8100 H         6 CUB7        0.0000 
     99 DU         25.3000  -30.3900  -17.7400 H         6 CUB7        0.0000 
    100 DU         25.0000  -29.4600  -18.8800 H         6 CUB7        0.0000 
    101 DU         23.9900  -28.7500  -18.0300 H         6 CUB7        0.0000 
    102 DU         23.6900  -27.8200  -19.1700 H         6 CUB7        0.0000 
    103 DU         23.3900  -26.8900  -20.3000 H         6 CUB7        0.0000 
    104 DU         22.9800  -28.0400  -17.1800 H         6 CUB7        0.0000 
    105 DU         22.6800  -27.1100  -18.3200 H         6 CUB7        0.0000 
@<TRIPOS>BOND
@<TRIPOS>SUBSTRUCTURE
     1 ALA2        1 GROUP   
     2 ASP3       30 GROUP   
     3 LYS4       35 GROUP   
     4 PHE5       41 GROUP   
     5 GLY6       48 GROUP   
     6 CUB7       73 GROUP   
@<TRIPOS>SET

