#    Name: 6snd_1_PC
#    Modification time : Fri May 22 19:28:44 2020

@<TRIPOS>MOLECULE
6snd_1_PC
   11    10     1     0     0
SMALL
NO_CHARGES


@<TRIPOS>ATOM
      1 P1          7.5890  -11.8410  -16.7690 P.3       1 PC302       0.0000 
      2 O1          6.2110  -11.9530  -17.3560 O.co2     1 PC302       0.0000 
      3 O3          7.7260  -10.5190  -16.0640 O.co2     1 PC302       0.0000 
      4 O4          7.8400  -12.9820  -15.8200 O.co2     1 PC302       0.0000 
      5 O2          8.6650  -11.9220  -17.9970 O.3       1 PC302       0.0000 
      6 C1          9.1920  -10.7420  -18.5000 C.3       1 PC302       0.0000 
      7 C2          9.8130  -11.0230  -19.8710 C.3       1 PC302       0.0000 
      8 N1         11.1240  -11.6210  -19.7610 N.4       1 PC302       0.0000 
      9 C3         11.7950  -11.5030  -21.0310 C.3       1 PC302       0.0000 
     10 C4         11.0410  -13.0210  -19.4230 C.3       1 PC302       0.0000 
     11 C5         11.8880  -10.9440  -18.7460 C.3       1 PC302       0.0000 
@<TRIPOS>BOND
     1    1    2 ar   
     2    1    3 ar   
     3    1    4 ar   
     4    1    5 1    
     5    5    6 1    
     6    6    7 1    
     7    7    8 1    
     8    8    9 1    
     9    8   10 1    
    10    8   11 1    
@<TRIPOS>SUBSTRUCTURE
     1 PC302       1 GROUP   
@<TRIPOS>SET

