#    Name: 6snd_1_PC_CAVITY_N1_6
#    Modification time : Fri May 22 19:28:44 2020

@<TRIPOS>MOLECULE
6snd_1_PC_CAVITY_N1_6
  116     0     6     0     0
SMALL
NO_CHARGES


@<TRIPOS>ATOM
      1 OG          7.7400   -8.8300  -17.6300 O.3       1 SER1        0.0000 
      2 OG          8.6300   -9.2400  -18.7700 O.3       1 SER1        0.0000 
      3 OG          9.8000  -10.9500  -19.2300 O.3       1 SER1        0.0000 
      4 OG         11.5700  -11.7600  -21.5100 O.3       1 SER1        0.0000 
      5 OG          9.8000   -8.6200  -18.0800 O.3       1 SER1        0.0000 
      6 OG         10.6900   -9.0300  -19.2200 O.3       1 SER1        0.0000 
      7 OG         14.1500  -17.6600  -17.3800 O.3       1 SER1        0.0000 
      8 O           5.6700  -11.3700  -18.3300 O.2       2 ALA2        0.0000 
      9 O           5.9500  -12.6800  -17.6500 O.2       2 ALA2        0.0000 
     10 O           6.8500  -10.7500  -17.6400 O.2       2 ALA2        0.0000 
     11 O           7.1300  -12.0600  -16.9600 O.2       2 ALA2        0.0000 
     12 O           7.6900  -14.6600  -15.5800 O.2       2 ALA2        0.0000 
     13 O           8.3000  -13.7700  -17.4100 O.2       2 ALA2        0.0000 
     14 O           8.5800  -15.0700  -16.7200 O.2       2 ALA2        0.0000 
     15 O           8.8600  -16.3800  -16.0400 O.2       2 ALA2        0.0000 
     16 O           9.4600  -15.4800  -17.8600 O.2       2 ALA2        0.0000 
     17 O          11.2400  -16.2900  -20.1400 O.2       2 ALA2        0.0000 
     18 N          11.5200  -17.6000  -19.4600 N.am      2 ALA2        0.0000 
     19 N          12.4100  -18.0100  -20.6000 N.am      2 ALA2        0.0000 
     20 O           8.0200  -10.1300  -16.9500 O.2       2 ALA2        0.0000 
     21 O          12.1300  -14.3700  -20.1300 O.2       2 ALA2        0.0000 
     22 O          12.4100  -15.6800  -19.4500 O.2       2 ALA2        0.0000 
     23 O          13.0200  -14.7800  -21.2700 O.2       2 ALA2        0.0000 
     24 O          13.3000  -16.0800  -20.5900 O.2       2 ALA2        0.0000 
     25 N          13.5800  -17.3900  -19.9000 N.am      2 ALA2        0.0000 
     26 N          10.9700  -10.3300  -18.5300 N.am      2 ALA2        0.0000 
     27 N          12.1000  -15.5400  -15.7900 N.am      2 ALA2        0.0000 
     28 N          12.3800  -16.8500  -15.1000 N.am      2 ALA2        0.0000 
     29 N          11.8600  -10.7400  -19.6700 N.am      2 ALA2        0.0000 
     30 N          12.1400  -12.0400  -18.9900 N.am      2 ALA2        0.0000 
     31 N          12.9900  -15.9500  -16.9300 N.am      2 ALA2        0.0000 
     32 N          14.4800  -15.4600  -19.8900 N.am      2 ALA2        0.0000 
     33 O          15.3600  -15.8700  -21.0300 O.2       2 ALA2        0.0000 
     34 N          13.3200  -11.4200  -18.2900 N.am      2 ALA2        0.0000 
     35 N          13.6000  -12.7300  -17.6100 N.am      2 ALA2        0.0000 
     36 N          13.8800  -14.0300  -16.9200 N.am      2 ALA2        0.0000 
     37 OD1         7.4100  -13.3600  -16.2700 O.co2     3 ASP3        0.0000 
     38 OD1         8.3100  -11.4400  -16.2600 O.co2     3 ASP3        0.0000 
     39 OD1         8.5900  -12.7400  -15.5800 O.co2     3 ASP3        0.0000 
     40 OD1         8.8700  -14.0400  -14.8900 O.co2     3 ASP3        0.0000 
     41 CZ          4.4900  -11.9900  -19.0300 C.ar      4 PHE5        0.0000 
     42 CZ          5.3800  -12.4000  -20.1700 C.ar      4 PHE5        0.0000 
     43 CZ          6.2700  -10.4800  -20.1600 C.ar      4 PHE5        0.0000 
     44 CZ          6.5600  -11.7800  -19.4700 C.ar      4 PHE5        0.0000 
     45 CZ          6.8400  -13.0800  -18.7900 C.ar      4 PHE5        0.0000 
     46 CZ          7.9700  -18.3000  -16.0500 C.ar      4 PHE5        0.0000 
     47 CZ         10.3400  -18.2200  -20.1500 C.ar      4 PHE5        0.0000 
     48 CZ          7.4500   -9.8600  -19.4700 C.ar      4 PHE5        0.0000 
     49 CZ          7.7300  -11.1600  -18.7800 C.ar      4 PHE5        0.0000 
     50 CZ          8.0100  -12.4600  -18.1000 C.ar      4 PHE5        0.0000 
     51 CZ          9.1400  -17.6800  -15.3500 C.ar      4 PHE5        0.0000 
     52 CZ          8.6200  -11.5700  -19.9200 C.ar      4 PHE5        0.0000 
     53 CZ          8.9000  -12.8700  -19.2300 C.ar      4 PHE5        0.0000 
     54 CZ          9.1800  -14.1800  -18.5500 C.ar      4 PHE5        0.0000 
     55 CZ          9.7500  -16.7800  -17.1800 C.ar      4 PHE5        0.0000 
     56 CZ         10.0300  -18.0900  -16.4900 C.ar      4 PHE5        0.0000 
     57 CZ         10.3500  -15.8900  -19.0000 C.ar      4 PHE5        0.0000 
     58 CZ         10.6300  -17.1900  -18.3200 C.ar      4 PHE5        0.0000 
     59 CZ         10.9100  -18.4900  -17.6300 C.ar      4 PHE5        0.0000 
     60 CZ          6.8600   -8.4200  -16.4900 C.ar      4 PHE5        0.0000 
     61 CZ          7.1400   -9.7300  -15.8100 C.ar      4 PHE5        0.0000 
     62 CZ          9.1500  -15.3500  -14.2000 C.ar      4 PHE5        0.0000 
     63 CZ         10.0400  -15.7600  -15.3400 C.ar      4 PHE5        0.0000 
     64 CZ         10.3200  -17.0600  -14.6600 C.ar      4 PHE5        0.0000 
     65 CZ         10.6800  -11.3600  -20.3700 C.ar      4 PHE5        0.0000 
     66 CZ         10.9600  -12.6600  -19.6800 C.ar      4 PHE5        0.0000 
     67 CZ         11.2500  -13.9600  -18.9900 C.ar      4 PHE5        0.0000 
     68 CZ         11.8500  -13.0700  -20.8200 C.ar      4 PHE5        0.0000 
     69 CZ         11.2100  -15.1400  -14.6500 C.ar      4 PHE5        0.0000 
     70 CZ         13.0300  -12.4500  -20.1300 C.ar      4 PHE5        0.0000 
     71 CZ         13.3100  -13.7500  -19.4400 C.ar      4 PHE5        0.0000 
     72 CZ         14.1900  -14.1600  -20.5800 C.ar      4 PHE5        0.0000 
     73 CZ         14.4900  -13.1300  -18.7500 C.ar      4 PHE5        0.0000 
     74 CZ         15.6500  -14.8400  -19.2000 C.ar      4 PHE5        0.0000 
     75 CZ         16.8300  -14.2200  -18.5100 C.ar      4 PHE5        0.0000 
     76 CA          5.1000  -11.1000  -20.8500 C.3       5 GLY6        0.0000 
     77 CA          7.9700  -15.9700  -14.9000 C.3       5 GLY6        0.0000 
     78 CA          8.2600  -17.2700  -14.2100 C.3       5 GLY6        0.0000 
     79 CA          9.1900  -11.8400  -17.4000 C.3       5 GLY6        0.0000 
     80 CA          9.4700  -13.1500  -16.7200 C.3       5 GLY6        0.0000 
     81 CA          9.7600  -14.4500  -16.0300 C.3       5 GLY6        0.0000 
     82 CA          8.3100   -9.1100  -15.1100 C.3       5 GLY6        0.0000 
     83 CA          9.2000   -9.5100  -16.2500 C.3       5 GLY6        0.0000 
     84 CA         10.0900   -9.9200  -17.3900 C.3       5 GLY6        0.0000 
     85 CA         10.3700  -11.2300  -16.7100 C.3       5 GLY6        0.0000 
     86 CA         10.9300  -13.8300  -15.3400 C.3       5 GLY6        0.0000 
     87 CA         11.2500  -11.6300  -17.8500 C.3       5 GLY6        0.0000 
     88 CA         11.5400  -12.9400  -17.1600 C.3       5 GLY6        0.0000 
     89 CA         11.8200  -14.2400  -16.4800 C.3       5 GLY6        0.0000 
     90 CA          9.8100   -6.2900  -16.9300 C.3       5 GLY6        0.0000 
     91 CA         10.1000   -7.5900  -16.2500 C.3       5 GLY6        0.0000 
     92 CA         11.2600   -9.3000  -16.7000 C.3       5 GLY6        0.0000 
     93 CA         13.0000  -13.6200  -15.7800 C.3       5 GLY6        0.0000 
     94 CA         14.7700  -14.4400  -18.0600 C.3       5 GLY6        0.0000 
     95 CA         15.0500  -15.7400  -17.3800 C.3       5 GLY6        0.0000 
     96 CA         15.9400  -16.1500  -18.5200 C.3       5 GLY6        0.0000 
     97 CA         15.9400  -13.8200  -17.3700 C.3       5 GLY6        0.0000 
     98 DU          8.9100  -10.5400  -18.0900 H         6 CUB7        0.0000 
     99 DU         10.0800  -12.2500  -18.5400 H         6 CUB7        0.0000 
    100 DU         10.3600  -13.5600  -17.8600 H         6 CUB7        0.0000 
    101 DU         10.6400  -14.8600  -17.1700 H         6 CUB7        0.0000 
    102 DU         10.9200  -16.1600  -16.4800 H         6 CUB7        0.0000 
    103 DU         11.2100  -17.4700  -15.8000 H         6 CUB7        0.0000 
    104 DU         11.5300  -15.2700  -18.3100 H         6 CUB7        0.0000 
    105 DU         11.8100  -16.5700  -17.6200 H         6 CUB7        0.0000 
    106 DU         12.0900  -17.8800  -16.9400 H         6 CUB7        0.0000 
    107 DU         12.7000  -16.9800  -18.7600 H         6 CUB7        0.0000 
    108 DU         12.9800  -18.2800  -18.0800 H         6 CUB7        0.0000 
    109 DU          8.0300   -7.8000  -15.8000 H         6 CUB7        0.0000 
    110 DU          8.9200   -8.2100  -16.9400 H         6 CUB7        0.0000 
    111 DU         12.4200  -13.3400  -18.3000 H         6 CUB7        0.0000 
    112 DU         12.7000  -14.6500  -17.6200 H         6 CUB7        0.0000 
    113 DU         13.5900  -15.0600  -18.7500 H         6 CUB7        0.0000 
    114 DU         13.8700  -16.3600  -18.0700 H         6 CUB7        0.0000 
    115 DU         14.7600  -16.7700  -19.2100 H         6 CUB7        0.0000 
    116 DU          9.2100   -7.1800  -15.1100 H         6 CUB7        0.0000 
@<TRIPOS>BOND
@<TRIPOS>SUBSTRUCTURE
     1 SER1        1 GROUP   
     2 ALA2        8 GROUP   
     3 ASP3       37 GROUP   
     4 PHE5       41 GROUP   
     5 GLY6       76 GROUP   
     6 CUB7       98 GROUP   
@<TRIPOS>SET

