#    Name: 6iix_1_CO8
#    Modification time : Fri May 22 19:28:30 2020

@<TRIPOS>MOLECULE
6iix_1_CO8
   57    59     1     0     0
SMALL
NO_CHARGES


@<TRIPOS>ATOM
      1 N1A       -40.3290    2.3590  -10.9960 N.ar      1 CO8401      0.0000 
      2 C2A       -39.6160    3.1420  -11.8340 C.ar      1 CO8401      0.0000 
      3 N3A       -40.0530    4.3370  -12.2730 N.ar      1 CO8401      0.0000 
      4 C4A       -41.2750    4.8120  -11.8680 C.ar      1 CO8401      0.0000 
      5 C5A       -42.1000    4.0130  -10.9600 C.ar      1 CO8401      0.0000 
      6 C6A       -41.5500    2.7210  -10.5320 C.ar      1 CO8401      0.0000 
      7 N6A       -42.2580    1.9370   -9.6930 N.pl3     1 CO8401      0.0000 
      8 N7A       -43.2230    4.7040  -10.7190 N.2       1 CO8401      0.0000 
      9 C8A       -43.1450    5.8530  -11.4030 C.2       1 CO8401      0.0000 
     10 N9A       -41.9780    5.9090  -12.0870 N.pl3     1 CO8401      0.0000 
     11 C1B       -41.5400    7.0230  -12.9350 C.3       1 CO8401      0.0000 
     12 C2B       -42.4870    7.3610  -14.0480 C.3       1 CO8401      0.0000 
     13 O2B       -42.2020    6.5470  -15.1650 O.3       1 CO8401      0.0000 
     14 C3B       -42.1850    8.8190  -14.2920 C.3       1 CO8401      0.0000 
     15 O3B       -40.9920    8.8900  -15.0820 O.3       1 CO8401      0.0000 
     16 P3B       -40.5220   10.2230  -15.8960 P.3       1 CO8401      0.0000 
     17 O7A       -41.4330   10.2550  -17.0680 O.co2     1 CO8401      0.0000 
     18 O8A       -40.7550   11.4160  -14.9790 O.co2     1 CO8401      0.0000 
     19 O9A       -39.0450    9.9330  -16.0410 O.co2     1 CO8401      0.0000 
     20 C4B       -41.9420    9.3150  -12.8760 C.3       1 CO8401      0.0000 
     21 O4B       -41.4250    8.2060  -12.1410 O.3       1 CO8401      0.0000 
     22 C5B       -43.2090    9.8530  -12.2220 C.3       1 CO8401      0.0000 
     23 O5B       -44.1860    8.8150  -12.1230 O.3       1 CO8401      0.0000 
     24 P1A       -45.6850    9.1220  -11.6890 P.3       1 CO8401      0.0000 
     25 O1A       -45.5380    9.8290  -10.3450 O.co2     1 CO8401      0.0000 
     26 O2A       -46.5250    9.6720  -12.7550 O.co2     1 CO8401      0.0000 
     27 O3A       -46.1470    7.5730  -11.3380 O.3       1 CO8401      0.0000 
     28 P2A       -46.9330    6.5850  -12.3430 P.3       1 CO8401      0.0000 
     29 O4A       -46.1590    6.4240  -13.6310 O.co2     1 CO8401      0.0000 
     30 O5A       -48.3630    6.8650  -12.4610 O.co2     1 CO8401      0.0000 
     31 O6A       -46.6160    5.2150  -11.6210 O.3       1 CO8401      0.0000 
     32 CBP       -47.2490    3.4990  -10.0090 C.3       1 CO8401      0.0000 
     33 CCP       -47.1490    4.9920  -10.3070 C.3       1 CO8401      0.0000 
     34 CDP       -48.1750    2.8900  -11.0380 C.3       1 CO8401      0.0000 
     35 CEP       -47.8320    3.3700   -8.6050 C.3       1 CO8401      0.0000 
     36 CAP       -45.8570    2.8480  -10.0880 C.3       1 CO8401      0.0000 
     37 OAP       -44.9600    3.4760   -9.1540 O.3       1 CO8401      0.0000 
     38 C9P       -45.8700    1.3530   -9.7930 C.2       1 CO8401      0.0000 
     39 O9P       -46.3650    0.5500  -10.5860 O.2       1 CO8401      0.0000 
     40 N8P       -45.3170    0.9810   -8.6670 N.am      1 CO8401      0.0000 
     41 C7P       -45.2690   -0.3870   -8.1720 C.3       1 CO8401      0.0000 
     42 C6P       -46.4670   -0.6520   -7.2390 C.3       1 CO8401      0.0000 
     43 C5P       -46.4250    0.2300   -6.0130 C.2       1 CO8401      0.0000 
     44 O5P       -45.4440    0.8910   -5.7270 O.2       1 CO8401      0.0000 
     45 N4P       -47.5210    0.2160   -5.2560 N.am      1 CO8401      0.0000 
     46 C3P       -47.6120    0.9430   -3.9990 C.3       1 CO8401      0.0000 
     47 C2P       -47.2790    0.0390   -2.8230 C.3       1 CO8401      0.0000 
     48 S1P       -47.7750    0.8090   -1.3150 S.3       1 CO8401      0.0000 
     49 C1'       -49.4570    0.7200   -1.4170 C.2       1 CO8401      0.0000 
     50 O1'       -50.0160    0.0240   -2.2620 O.2       1 CO8401      0.0000 
     51 C2'       -50.2980    1.5380   -0.5060 C.3       1 CO8401      0.0000 
     52 C3'       -50.7590    2.7570   -1.2910 C.3       1 CO8401      0.0000 
     53 C4'       -51.4320    3.8150   -0.4330 C.3       1 CO8401      0.0000 
     54 C5'       -51.1470    5.2540   -0.8910 C.3       1 CO8401      0.0000 
     55 C6'       -51.7680    5.7510   -2.1900 C.3       1 CO8401      0.0000 
     56 C7'       -51.4500    7.2280   -2.3450 C.3       1 CO8401      0.0000 
     57 C8'       -51.8210    7.7970   -3.6960 C.3       1 CO8401      0.0000 
@<TRIPOS>BOND
     1    1    2 ar   
     2    1    6 ar   
     3    2    3 ar   
     4    3    4 ar   
     5    4    5 ar   
     6    4   10 1    
     7    5    6 ar   
     8    5    8 1    
     9    6    7 1    
    10    8    9 2    
    11    9   10 1    
    12   10   11 1    
    13   11   12 1    
    14   11   21 1    
    15   12   13 1    
    16   12   14 1    
    17   14   15 1    
    18   14   20 1    
    19   15   16 1    
    20   16   17 ar   
    21   16   18 ar   
    22   16   19 ar   
    23   20   21 1    
    24   20   22 1    
    25   22   23 1    
    26   23   24 1    
    27   24   25 ar   
    28   24   26 ar   
    29   24   27 1    
    30   27   28 1    
    31   28   29 ar   
    32   28   30 ar   
    33   28   31 1    
    34   31   33 1    
    35   32   33 1    
    36   32   34 1    
    37   32   35 1    
    38   32   36 1    
    39   36   37 1    
    40   36   38 1    
    41   38   39 2    
    42   38   40 am   
    43   40   41 1    
    44   41   42 1    
    45   42   43 1    
    46   43   44 2    
    47   43   45 am   
    48   45   46 1    
    49   46   47 1    
    50   47   48 1    
    51   48   49 1    
    52   49   50 2    
    53   49   51 1    
    54   51   52 1    
    55   52   53 1    
    56   53   54 1    
    57   54   55 1    
    58   55   56 1    
    59   56   57 1    
@<TRIPOS>SUBSTRUCTURE
     1 CO8401      1 GROUP   
@<TRIPOS>SET

