#    Name: 5mm7_4_ANP_CAVITY_N1_4
#    Modification time : Fri May 22 19:19:07 2020

@<TRIPOS>MOLECULE
5mm7_4_ANP_CAVITY_N1_4
  112     0     7     0     0
SMALL
NO_CHARGES


@<TRIPOS>ATOM
      1 OG         76.1900   53.2200   56.6500 O.3       1 SER1        0.0000 
      2 OG         82.5900   57.9100   53.3000 O.3       1 SER1        0.0000 
      3 OG         83.1100   56.6000   53.8000 O.3       1 SER1        0.0000 
      4 OG         82.4400   55.1500   55.2000 O.3       1 SER1        0.0000 
      5 OG         83.4900   61.3800   52.4900 O.3       1 SER1        0.0000 
      6 OG         84.0100   60.0600   52.9900 O.3       1 SER1        0.0000 
      7 OG         83.2000   55.8600   56.2900 O.3       1 SER1        0.0000 
      8 OG         84.2400   62.0900   53.5800 O.3       1 SER1        0.0000 
      9 N          78.6800   51.6100   49.7600 N.am      2 ALA2        0.0000 
     10 N          77.7300   53.5100   51.2600 N.am      2 ALA2        0.0000 
     11 N          80.6300   52.4500   49.9400 N.am      2 ALA2        0.0000 
     12 N          79.4400   52.3200   50.8500 N.am      2 ALA2        0.0000 
     13 N          79.9600   51.0000   51.3400 N.am      2 ALA2        0.0000 
     14 N          77.9600   55.5300   51.8500 N.am      2 ALA2        0.0000 
     15 O          78.4800   54.2200   52.3500 O.2       2 ALA2        0.0000 
     16 O          77.2900   54.0900   53.2500 O.2       2 ALA2        0.0000 
     17 N          82.5700   53.2900   50.1200 N.am      2 ALA2        0.0000 
     18 N          81.3800   53.1600   51.0300 N.am      2 ALA2        0.0000 
     19 N          80.1900   53.0300   51.9400 N.am      2 ALA2        0.0000 
     20 O          79.0000   52.9000   52.8400 O.2       2 ALA2        0.0000 
     21 N          78.8600   59.0000   51.0400 N.am      2 ALA2        0.0000 
     22 N          79.3800   57.6800   51.5400 N.am      2 ALA2        0.0000 
     23 N          81.6100   55.1800   51.6200 N.am      2 ALA2        0.0000 
     24 N          80.4200   55.0500   52.5300 N.am      2 ALA2        0.0000 
     25 O          74.4800   54.4100   57.0600 O.2       2 ALA2        0.0000 
     26 N          83.3200   53.9900   51.2100 N.am      2 ALA2        0.0000 
     27 N          79.7500   53.6100   53.9300 N.am      2 ALA2        0.0000 
     28 O          78.5600   53.4800   54.8400 O.2       2 ALA2        0.0000 
     29 N          77.3700   53.3500   55.7400 N.am      2 ALA2        0.0000 
     30 O          79.7600   62.4700   50.2300 O.2       2 ALA2        0.0000 
     31 N          78.5700   62.3400   51.1300 N.am      2 ALA2        0.0000 
     32 O          80.2800   61.1500   50.7200 O.2       2 ALA2        0.0000 
     33 O          79.0900   61.0200   51.6300 O.2       2 ALA2        0.0000 
     34 N          77.9000   60.9000   52.5400 N.am      2 ALA2        0.0000 
     35 N          80.8000   59.8400   51.2200 N.am      2 ALA2        0.0000 
     36 N          78.4200   59.5800   53.0300 N.am      2 ALA2        0.0000 
     37 N          82.8800   54.5700   53.2100 N.am      2 ALA2        0.0000 
     38 N          81.6900   54.4400   54.1100 N.am      2 ALA2        0.0000 
     39 N          80.5000   54.3100   55.0200 N.am      2 ALA2        0.0000 
     40 N          81.0200   53.0000   55.5100 N.am      2 ALA2        0.0000 
     41 N          79.8400   52.8700   56.4200 N.am      2 ALA2        0.0000 
     42 N          78.1300   62.9200   53.1300 N.am      2 ALA2        0.0000 
     43 N          81.0300   61.8600   51.8100 N.am      2 ALA2        0.0000 
     44 N          83.2600   59.3600   51.9000 N.am      2 ALA2        0.0000 
     45 N          83.6300   55.2800   54.2900 N.am      2 ALA2        0.0000 
     46 O          80.0700   54.8900   57.0100 O.2       2 ALA2        0.0000 
     47 N          82.9700   53.8300   55.7000 N.am      2 ALA2        0.0000 
     48 N          81.7800   53.7100   56.6000 N.am      2 ALA2        0.0000 
     49 N          82.9700   62.7000   52.0000 N.am      2 ALA2        0.0000 
     50 N          84.3900   64.8500   51.6800 N.am      2 ALA2        0.0000 
     51 N          85.4300   62.2200   52.6700 N.am      2 ALA2        0.0000 
     52 OD1        78.0400   54.7900   54.3400 O.co2     3 ASP3        0.0000 
     53 OD1        76.8500   54.6700   55.2400 O.co2     3 ASP3        0.0000 
     54 OD1        75.6600   54.5400   56.1500 O.co2     3 ASP3        0.0000 
     55 OD1        79.3200   54.1900   55.9200 O.co2     3 ASP3        0.0000 
     56 OD1        80.5100   63.1800   51.3200 O.co2     3 ASP3        0.0000 
     57 OD1        79.3200   63.0500   52.2200 O.co2     3 ASP3        0.0000 
     58 OD1        82.4500   64.0100   51.5000 O.co2     3 ASP3        0.0000 
     59 OD1        81.7800   62.5700   52.9000 O.co2     3 ASP3        0.0000 
     60 OD1        80.5900   62.4400   53.8100 O.co2     3 ASP3        0.0000 
     61 OD1        83.2000   64.7200   52.5900 O.co2     3 ASP3        0.0000 
     62 OD1        83.7200   63.4100   53.0800 O.co2     3 ASP3        0.0000 
     63 NZ         78.1600   52.9300   49.2600 N.4       4 LYS4        0.0000 
     64 NZ         80.1000   53.7700   49.4500 N.4       4 LYS4        0.0000 
     65 NZ         78.9200   53.6400   50.3500 N.4       4 LYS4        0.0000 
     66 NZ         79.1500   55.6600   50.9400 N.4       4 LYS4        0.0000 
     67 NZ         80.8600   54.4700   50.5300 N.4       4 LYS4        0.0000 
     68 NZ         79.6700   54.3400   51.4400 N.4       4 LYS4        0.0000 
     69 NZ         80.0500   59.1300   50.1300 N.4       4 LYS4        0.0000 
     70 NZ         80.5700   57.8100   50.6300 N.4       4 LYS4        0.0000 
     71 NZ         81.0900   56.5000   51.1300 N.4       4 LYS4        0.0000 
     72 NZ         79.9000   56.3700   52.0300 N.4       4 LYS4        0.0000 
     73 CZ         79.6100   59.7100   52.1300 C.ar      5 PHE5        0.0000 
     74 CZ         80.1300   58.3900   52.6200 C.ar      5 PHE5        0.0000 
     75 CZ         79.8400   61.7300   52.7200 C.ar      5 PHE5        0.0000 
     76 CZ         78.6500   61.6000   53.6200 C.ar      5 PHE5        0.0000 
     77 CZ         81.5500   60.5400   52.3100 C.ar      5 PHE5        0.0000 
     78 CZ         80.3600   60.4200   53.2100 C.ar      5 PHE5        0.0000 
     79 CZ         79.1700   60.2900   54.1200 C.ar      5 PHE5        0.0000 
     80 CZ         82.0700   59.2300   52.8100 C.ar      5 PHE5        0.0000 
     81 CZ         83.7800   58.0400   52.4000 C.ar      5 PHE5        0.0000 
     82 CA         81.5300   55.9200   49.1300 C.3       6 GLY6        0.0000 
     83 CA         82.0500   54.6000   49.6300 C.3       6 GLY6        0.0000 
     84 CA         76.1000   53.9600   54.1600 C.3       6 GLY6        0.0000 
     85 CA         74.9100   53.8300   55.0600 C.3       6 GLY6        0.0000 
     86 CA         73.7200   53.7000   55.9700 C.3       6 GLY6        0.0000 
     87 CA         75.4300   52.5100   55.5600 C.3       6 GLY6        0.0000 
     88 CA         74.2400   52.3800   56.4600 C.3       6 GLY6        0.0000 
     89 CA         82.2800   56.6300   50.2200 C.3       6 GLY6        0.0000 
     90 CA         78.7100   56.2400   52.9400 C.3       6 GLY6        0.0000 
     91 CA         83.9900   55.4400   49.8100 C.3       6 GLY6        0.0000 
     92 CA         82.8000   55.3100   50.7200 C.3       6 GLY6        0.0000 
     93 CA         82.5100   58.6500   50.8100 C.3       6 GLY6        0.0000 
     94 CA         78.9400   58.2600   53.5300 C.3       6 GLY6        0.0000 
     95 CA         84.2200   57.4600   50.4000 C.3       6 GLY6        0.0000 
     96 CA         83.0300   57.3300   51.3100 C.3       6 GLY6        0.0000 
     97 CA         80.6500   57.0800   53.1200 C.3       6 GLY6        0.0000 
     98 CA         79.4600   56.9500   54.0300 C.3       6 GLY6        0.0000 
     99 CA         84.7400   56.1500   50.9000 C.3       6 GLY6        0.0000 
    100 CA         81.1700   55.7600   53.6200 C.3       6 GLY6        0.0000 
    101 CA         79.9800   55.6300   54.5200 C.3       6 GLY6        0.0000 
    102 CA         78.1300   54.0600   56.8300 C.3       6 GLY6        0.0000 
    103 CA         84.9700   58.1700   51.4900 C.3       6 GLY6        0.0000 
    104 CA         81.2600   55.0200   56.1100 C.3       6 GLY6        0.0000 
    105 CA         80.5900   53.5800   57.5100 C.3       6 GLY6        0.0000 
    106 CA         83.6400   64.1400   50.5900 C.3       6 GLY6        0.0000 
    107 DU         79.2300   54.9200   53.4300 H         7 CUB7        0.0000 
    108 DU         81.3200   58.5200   51.7200 H         7 CUB7        0.0000 
    109 DU         81.8400   57.2000   52.2100 H         7 CUB7        0.0000 
    110 DU         83.5500   56.0200   51.8000 H         7 CUB7        0.0000 
    111 DU         82.3600   55.8900   52.7100 H         7 CUB7        0.0000 
    112 DU         84.3000   56.7200   52.8900 H         7 CUB7        0.0000 
@<TRIPOS>BOND
@<TRIPOS>SUBSTRUCTURE
     1 SER1        1 GROUP   
     2 ALA2        9 GROUP   
     3 ASP3       52 GROUP   
     4 LYS4       63 GROUP   
     5 PHE5       73 GROUP   
     6 GLY6       82 GROUP   
     7 CUB7      107 GROUP   
@<TRIPOS>SET

