#    Name: 5mm7_4_ANP
#    Modification time : Fri May 22 19:19:06 2020

@<TRIPOS>MOLECULE
5mm7_4_ANP
   31    33     1     0     1
SMALL
NO_CHARGES


@<TRIPOS>ATOM
      1 PG         73.7660   52.6580   57.8440 P.3       1 ANP501      0.0000 
      2 O1G        72.8980   51.3470   57.9670 O.co2     1 ANP501      0.0000 
      3 O2G        73.0890   53.7540   58.5180 O.co2     1 ANP501      0.0000 
      4 O3G        75.1670   52.4680   58.5190 O.co2     1 ANP501      0.0000 
      5 PB         74.9080   54.2000   55.6730 P.3       1 ANP501      0.0000 
      6 O1B        74.0620   55.1640   54.9860 O.co2     1 ANP501      0.0000 
      7 O2B        75.6050   54.9340   56.8750 O.co2     1 ANP501      0.0000 
      8 N3B        74.0610   52.9690   56.2870 N.3       1 ANP501      0.0000 
      9 PA         77.6240   54.0550   54.7080 P.3       1 ANP501      0.0000 
     10 O1A        78.4180   52.8170   54.7820 O.co2     1 ANP501      0.0000 
     11 O2A        77.9230   54.8780   55.9410 O.co2     1 ANP501      0.0000 
     12 O3A        76.0770   53.6770   54.7460 O.3       1 ANP501      0.0000 
     13 O5'        77.9900   54.9450   53.4150 O.3       1 ANP501      0.0000 
     14 C5'        78.8510   54.4200   52.3810 C.3       1 ANP501      0.0000 
     15 C4'        80.1140   55.2400   52.2610 C.3       1 ANP501      0.0000 
     16 O4'        79.8980   56.3580   51.3780 O.3       1 ANP501      0.0000 
     17 C3'        80.6050   55.8850   53.5450 C.3       1 ANP501      0.0000 
     18 O3'        81.3310   54.9570   54.3410 O.3       1 ANP501      0.0000 
     19 C2'        81.4970   57.0170   53.0210 C.3       1 ANP501      0.0000 
     20 O2'        82.8370   56.5840   52.8220 O.3       1 ANP501      0.0000 
     21 C1'        80.8420   57.3730   51.6750 C.3       1 ANP501      0.0000 
     22 N9         80.1520   58.6570   51.6550 N.pl3     1 ANP501      0.0000 
     23 C8         78.8140   58.8540   51.4340 C.2       1 ANP501      0.0000 
     24 N7         78.4390   60.1090   51.4590 N.2       1 ANP501      0.0000 
     25 C5         79.6170   60.7930   51.7140 C.ar      1 ANP501      0.0000 
     26 C6         79.9050   62.1670   51.8590 C.ar      1 ANP501      0.0000 
     27 N6         78.9870   63.1330   51.7610 N.pl3     1 ANP501      0.0000 
     28 N1         81.1850   62.5170   52.1060 N.ar      1 ANP501      0.0000 
     29 C2         82.1100   61.5570   52.1990 C.ar      1 ANP501      0.0000 
     30 N3         81.9590   60.2340   52.0810 N.ar      1 ANP501      0.0000 
     31 C4         80.6800   59.9180   51.8380 C.ar      1 ANP501      0.0000 
@<TRIPOS>BOND
     1    1    2 ar   
     2    1    3 ar   
     3    1    4 ar   
     4    1    8 1    
     5    5    6 ar   
     6    5    7 ar   
     7    5    8 1    
     8    5   12 1    
     9    9   10 ar   
    10    9   11 ar   
    11    9   12 1    
    12    9   13 1    
    13   13   14 1    
    14   14   15 1    
    15   15   16 1    
    16   15   17 1    
    17   16   21 1    
    18   17   18 1    
    19   17   19 1    
    20   19   20 1    
    21   19   21 1    
    22   21   22 1    
    23   22   23 1    
    24   22   31 1    
    25   23   24 2    
    26   24   25 1    
    27   25   26 ar   
    28   25   31 ar   
    29   26   27 1    
    30   26   28 ar   
    31   28   29 ar   
    32   29   30 ar   
    33   30   31 ar   
@<TRIPOS>SUBSTRUCTURE
     1 ANP501      1 GROUP   
@<TRIPOS>SET
ATOM$ORANGE STATIC     ATOMS   COLORGROUP SYSTEM 
20 14 14 15 15 17 17 19 19 21 21 23 23 25 25 26 26 29 \
29 31 31 

