#    Name: 5mm7_2_GTP
#    Modification time : Fri May 22 19:18:56 2020

@<TRIPOS>MOLECULE
5mm7_2_GTP
   32    34     1     0     1
SMALL
NO_CHARGES


@<TRIPOS>ATOM
      1 PG         45.6340   35.6610   50.9600 P.3       1 GTP501      0.0000 
      2 O1G        44.7310   36.8230   51.2860 O.co2     1 GTP501      0.0000 
      3 O2G        46.9260   35.7670   51.7290 O.co2     1 GTP501      0.0000 
      4 O3G        44.9230   34.3730   51.2930 O.co2     1 GTP501      0.0000 
      5 O3B        45.9450   35.6550   49.3920 O.3       1 GTP501      0.0000 
      6 PB         44.9120   34.9200   48.4120 P.3       1 GTP501      0.0000 
      7 O1B        45.1790   35.3920   47.0040 O.co2     1 GTP501      0.0000 
      8 O2B        45.0460   33.4250   48.5450 O.co2     1 GTP501      0.0000 
      9 O3A        43.4700   35.3920   48.9540 O.3       1 GTP501      0.0000 
     10 PA         42.1790   35.3860   47.9930 P.3       1 GTP501      0.0000 
     11 O1A        42.4510   34.5990   46.7430 O.co2     1 GTP501      0.0000 
     12 O2A        41.0020   34.8140   48.7420 O.co2     1 GTP501      0.0000 
     13 O5'        41.8930   36.9250   47.6290 O.3       1 GTP501      0.0000 
     14 C5'        40.9840   37.6900   48.3830 C.3       1 GTP501      0.0000 
     15 C4'        39.9330   38.2530   47.4410 C.3       1 GTP501      0.0000 
     16 O4'        39.7190   37.3550   46.3750 O.3       1 GTP501      0.0000 
     17 C3'        38.5900   38.4300   48.1200 C.3       1 GTP501      0.0000 
     18 O3'        38.4210   39.7670   48.5260 O.3       1 GTP501      0.0000 
     19 C2'        37.5750   38.0740   47.0560 C.3       1 GTP501      0.0000 
     20 O2'        37.0170   39.2520   46.5260 O.3       1 GTP501      0.0000 
     21 C1'        38.3610   37.3500   45.9790 C.3       1 GTP501      0.0000 
     22 N9         37.9230   35.9510   45.8830 N.pl3     1 GTP501      0.0000 
     23 C8         38.3990   34.9190   46.6440 C.2       1 GTP501      0.0000 
     24 N7         37.7780   33.7840   46.2590 N.2       1 GTP501      0.0000 
     25 C5         36.9200   34.0770   45.2620 C.2       1 GTP501      0.0000 
     26 C6         36.0530   33.2900   44.5240 C.2       1 GTP501      0.0000 
     27 O6         35.9790   32.0860   44.7380 O.2       1 GTP501      0.0000 
     28 N1         35.2780   33.8600   43.5450 N.am      1 GTP501      0.0000 
     29 C2         35.3710   35.2100   43.3050 C.2       1 GTP501      0.0000 
     30 N2         34.6200   35.7500   42.3530 N.pl3     1 GTP501      0.0000 
     31 N3         36.2350   35.9940   44.0430 N.2       1 GTP501      0.0000 
     32 C4         37.0020   35.4360   45.0080 C.2       1 GTP501      0.0000 
@<TRIPOS>BOND
     1    1    2 ar   
     2    1    3 ar   
     3    1    4 ar   
     4    1    5 1    
     5    5    6 1    
     6    6    7 ar   
     7    6    8 ar   
     8    6    9 1    
     9    9   10 1    
    10   10   11 ar   
    11   10   12 ar   
    12   10   13 1    
    13   13   14 1    
    14   14   15 1    
    15   15   16 1    
    16   15   17 1    
    17   16   21 1    
    18   17   18 1    
    19   17   19 1    
    20   19   20 1    
    21   19   21 1    
    22   21   22 1    
    23   22   23 1    
    24   22   32 1    
    25   23   24 2    
    26   24   25 1    
    27   25   26 1    
    28   25   32 2    
    29   26   27 2    
    30   26   28 am   
    31   28   29 1    
    32   29   30 1    
    33   29   31 2    
    34   31   32 1    
@<TRIPOS>SUBSTRUCTURE
     1 GTP501      1 GROUP   
@<TRIPOS>SET
ATOM$ORANGE STATIC     ATOMS   COLORGROUP SYSTEM 
20 14 14 15 15 17 17 19 19 21 21 23 23 25 25 26 26 29 \
29 32 32 

