#    Name: 5mm7_1_TA1
#    Modification time : Fri May 22 19:18:46 2020

@<TRIPOS>MOLECULE
5mm7_1_TA1
   62    68     1     0     0
SMALL
NO_CHARGES


@<TRIPOS>ATOM
      1 O01        23.6560   24.8040   75.7760 O.3       1 TA1501      0.0000 
      2 C01        23.1530   25.0220   74.4510 C.3       1 TA1501      0.0000 
      3 C02        22.5660   26.5290   74.3920 C.3       1 TA1501      0.0000 
      4 O02        23.6330   27.1700   75.1270 O.3       1 TA1501      0.0000 
      5 C03        23.3910   27.8210   76.2780 C.2       1 TA1501      0.0000 
      6 O03        22.3060   27.8800   76.7980 O.2       1 TA1501      0.0000 
      7 C04        24.6200   28.4610   76.8100 C.ar      1 TA1501      0.0000 
      8 C05        25.8250   28.3420   76.1240 C.ar      1 TA1501      0.0000 
      9 C06        26.9750   28.9340   76.6170 C.ar      1 TA1501      0.0000 
     10 C07        26.9370   29.6490   77.7960 C.ar      1 TA1501      0.0000 
     11 C08        25.7470   29.7750   78.4850 C.ar      1 TA1501      0.0000 
     12 C09        24.5930   29.1860   77.9970 C.ar      1 TA1501      0.0000 
     13 C10        22.3200   27.1980   72.9620 C.3       1 TA1501      0.0000 
     14 C11        22.9420   28.7000   72.7960 C.3       1 TA1501      0.0000 
     15 O04        24.3990   28.7080   72.9430 O.3       1 TA1501      0.0000 
     16 C12        25.2780   28.1640   72.0660 C.2       1 TA1501      0.0000 
     17 O05        24.9730   27.5760   71.0690 O.2       1 TA1501      0.0000 
     18 C13        26.6700   28.4160   72.5350 C.3       1 TA1501      0.0000 
     19 C14        22.4720   29.8810   73.6590 C.3       1 TA1501      0.0000 
     20 O06        22.4480   30.7460   72.5260 O.3       1 TA1501      0.0000 
     21 C15        22.4450   29.5870   71.6460 C.3       1 TA1501      0.0000 
     22 C16        21.0940   29.3040   71.0450 C.3       1 TA1501      0.0000 
     23 C17        20.8630   27.8050   70.9310 C.3       1 TA1501      0.0000 
     24 O07        19.6480   27.5930   70.2090 O.3       1 TA1501      0.0000 
     25 C18        20.8460   27.0670   72.3030 C.3       1 TA1501      0.0000 
     26 C19        19.7050   27.5640   73.2000 C.3       1 TA1501      0.0000 
     27 C20        20.2510   25.6770   71.8700 C.2       1 TA1501      0.0000 
     28 O08        19.1380   25.7530   71.4070 O.2       1 TA1501      0.0000 
     29 C21        20.7270   24.1270   71.8930 C.3       1 TA1501      0.0000 
     30 O09        19.4660   23.4380   72.2350 O.3       1 TA1501      0.0000 
     31 C22        19.3210   22.1000   72.3470 C.2       1 TA1501      0.0000 
     32 O10        20.1990   21.3200   72.1290 O.2       1 TA1501      0.0000 
     33 C23        17.9370   21.7520   72.7720 C.3       1 TA1501      0.0000 
     34 C24        21.9840   23.7380   72.6830 C.2       1 TA1501      0.0000 
     35 C25        23.0890   23.3410   72.0270 C.2       1 TA1501      0.0000 
     36 C26        24.4310   23.9820   72.3570 C.3       1 TA1501      0.0000 
     37 O11        25.1890   24.6550   71.3080 O.3       1 TA1501      0.0000 
     38 C27        26.2170   23.9770   70.7770 C.2       1 TA1501      0.0000 
     39 O12        26.4080   22.8030   70.9290 O.2       1 TA1501      0.0000 
     40 C28        27.1450   24.8840   70.0020 C.3       1 TA1501      0.0000 
     41 O13        27.7820   24.1450   68.9770 O.3       1 TA1501      0.0000 
     42 C29        28.1810   25.3710   70.9910 C.3       1 TA1501      0.0000 
     43 N01        28.6250   24.2160   71.7540 N.am      1 TA1501      0.0000 
     44 C30        28.7790   24.2670   73.0830 C.2       1 TA1501      0.0000 
     45 O14        28.7220   25.3200   73.7130 O.2       1 TA1501      0.0000 
     46 C31        28.9970   22.9610   73.7760 C.ar      1 TA1501      0.0000 
     47 C32        29.9800   22.8150   74.7500 C.ar      1 TA1501      0.0000 
     48 C33        30.1520   21.6020   75.3950 C.ar      1 TA1501      0.0000 
     49 C34        29.3510   20.5250   75.0770 C.ar      1 TA1501      0.0000 
     50 C35        28.3750   20.6580   74.1110 C.ar      1 TA1501      0.0000 
     51 C36        28.1970   21.8670   73.4610 C.ar      1 TA1501      0.0000 
     52 C37        29.3290   26.1320   70.3650 C.ar      1 TA1501      0.0000 
     53 C38        29.0960   27.2800   69.6190 C.ar      1 TA1501      0.0000 
     54 C39        30.1470   27.9790   69.0520 C.ar      1 TA1501      0.0000 
     55 C40        31.4430   27.5420   69.2230 C.ar      1 TA1501      0.0000 
     56 C41        31.6880   26.4050   69.9610 C.ar      1 TA1501      0.0000 
     57 C42        30.6390   25.7030   70.5290 C.ar      1 TA1501      0.0000 
     58 C43        24.3800   24.9820   73.5150 C.3       1 TA1501      0.0000 
     59 C44        23.1120   22.2850   70.9650 C.3       1 TA1501      0.0000 
     60 C45        22.0310   23.9290   74.2160 C.3       1 TA1501      0.0000 
     61 C46        22.2920   22.6020   74.9410 C.3       1 TA1501      0.0000 
     62 C47        20.7960   24.3090   75.0430 C.3       1 TA1501      0.0000 
@<TRIPOS>BOND
     1    1    2 1    
     2    2    3 1    
     3    2   58 1    
     4    2   60 1    
     5    3    4 1    
     6    3   13 1    
     7    4    5 1    
     8    5    6 2    
     9    5    7 1    
    10    7    8 ar   
    11    7   12 ar   
    12    8    9 ar   
    13    9   10 ar   
    14   10   11 ar   
    15   11   12 ar   
    16   13   14 1    
    17   13   25 1    
    18   14   15 1    
    19   14   19 1    
    20   14   21 1    
    21   15   16 1    
    22   16   17 2    
    23   16   18 1    
    24   19   20 1    
    25   20   21 1    
    26   21   22 1    
    27   22   23 1    
    28   23   24 1    
    29   23   25 1    
    30   25   26 1    
    31   25   27 1    
    32   27   28 2    
    33   27   29 1    
    34   29   30 1    
    35   29   34 1    
    36   30   31 1    
    37   31   32 2    
    38   31   33 1    
    39   34   35 2    
    40   34   60 1    
    41   35   36 1    
    42   35   59 1    
    43   36   37 1    
    44   36   58 1    
    45   37   38 1    
    46   38   39 2    
    47   38   40 1    
    48   40   41 1    
    49   40   42 1    
    50   42   43 1    
    51   42   52 1    
    52   43   44 am   
    53   44   45 2    
    54   44   46 1    
    55   46   47 ar   
    56   46   51 ar   
    57   47   48 ar   
    58   48   49 ar   
    59   49   50 ar   
    60   50   51 ar   
    61   52   53 ar   
    62   52   57 ar   
    63   53   54 ar   
    64   54   55 ar   
    65   55   56 ar   
    66   56   57 ar   
    67   60   61 1    
    68   60   62 1    
@<TRIPOS>SUBSTRUCTURE
     1 TA1501      1 GROUP   
@<TRIPOS>SET

