#    Name: 5mm7_3_GDP
#    Modification time : Fri May 22 19:19:01 2020

@<TRIPOS>MOLECULE
5mm7_3_GDP
   28    30     1     0     1
SMALL
NO_CHARGES


@<TRIPOS>ATOM
      1 PB         44.5870   35.2740   90.3600 P.3       1 GDP502      0.0000 
      2 O1B        44.8370   35.7140   88.9230 O.co2     1 GDP502      0.0000 
      3 O2B        44.6440   33.7710   90.4260 O.co2     1 GDP502      0.0000 
      4 O3B        45.5190   35.9230   91.3130 O.co2     1 GDP502      0.0000 
      5 O3A        43.0750   35.6590   90.6790 O.3       1 GDP502      0.0000 
      6 PA         41.7410   35.6140   89.8090 P.3       1 GDP502      0.0000 
      7 O1A        41.9870   34.7480   88.5790 O.co2     1 GDP502      0.0000 
      8 O2A        40.6370   35.0470   90.6070 O.co2     1 GDP502      0.0000 
      9 O5'        41.3880   37.0800   89.3360 O.3       1 GDP502      0.0000 
     10 C5'        40.2780   37.8410   89.8520 C.3       1 GDP502      0.0000 
     11 C4'        39.2940   38.0950   88.7390 C.3       1 GDP502      0.0000 
     12 O4'        38.8740   36.8360   88.1660 O.3       1 GDP502      0.0000 
     13 C3'        38.0140   38.8180   89.1600 C.3       1 GDP502      0.0000 
     14 O3'        37.5990   39.7360   88.1560 O.3       1 GDP502      0.0000 
     15 C2'        37.0160   37.6710   89.3210 C.3       1 GDP502      0.0000 
     16 O2'        35.6750   38.0880   89.0970 O.3       1 GDP502      0.0000 
     17 C1'        37.4640   36.7480   88.1980 C.3       1 GDP502      0.0000 
     18 N9         37.0970   35.3480   88.4100 N.pl3     1 GDP502      0.0000 
     19 C8         37.5720   34.5040   89.3770 C.2       1 GDP502      0.0000 
     20 N7         37.1160   33.2800   89.2630 N.2       1 GDP502      0.0000 
     21 C5         36.2850   33.3270   88.1550 C.2       1 GDP502      0.0000 
     22 C6         35.5260   32.3120   87.5150 C.2       1 GDP502      0.0000 
     23 O6         35.4600   31.1270   87.8330 O.2       1 GDP502      0.0000 
     24 N1         34.8310   32.7870   86.4240 N.am      1 GDP502      0.0000 
     25 C2         34.8540   34.0780   85.9780 C.2       1 GDP502      0.0000 
     26 N2         34.1210   34.3620   84.9010 N.pl3     1 GDP502      0.0000 
     27 N3         35.5680   35.0380   86.5600 N.2       1 GDP502      0.0000 
     28 C4         36.2550   34.5970   87.6300 C.2       1 GDP502      0.0000 
@<TRIPOS>BOND
     1    1    2 ar   
     2    1    3 ar   
     3    1    4 ar   
     4    1    5 1    
     5    5    6 1    
     6    6    7 ar   
     7    6    8 ar   
     8    6    9 1    
     9    9   10 1    
    10   10   11 1    
    11   11   12 1    
    12   11   13 1    
    13   12   17 1    
    14   13   14 1    
    15   13   15 1    
    16   15   16 1    
    17   15   17 1    
    18   17   18 1    
    19   18   19 1    
    20   18   28 1    
    21   19   20 2    
    22   20   21 1    
    23   21   22 1    
    24   21   28 2    
    25   22   23 2    
    26   22   24 am   
    27   24   25 1    
    28   25   26 1    
    29   25   27 2    
    30   27   28 1    
@<TRIPOS>SUBSTRUCTURE
     1 GDP502      1 GROUP   
@<TRIPOS>SET
ATOM$ORANGE STATIC     ATOMS   COLORGROUP SYSTEM 
20 10 10 11 11 13 13 15 15 17 17 19 19 21 21 22 22 25 \
25 28 28 

