#    Name: 5vye_4_PLR_CAVITY_N1_12
#    Modification time : Fri May 22 19:15:26 2020

@<TRIPOS>MOLECULE
5vye_4_PLR_CAVITY_N1_12
  140     0     7     0     0
SMALL
NO_CHARGES


@<TRIPOS>ATOM
      1 OG         18.7600   10.0400   49.5500 O.3       1 SER1        0.0000 
      2 OG         20.5500    9.9400   50.6700 O.3       1 SER1        0.0000 
      3 OG         19.8200   11.0200   49.9400 O.3       1 SER1        0.0000 
      4 OG         18.3200   12.4300   50.4600 O.3       1 SER1        0.0000 
      5 OG         19.0800   12.1100   49.2100 O.3       1 SER1        0.0000 
      6 OG         17.5900   13.5200   49.7300 O.3       1 SER1        0.0000 
      7 OG         21.6200   10.9200   51.0600 O.3       1 SER1        0.0000 
      8 OG         19.3600   12.6600   52.8300 O.3       1 SER1        0.0000 
      9 OG         20.1200   12.3300   51.5800 O.3       1 SER1        0.0000 
     10 OG         18.6200   13.7400   52.1000 O.3       1 SER1        0.0000 
     11 OG         19.3900   13.4200   50.8500 O.3       1 SER1        0.0000 
     12 OG         20.1500   13.0900   49.6000 O.3       1 SER1        0.0000 
     13 OG         19.4100   14.1800   48.8700 O.3       1 SER1        0.0000 
     14 OG         20.1800   13.8500   47.6200 O.3       1 SER1        0.0000 
     15 OG         16.5100   19.2800   43.9800 O.3       1 SER1        0.0000 
     16 OG         18.9300   15.0500   53.7500 O.3       1 SER1        0.0000 
     17 OG         18.2500   17.6600   49.0600 O.3       1 SER1        0.0000 
     18 OG         17.5100   18.7400   48.3300 O.3       1 SER1        0.0000 
     19 OG         18.2800   18.4200   47.0800 O.3       1 SER1        0.0000 
     20 OG         17.5400   19.5100   46.3500 O.3       1 SER1        0.0000 
     21 OG         18.3000   19.1800   45.1000 O.3       1 SER1        0.0000 
     22 OG         16.0500   20.9200   46.8700 O.3       1 SER1        0.0000 
     23 OG         16.8100   20.5900   45.6200 O.3       1 SER1        0.0000 
     24 OG         17.5700   20.2700   44.3700 O.3       1 SER1        0.0000 
     25 OG         17.8200   20.0500   49.9700 O.3       1 SER1        0.0000 
     26 OG         17.8400   20.8100   47.9900 O.3       1 SER1        0.0000 
     27 OG         18.6100   20.4900   46.7400 O.3       1 SER1        0.0000 
     28 OG         19.3700   20.1600   45.4900 O.3       1 SER1        0.0000 
     29 OG         20.1300   19.8400   44.2400 O.3       1 SER1        0.0000 
     30 OG         17.1400   22.6600   45.2800 O.3       1 SER1        0.0000 
     31 OG         17.9000   22.3400   44.0300 O.3       1 SER1        0.0000 
     32 OG         18.6600   22.0100   42.7800 O.3       1 SER1        0.0000 
     33 OG         17.9300   23.1000   42.0500 O.3       1 SER1        0.0000 
     34 OG         18.1200   21.3600   51.6200 O.3       1 SER1        0.0000 
     35 OG         21.1900   20.8200   44.6300 O.3       1 SER1        0.0000 
     36 OG         18.3900   21.9000   55.2400 O.3       1 SER1        0.0000 
     37 N          16.0700   14.1700   52.2300 N.am      2 ALA2        0.0000 
     38 N          14.5700   15.5800   52.7500 N.am      2 ALA2        0.0000 
     39 N          17.8600   14.0700   53.3500 N.am      2 ALA2        0.0000 
     40 N          15.6300   16.5600   53.1500 N.am      2 ALA2        0.0000 
     41 O          15.5600   21.7900   51.7400 O.2       2 ALA2        0.0000 
     42 O          16.3200   21.4600   50.4900 O.2       2 ALA2        0.0000 
     43 O          17.0800   21.1400   49.2400 O.2       2 ALA2        0.0000 
     44 O          16.3500   22.2200   48.5100 O.2       2 ALA2        0.0000 
     45 OD1        15.3300   15.2600   51.5000 O.co2     3 ASP3        0.0000 
     46 OD1        16.0900   14.9300   50.2500 O.co2     3 ASP3        0.0000 
     47 OD1        13.8400   16.6700   52.0200 O.co2     3 ASP3        0.0000 
     48 OD1        14.9000   17.6500   52.4200 O.co2     3 ASP3        0.0000 
     49 OD1        15.6600   17.3300   51.1700 O.co2     3 ASP3        0.0000 
     50 OD1        16.4200   17.0000   49.9200 O.co2     3 ASP3        0.0000 
     51 OD1        17.1800   16.6800   48.6700 O.co2     3 ASP3        0.0000 
     52 OD1        14.1700   18.7400   51.6900 O.co2     3 ASP3        0.0000 
     53 OD1        16.4500   17.7600   47.9400 O.co2     3 ASP3        0.0000 
     54 OD1        15.9300   17.8700   54.7900 O.co2     3 ASP3        0.0000 
     55 OD1        15.9600   18.6300   52.8100 O.co2     3 ASP3        0.0000 
     56 OD1        15.2300   19.7200   52.0800 O.co2     3 ASP3        0.0000 
     57 OD1        15.9900   19.3900   50.8300 O.co2     3 ASP3        0.0000 
     58 OD1        16.7500   19.0700   49.5800 O.co2     3 ASP3        0.0000 
     59 OD1        15.2600   20.4800   50.1000 O.co2     3 ASP3        0.0000 
     60 OD1        16.0200   20.1500   48.8500 O.co2     3 ASP3        0.0000 
     61 OD1        16.2400   19.1800   56.4300 O.co2     3 ASP3        0.0000 
     62 OD1        16.2600   19.9400   54.4500 O.co2     3 ASP3        0.0000 
     63 OD1        16.2900   20.7000   52.4700 O.co2     3 ASP3        0.0000 
     64 OD1        17.3600   21.6800   52.8700 O.co2     3 ASP3        0.0000 
     65 NZ         17.1300   15.1500   52.6200 N.4       4 LYS4        0.0000 
     66 NZ         17.8900   14.8300   51.3700 N.4       4 LYS4        0.0000 
     67 NZ         18.6500   14.5000   50.1200 N.4       4 LYS4        0.0000 
     68 NZ         16.3900   16.2400   51.9000 N.4       4 LYS4        0.0000 
     69 NZ         17.1600   15.9100   50.6400 N.4       4 LYS4        0.0000 
     70 NZ         17.9200   15.5900   49.3900 N.4       4 LYS4        0.0000 
     71 NZ         20.4800   15.1600   49.2700 N.4       4 LYS4        0.0000 
     72 NZ         16.7000   17.5500   53.5400 N.4       4 LYS4        0.0000 
     73 NZ         18.9800   16.5700   49.7900 N.4       4 LYS4        0.0000 
     74 NZ         19.7400   16.2500   48.5400 N.4       4 LYS4        0.0000 
     75 NZ         16.7200   18.3100   51.5600 N.4       4 LYS4        0.0000 
     76 NZ         17.4900   17.9800   50.3100 N.4       4 LYS4        0.0000 
     77 NZ         17.7900   19.2900   51.9500 N.4       4 LYS4        0.0000 
     78 NZ         18.5500   18.9600   50.7000 N.4       4 LYS4        0.0000 
     79 CZ         16.4700   11.0200   53.3000 C.ar      5 PHE5        0.0000 
     80 CZ         17.2300   10.6900   52.0500 C.ar      5 PHE5        0.0000 
     81 CZ         15.7400   12.1000   52.5700 C.ar      5 PHE5        0.0000 
     82 CZ         16.5000   11.7800   51.3200 C.ar      5 PHE5        0.0000 
     83 CZ         15.0000   13.1900   51.8400 C.ar      5 PHE5        0.0000 
     84 CZ         16.8600   14.6100   49.0000 C.ar      5 PHE5        0.0000 
     85 CZ         18.6800   15.2600   48.1400 C.ar      5 PHE5        0.0000 
     86 CZ         19.4400   14.9400   46.8900 C.ar      5 PHE5        0.0000 
     87 CZ         17.9500   16.3500   47.4100 C.ar      5 PHE5        0.0000 
     88 CZ         18.7100   16.0300   46.1600 C.ar      5 PHE5        0.0000 
     89 CZ         17.2100   17.4400   46.6900 C.ar      5 PHE5        0.0000 
     90 CZ         17.9700   17.1100   45.4300 C.ar      5 PHE5        0.0000 
     91 CZ         21.2400   14.8400   48.0100 C.ar      5 PHE5        0.0000 
     92 CZ         20.5100   15.9200   47.2900 C.ar      5 PHE5        0.0000 
     93 CZ         19.0100   17.3300   47.8100 C.ar      5 PHE5        0.0000 
     94 CZ         19.7700   17.0100   46.5600 C.ar      5 PHE5        0.0000 
     95 CZ         20.5300   16.6800   45.3100 C.ar      5 PHE5        0.0000 
     96 CZ         19.8000   17.7700   44.5800 C.ar      5 PHE5        0.0000 
     97 CZ         17.0000   18.8500   55.1800 C.ar      5 PHE5        0.0000 
     98 CZ         17.7600   18.5300   53.9300 C.ar      5 PHE5        0.0000 
     99 CZ         17.0300   19.6100   53.2000 C.ar      5 PHE5        0.0000 
    100 CZ         20.8600   18.7500   44.9700 C.ar      5 PHE5        0.0000 
    101 CZ         17.1100   21.9000   47.2600 C.ar      5 PHE5        0.0000 
    102 CZ         17.8700   21.5700   46.0100 C.ar      5 PHE5        0.0000 
    103 CZ         17.3000   20.1600   56.8300 C.ar      5 PHE5        0.0000 
    104 CZ         17.3300   20.9200   54.8500 C.ar      5 PHE5        0.0000 
    105 CZ         18.8800   21.0300   50.3700 C.ar      5 PHE5        0.0000 
    106 CZ         19.7000   22.2300   45.1600 C.ar      5 PHE5        0.0000 
    107 CZ         20.4600   21.9100   43.9000 C.ar      5 PHE5        0.0000 
    108 CZ         18.9600   23.3200   44.4300 C.ar      5 PHE5        0.0000 
    109 CZ         19.7300   22.9900   43.1800 C.ar      5 PHE5        0.0000 
    110 CA         18.7000    8.5200   53.5000 C.3       6 GLY6        0.0000 
    111 CA         17.2000    9.9300   54.0300 C.3       6 GLY6        0.0000 
    112 CA         17.9700    9.6000   52.7800 C.3       6 GLY6        0.0000 
    113 CA         19.7600    9.5000   53.9000 C.3       6 GLY6        0.0000 
    114 CA         19.0300   10.5900   53.1700 C.3       6 GLY6        0.0000 
    115 CA         17.5300   12.0000   53.6900 C.3       6 GLY6        0.0000 
    116 CA         16.0400   13.4100   54.2100 C.3       6 GLY6        0.0000 
    117 CA         16.8000   13.0800   52.9600 C.3       6 GLY6        0.0000 
    118 CA         21.5900   10.1600   53.0400 C.3       6 GLY6        0.0000 
    119 CA         20.0900   11.5700   53.5600 C.3       6 GLY6        0.0000 
    120 CA         20.8500   11.2400   52.3100 C.3       6 GLY6        0.0000 
    121 CA         16.3700   15.4800   53.8800 C.3       6 GLY6        0.0000 
    122 CA         17.4300   16.4600   54.2700 C.3       6 GLY6        0.0000 
    123 CA         15.2800   21.2400   48.1200 C.3       6 GLY6        0.0000 
    124 CA         16.9700   18.0900   57.1600 C.3       6 GLY6        0.0000 
    125 CA         17.7300   17.7700   55.9100 C.3       6 GLY6        0.0000 
    126 CA         15.5300   21.0300   53.7200 C.3       6 GLY6        0.0000 
    127 CA         16.5700   21.2500   56.1000 C.3       6 GLY6        0.0000 
    128 DU         18.7300    9.2800   51.5200 H         7 CUB7        0.0000 
    129 DU         17.9900   10.3700   50.8000 H         7 CUB7        0.0000 
    130 DU         20.5200    9.1800   52.6500 H         7 CUB7        0.0000 
    131 DU         19.7900   10.2600   51.9200 H         7 CUB7        0.0000 
    132 DU         18.2900   11.6700   52.4400 H         7 CUB7        0.0000 
    133 DU         19.0600   11.3500   51.1900 H         7 CUB7        0.0000 
    134 DU         17.5600   12.7600   51.7100 H         7 CUB7        0.0000 
    135 DU         16.8300   13.8500   50.9800 H         7 CUB7        0.0000 
    136 DU         16.7800   19.8300   47.6000 H         7 CUB7        0.0000 
    137 DU         19.0700   18.8600   43.8500 H         7 CUB7        0.0000 
    138 DU         17.0500   20.3800   51.2200 H         7 CUB7        0.0000 
    139 DU         18.6300   21.2500   44.7600 H         7 CUB7        0.0000 
    140 DU         19.4000   20.9200   43.5100 H         7 CUB7        0.0000 
@<TRIPOS>BOND
@<TRIPOS>SUBSTRUCTURE
     1 SER1        1 GROUP   
     2 ALA2       37 GROUP   
     3 ASP3       45 GROUP   
     4 LYS4       65 GROUP   
     5 PHE5       79 GROUP   
     6 GLY6      110 GROUP   
     7 CUB7      128 GROUP   
@<TRIPOS>SET

