#    Name: 5vye_1_PLR_CAVITY_N1_ALL
#    Modification time : Fri May 22 19:15:12 2020

@<TRIPOS>MOLECULE
5vye_1_PLR_CAVITY_N1_ALL
   86     0     7     0     0
SMALL
NO_CHARGES


@<TRIPOS>ATOM
      1 OG         41.2100   -2.7400   66.5400 O.3       1 SER1        0.0000 
      2 OG         40.4700   -1.6500   65.8100 O.3       1 SER1        0.0000 
      3 OG         45.1300   -0.8800   68.4500 O.3       1 SER1        0.0000 
      4 OG         44.4000    0.2100   67.7200 O.3       1 SER1        0.0000 
      5 OG         48.4000   -3.1600   71.0300 O.3       1 SER1        0.0000 
      6 OG         46.9000   -1.7400   71.5500 O.3       1 SER1        0.0000 
      7 OG         46.1700   -0.6600   70.8200 O.3       1 SER1        0.0000 
      8 OG         47.6900   -1.3100   68.3200 O.3       1 SER1        0.0000 
      9 OG         48.4500   -1.6300   67.0700 O.3       1 SER1        0.0000 
     10 OG         46.1900    0.1000   68.8400 O.3       1 SER1        0.0000 
     11 OG         47.9600   -0.7600   71.9400 O.3       1 SER1        0.0000 
     12 OG         48.7300   -1.0900   70.6900 O.3       1 SER1        0.0000 
     13 OG         47.2300    0.3200   71.2100 O.3       1 SER1        0.0000 
     14 OG         48.7500   -0.3300   68.7100 O.3       1 SER1        0.0000 
     15 N          43.4900   -3.7100   62.7900 N.am      2 ALA2        0.0000 
     16 N          45.3200   -3.0600   61.9300 N.am      2 ALA2        0.0000 
     17 N          47.3300   -4.1400   70.6300 N.am      2 ALA2        0.0000 
     18 O          47.7200   -0.5500   66.3400 O.2       2 ALA2        0.0000 
     19 O          48.4800   -0.8700   65.0900 O.2       2 ALA2        0.0000 
     20 OD1        40.9000   -4.0500   64.9000 O.co2     3 ASP3        0.0000 
     21 OD1        41.9700   -3.0600   65.2900 O.co2     3 ASP3        0.0000 
     22 OD1        42.7300   -3.3900   64.0400 O.co2     3 ASP3        0.0000 
     23 OD1        43.0000   -2.8400   67.6600 O.co2     3 ASP3        0.0000 
     24 OD1        45.2900   -3.8200   63.9100 O.co2     3 ASP3        0.0000 
     25 OD1        43.0300   -2.0800   65.6800 O.co2     3 ASP3        0.0000 
     26 OD1        43.7900   -2.4100   64.4300 O.co2     3 ASP3        0.0000 
     27 OD1        44.5600   -2.7300   63.1800 O.co2     3 ASP3        0.0000 
     28 OD1        44.8000   -2.9500   68.7800 O.co2     3 ASP3        0.0000 
     29 OD1        44.0700   -1.8600   68.0500 O.co2     3 ASP3        0.0000 
     30 OD1        44.8300   -2.1900   66.8000 O.co2     3 ASP3        0.0000 
     31 OD1        45.5900   -2.5100   65.5500 O.co2     3 ASP3        0.0000 
     32 OD1        46.3500   -2.8400   64.3000 O.co2     3 ASP3        0.0000 
     33 OD1        46.3800   -2.0700   62.3200 O.co2     3 ASP3        0.0000 
     34 OD1        46.4100   -1.3100   60.3400 O.co2     3 ASP3        0.0000 
     35 OD1        46.6000   -3.0500   69.9100 O.co2     3 ASP3        0.0000 
     36 OD1        47.3600   -3.3800   68.6600 O.co2     3 ASP3        0.0000 
     37 OD1        45.8600   -1.9700   69.1800 O.co2     3 ASP3        0.0000 
     38 OD1        46.6300   -2.2900   67.9300 O.co2     3 ASP3        0.0000 
     39 OD1        47.3900   -2.6100   66.6800 O.co2     3 ASP3        0.0000 
     40 OD1        45.8900   -1.2000   67.2000 O.co2     3 ASP3        0.0000 
     41 OD1        46.6500   -1.5300   65.9500 O.co2     3 ASP3        0.0000 
     42 OD1        47.4200   -1.8500   64.7000 O.co2     3 ASP3        0.0000 
     43 OD1        47.4400   -1.0900   62.7200 O.co2     3 ASP3        0.0000 
     44 OD1        47.4700   -0.3300   60.7400 O.co2     3 ASP3        0.0000 
     45 OD1        47.7500    0.2200   64.3600 O.co2     3 ASP3        0.0000 
     46 NZ         41.5400   -0.6700   66.2000 N.4       4 LYS4        0.0000 
     47 NZ         42.3000   -1.0000   64.9500 N.4       4 LYS4        0.0000 
     48 NZ         43.0600   -1.3200   63.7000 N.4       4 LYS4        0.0000 
     49 NZ         43.3300   -0.7800   67.3300 N.4       4 LYS4        0.0000 
     50 NZ         44.1000   -1.1000   66.0800 N.4       4 LYS4        0.0000 
     51 NZ         44.8600   -1.4200   64.8200 N.4       4 LYS4        0.0000 
     52 NZ         45.6200   -1.7500   63.5700 N.4       4 LYS4        0.0000 
     53 NZ         44.8900   -0.6600   62.8400 N.4       4 LYS4        0.0000 
     54 NZ         45.1600   -0.1200   66.4700 N.4       4 LYS4        0.0000 
     55 NZ         45.9200   -0.4400   65.2200 N.4       4 LYS4        0.0000 
     56 NZ         46.6800   -0.7700   63.9700 N.4       4 LYS4        0.0000 
     57 NZ         46.9800    0.5400   65.6100 N.4       4 LYS4        0.0000 
     58 CZ         40.1400   -3.7200   66.1500 C.ar      5 PHE5        0.0000 
     59 CZ         42.2700   -1.7600   66.9300 C.ar      5 PHE5        0.0000 
     60 CZ         45.8400   -2.7300   71.1600 C.ar      5 PHE5        0.0000 
     61 CZ         45.9500    0.3200   63.2400 C.ar      5 PHE5        0.0000 
     62 CZ         46.7100   -0.0100   61.9900 C.ar      5 PHE5        0.0000 
     63 CZ         46.7400    0.7600   60.0100 C.ar      5 PHE5        0.0000 
     64 CZ         47.7700    0.9800   62.3800 C.ar      5 PHE5        0.0000 
     65 CZ         47.9900    0.0000   69.9600 C.ar      5 PHE5        0.0000 
     66 CZ         47.2600    1.0900   69.2300 C.ar      5 PHE5        0.0000 
     67 CZ         48.0200    0.7600   67.9800 C.ar      5 PHE5        0.0000 
     68 CZ         49.7900   -0.1100   71.0800 C.ar      5 PHE5        0.0000 
     69 CZ         48.2900    1.3100   71.6100 C.ar      5 PHE5        0.0000 
     70 CZ         49.0600    0.9800   70.3600 C.ar      5 PHE5        0.0000 
     71 CZ         49.8200    0.6600   69.1000 C.ar      5 PHE5        0.0000 
     72 CA         42.7600   -2.6300   62.0600 C.3       6 GLY6        0.0000 
     73 CA         46.0500   -4.1400   62.6600 C.3       6 GLY6        0.0000 
     74 CA         43.8200   -1.6500   62.4500 C.3       6 GLY6        0.0000 
     75 CA         44.5800   -1.9700   61.2000 C.3       6 GLY6        0.0000 
     76 CA         45.6500   -0.9900   61.5900 C.3       6 GLY6        0.0000 
     77 CA         44.9100    0.1000   60.8700 C.3       6 GLY6        0.0000 
     78 CA         47.6600   -2.0700   70.3000 C.3       6 GLY6        0.0000 
     79 CA         48.4200   -2.3900   69.0500 C.3       6 GLY6        0.0000 
     80 CA         49.4900   -1.4100   69.4400 C.3       6 GLY6        0.0000 
     81 DU         40.1700   -2.9600   64.1700 H         7 CUB7        0.0000 
     82 DU         40.9300   -3.2800   62.9200 H         7 CUB7        0.0000 
     83 DU         41.2300   -1.9800   64.5600 H         7 CUB7        0.0000 
     84 DU         42.0000   -2.3000   63.3100 H         7 CUB7        0.0000 
     85 DU         46.9300   -0.9800   69.5700 H         7 CUB7        0.0000 
     86 DU         46.9600   -0.2200   67.5900 H         7 CUB7        0.0000 
@<TRIPOS>BOND
@<TRIPOS>SUBSTRUCTURE
     1 SER1        1 GROUP   
     2 ALA2       15 GROUP   
     3 ASP3       20 GROUP   
     4 LYS4       46 GROUP   
     5 PHE5       58 GROUP   
     6 GLY6       72 GROUP   
     7 CUB7       81 GROUP   
@<TRIPOS>SET

