#    Name: 5vye_4_PLR_CAVITY_N1_4
#    Modification time : Fri May 22 19:15:26 2020

@<TRIPOS>MOLECULE
5vye_4_PLR_CAVITY_N1_4
   25     0     7     0     0
SMALL
NO_CHARGES


@<TRIPOS>ATOM
      1 OG         18.1200   21.3600   51.6200 O.3       1 SER1        0.0000 
      2 OG         18.3900   21.9000   55.2400 O.3       1 SER1        0.0000 
      3 O          15.5600   21.7900   51.7400 O.2       2 ALA2        0.0000 
      4 O          16.3200   21.4600   50.4900 O.2       2 ALA2        0.0000 
      5 OD1        15.9300   17.8700   54.7900 O.co2     3 ASP3        0.0000 
      6 OD1        15.9600   18.6300   52.8100 O.co2     3 ASP3        0.0000 
      7 OD1        15.2300   19.7200   52.0800 O.co2     3 ASP3        0.0000 
      8 OD1        16.2400   19.1800   56.4300 O.co2     3 ASP3        0.0000 
      9 OD1        16.2600   19.9400   54.4500 O.co2     3 ASP3        0.0000 
     10 OD1        16.2900   20.7000   52.4700 O.co2     3 ASP3        0.0000 
     11 OD1        17.3600   21.6800   52.8700 O.co2     3 ASP3        0.0000 
     12 NZ         16.7000   17.5500   53.5400 N.4       4 LYS4        0.0000 
     13 NZ         16.7200   18.3100   51.5600 N.4       4 LYS4        0.0000 
     14 NZ         17.7900   19.2900   51.9500 N.4       4 LYS4        0.0000 
     15 CZ         17.0000   18.8500   55.1800 C.ar      5 PHE5        0.0000 
     16 CZ         17.7600   18.5300   53.9300 C.ar      5 PHE5        0.0000 
     17 CZ         17.0300   19.6100   53.2000 C.ar      5 PHE5        0.0000 
     18 CZ         17.3000   20.1600   56.8300 C.ar      5 PHE5        0.0000 
     19 CZ         17.3300   20.9200   54.8500 C.ar      5 PHE5        0.0000 
     20 CZ         18.8800   21.0300   50.3700 C.ar      5 PHE5        0.0000 
     21 CA         16.9700   18.0900   57.1600 C.3       6 GLY6        0.0000 
     22 CA         17.7300   17.7700   55.9100 C.3       6 GLY6        0.0000 
     23 CA         15.5300   21.0300   53.7200 C.3       6 GLY6        0.0000 
     24 CA         16.5700   21.2500   56.1000 C.3       6 GLY6        0.0000 
     25 DU         17.0500   20.3800   51.2200 H         7 CUB7        0.0000 
@<TRIPOS>BOND
@<TRIPOS>SUBSTRUCTURE
     1 SER1        1 GROUP   
     2 ALA2        3 GROUP   
     3 ASP3        5 GROUP   
     4 LYS4       12 GROUP   
     5 PHE5       15 GROUP   
     6 GLY6       21 GROUP   
     7 CUB7       25 GROUP   
@<TRIPOS>SET

