#    Name: 5vye_4_PLR_CAVITY_N1_6
#    Modification time : Fri May 22 19:15:26 2020

@<TRIPOS>MOLECULE
5vye_4_PLR_CAVITY_N1_6
   45     0     7     0     0
SMALL
NO_CHARGES


@<TRIPOS>ATOM
      1 OG         17.8200   20.0500   49.9700 O.3       1 SER1        0.0000 
      2 OG         18.1200   21.3600   51.6200 O.3       1 SER1        0.0000 
      3 OG         18.3900   21.9000   55.2400 O.3       1 SER1        0.0000 
      4 N          14.5700   15.5800   52.7500 N.am      2 ALA2        0.0000 
      5 N          15.6300   16.5600   53.1500 N.am      2 ALA2        0.0000 
      6 O          15.5600   21.7900   51.7400 O.2       2 ALA2        0.0000 
      7 O          16.3200   21.4600   50.4900 O.2       2 ALA2        0.0000 
      8 O          17.0800   21.1400   49.2400 O.2       2 ALA2        0.0000 
      9 O          16.3500   22.2200   48.5100 O.2       2 ALA2        0.0000 
     10 OD1        13.8400   16.6700   52.0200 O.co2     3 ASP3        0.0000 
     11 OD1        14.9000   17.6500   52.4200 O.co2     3 ASP3        0.0000 
     12 OD1        15.6600   17.3300   51.1700 O.co2     3 ASP3        0.0000 
     13 OD1        16.4200   17.0000   49.9200 O.co2     3 ASP3        0.0000 
     14 OD1        14.1700   18.7400   51.6900 O.co2     3 ASP3        0.0000 
     15 OD1        15.9300   17.8700   54.7900 O.co2     3 ASP3        0.0000 
     16 OD1        15.9600   18.6300   52.8100 O.co2     3 ASP3        0.0000 
     17 OD1        15.2300   19.7200   52.0800 O.co2     3 ASP3        0.0000 
     18 OD1        15.9900   19.3900   50.8300 O.co2     3 ASP3        0.0000 
     19 OD1        16.7500   19.0700   49.5800 O.co2     3 ASP3        0.0000 
     20 OD1        15.2600   20.4800   50.1000 O.co2     3 ASP3        0.0000 
     21 OD1        16.0200   20.1500   48.8500 O.co2     3 ASP3        0.0000 
     22 OD1        16.2400   19.1800   56.4300 O.co2     3 ASP3        0.0000 
     23 OD1        16.2600   19.9400   54.4500 O.co2     3 ASP3        0.0000 
     24 OD1        16.2900   20.7000   52.4700 O.co2     3 ASP3        0.0000 
     25 OD1        17.3600   21.6800   52.8700 O.co2     3 ASP3        0.0000 
     26 NZ         17.1300   15.1500   52.6200 N.4       4 LYS4        0.0000 
     27 NZ         16.3900   16.2400   51.9000 N.4       4 LYS4        0.0000 
     28 NZ         16.7000   17.5500   53.5400 N.4       4 LYS4        0.0000 
     29 NZ         16.7200   18.3100   51.5600 N.4       4 LYS4        0.0000 
     30 NZ         17.4900   17.9800   50.3100 N.4       4 LYS4        0.0000 
     31 NZ         17.7900   19.2900   51.9500 N.4       4 LYS4        0.0000 
     32 NZ         18.5500   18.9600   50.7000 N.4       4 LYS4        0.0000 
     33 CZ         17.0000   18.8500   55.1800 C.ar      5 PHE5        0.0000 
     34 CZ         17.7600   18.5300   53.9300 C.ar      5 PHE5        0.0000 
     35 CZ         17.0300   19.6100   53.2000 C.ar      5 PHE5        0.0000 
     36 CZ         17.3000   20.1600   56.8300 C.ar      5 PHE5        0.0000 
     37 CZ         17.3300   20.9200   54.8500 C.ar      5 PHE5        0.0000 
     38 CZ         18.8800   21.0300   50.3700 C.ar      5 PHE5        0.0000 
     39 CA         16.3700   15.4800   53.8800 C.3       6 GLY6        0.0000 
     40 CA         17.4300   16.4600   54.2700 C.3       6 GLY6        0.0000 
     41 CA         16.9700   18.0900   57.1600 C.3       6 GLY6        0.0000 
     42 CA         17.7300   17.7700   55.9100 C.3       6 GLY6        0.0000 
     43 CA         15.5300   21.0300   53.7200 C.3       6 GLY6        0.0000 
     44 CA         16.5700   21.2500   56.1000 C.3       6 GLY6        0.0000 
     45 DU         17.0500   20.3800   51.2200 H         7 CUB7        0.0000 
@<TRIPOS>BOND
@<TRIPOS>SUBSTRUCTURE
     1 SER1        1 GROUP   
     2 ALA2        4 GROUP   
     3 ASP3       10 GROUP   
     4 LYS4       26 GROUP   
     5 PHE5       33 GROUP   
     6 GLY6       39 GROUP   
     7 CUB7       45 GROUP   
@<TRIPOS>SET

