#    Name: 5vye_1_PLR
#    Modification time : Fri May 22 19:15:11 2020

@<TRIPOS>MOLECULE
5vye_1_PLR
   25    25     1     0     0
SMALL
NO_CHARGES


@<TRIPOS>ATOM
      1 N1         48.0670    3.3370   58.8980 N.ar      1 PLR401      0.0000 
      2 C2         47.8580    2.0810   59.4640 C.ar      1 PLR401      0.0000 
      3 C2A        47.2110    0.9140   58.6830 C.3       1 PLR401      0.0000 
      4 C3         48.2640    1.8300   60.8130 C.ar      1 PLR401      0.0000 
      5 O3         48.0510    0.5500   61.3820 O.3       1 PLR401      0.0000 
      6 C4         48.8450    2.8110   61.5850 C.ar      1 PLR401      0.0000 
      7 C4A        49.2200    2.4990   63.0810 C.3       1 PLR401      0.0000 
      8 C5         49.0150    4.0620   60.9800 C.ar      1 PLR401      0.0000 
      9 C6         48.6410    4.3310   59.6490 C.ar      1 PLR401      0.0000 
     10 C5A        49.6030    5.2010   61.7980 C.3       1 PLR401      0.0000 
     11 O4P        50.7870    4.7720   62.4400 O.3       1 PLR401      0.0000 
     12 P          51.3550    5.7710   63.6730 P.3       1 PLR401      0.0000 
     13 O1P        52.9770    5.5880   63.5880 O.co2     1 PLR401      0.0000 
     14 O2P        50.7140    7.1790   63.7060 O.co2     1 PLR401      0.0000 
     15 O3P        50.7190    5.0900   64.9340 O.co2     1 PLR401      0.0000 
     16 H2A1       47.1000    1.1690   57.7540 H         1 PLR401      0.0000 
     17 H2A2       46.3450    0.7080   59.0680 H         1 PLR401      0.0000 
     18 H2A3       47.7830    0.1320   58.7380 H         1 PLR401      0.0000 
     19 HO3        47.2180    0.3840   61.4030 H         1 PLR401      0.0000 
     20 H4A1       49.5770    3.2980   63.4990 H         1 PLR401      0.0000 
     21 H4A2       49.8860    1.7940   63.1070 H         1 PLR401      0.0000 
     22 H4A3       48.4270    2.2110   63.5600 H         1 PLR401      0.0000 
     23 H6         48.7680    5.1790   59.2880 H         1 PLR401      0.0000 
     24 H5A1       48.9590    5.4830   62.4660 H         1 PLR401      0.0000 
     25 H5A2       49.8070    5.9460   61.2120 H         1 PLR401      0.0000 
@<TRIPOS>BOND
     1    1    2 ar   
     2    1    9 ar   
     3    2    3 1    
     4    2    4 ar   
     5    3   16 1    
     6    3   17 1    
     7    3   18 1    
     8    4    5 1    
     9    4    6 ar   
    10    5   19 1    
    11    6    7 1    
    12    6    8 ar   
    13    7   20 1    
    14    7   21 1    
    15    7   22 1    
    16    8    9 ar   
    17    8   10 1    
    18   10   11 1    
    19    9   23 1    
    20   10   24 1    
    21   10   25 1    
    22   11   12 1    
    23   12   13 ar   
    24   12   14 ar   
    25   12   15 ar   
@<TRIPOS>SUBSTRUCTURE
     1 PLR401      1 GROUP   
@<TRIPOS>SET

