#    Name: 5vye_1_PLR_CAVITY_N1_8
#    Modification time : Fri May 22 19:15:12 2020

@<TRIPOS>MOLECULE
5vye_1_PLR_CAVITY_N1_8
   60     0     7     0     0
SMALL
NO_CHARGES


@<TRIPOS>ATOM
      1 OG         45.1300   -0.8800   68.4500 O.3       1 SER1        0.0000 
      2 OG         44.4000    0.2100   67.7200 O.3       1 SER1        0.0000 
      3 OG         47.6900   -1.3100   68.3200 O.3       1 SER1        0.0000 
      4 OG         48.4500   -1.6300   67.0700 O.3       1 SER1        0.0000 
      5 OG         46.1900    0.1000   68.8400 O.3       1 SER1        0.0000 
      6 OG         48.7500   -0.3300   68.7100 O.3       1 SER1        0.0000 
      7 N          43.4900   -3.7100   62.7900 N.am      2 ALA2        0.0000 
      8 N          45.3200   -3.0600   61.9300 N.am      2 ALA2        0.0000 
      9 O          47.7200   -0.5500   66.3400 O.2       2 ALA2        0.0000 
     10 O          48.4800   -0.8700   65.0900 O.2       2 ALA2        0.0000 
     11 OD1        42.7300   -3.3900   64.0400 O.co2     3 ASP3        0.0000 
     12 OD1        45.2900   -3.8200   63.9100 O.co2     3 ASP3        0.0000 
     13 OD1        43.0300   -2.0800   65.6800 O.co2     3 ASP3        0.0000 
     14 OD1        43.7900   -2.4100   64.4300 O.co2     3 ASP3        0.0000 
     15 OD1        44.5600   -2.7300   63.1800 O.co2     3 ASP3        0.0000 
     16 OD1        44.8300   -2.1900   66.8000 O.co2     3 ASP3        0.0000 
     17 OD1        45.5900   -2.5100   65.5500 O.co2     3 ASP3        0.0000 
     18 OD1        46.3500   -2.8400   64.3000 O.co2     3 ASP3        0.0000 
     19 OD1        46.3800   -2.0700   62.3200 O.co2     3 ASP3        0.0000 
     20 OD1        46.4100   -1.3100   60.3400 O.co2     3 ASP3        0.0000 
     21 OD1        46.6300   -2.2900   67.9300 O.co2     3 ASP3        0.0000 
     22 OD1        47.3900   -2.6100   66.6800 O.co2     3 ASP3        0.0000 
     23 OD1        45.8900   -1.2000   67.2000 O.co2     3 ASP3        0.0000 
     24 OD1        46.6500   -1.5300   65.9500 O.co2     3 ASP3        0.0000 
     25 OD1        47.4200   -1.8500   64.7000 O.co2     3 ASP3        0.0000 
     26 OD1        47.4400   -1.0900   62.7200 O.co2     3 ASP3        0.0000 
     27 OD1        47.4700   -0.3300   60.7400 O.co2     3 ASP3        0.0000 
     28 OD1        47.7500    0.2200   64.3600 O.co2     3 ASP3        0.0000 
     29 NZ         42.3000   -1.0000   64.9500 N.4       4 LYS4        0.0000 
     30 NZ         43.0600   -1.3200   63.7000 N.4       4 LYS4        0.0000 
     31 NZ         43.3300   -0.7800   67.3300 N.4       4 LYS4        0.0000 
     32 NZ         44.1000   -1.1000   66.0800 N.4       4 LYS4        0.0000 
     33 NZ         44.8600   -1.4200   64.8200 N.4       4 LYS4        0.0000 
     34 NZ         45.6200   -1.7500   63.5700 N.4       4 LYS4        0.0000 
     35 NZ         44.8900   -0.6600   62.8400 N.4       4 LYS4        0.0000 
     36 NZ         45.1600   -0.1200   66.4700 N.4       4 LYS4        0.0000 
     37 NZ         45.9200   -0.4400   65.2200 N.4       4 LYS4        0.0000 
     38 NZ         46.6800   -0.7700   63.9700 N.4       4 LYS4        0.0000 
     39 NZ         46.9800    0.5400   65.6100 N.4       4 LYS4        0.0000 
     40 CZ         45.9500    0.3200   63.2400 C.ar      5 PHE5        0.0000 
     41 CZ         46.7100   -0.0100   61.9900 C.ar      5 PHE5        0.0000 
     42 CZ         46.7400    0.7600   60.0100 C.ar      5 PHE5        0.0000 
     43 CZ         47.7700    0.9800   62.3800 C.ar      5 PHE5        0.0000 
     44 CZ         47.9900    0.0000   69.9600 C.ar      5 PHE5        0.0000 
     45 CZ         47.2600    1.0900   69.2300 C.ar      5 PHE5        0.0000 
     46 CZ         48.0200    0.7600   67.9800 C.ar      5 PHE5        0.0000 
     47 CZ         49.0600    0.9800   70.3600 C.ar      5 PHE5        0.0000 
     48 CZ         49.8200    0.6600   69.1000 C.ar      5 PHE5        0.0000 
     49 CA         42.7600   -2.6300   62.0600 C.3       6 GLY6        0.0000 
     50 CA         46.0500   -4.1400   62.6600 C.3       6 GLY6        0.0000 
     51 CA         43.8200   -1.6500   62.4500 C.3       6 GLY6        0.0000 
     52 CA         44.5800   -1.9700   61.2000 C.3       6 GLY6        0.0000 
     53 CA         45.6500   -0.9900   61.5900 C.3       6 GLY6        0.0000 
     54 CA         44.9100    0.1000   60.8700 C.3       6 GLY6        0.0000 
     55 CA         48.4200   -2.3900   69.0500 C.3       6 GLY6        0.0000 
     56 CA         49.4900   -1.4100   69.4400 C.3       6 GLY6        0.0000 
     57 DU         41.2300   -1.9800   64.5600 H         7 CUB7        0.0000 
     58 DU         42.0000   -2.3000   63.3100 H         7 CUB7        0.0000 
     59 DU         46.9300   -0.9800   69.5700 H         7 CUB7        0.0000 
     60 DU         46.9600   -0.2200   67.5900 H         7 CUB7        0.0000 
@<TRIPOS>BOND
@<TRIPOS>SUBSTRUCTURE
     1 SER1        1 GROUP   
     2 ALA2        7 GROUP   
     3 ASP3       11 GROUP   
     4 LYS4       29 GROUP   
     5 PHE5       40 GROUP   
     6 GLY6       49 GROUP   
     7 CUB7       57 GROUP   
@<TRIPOS>SET

