#    Name: 5vye_1_PLR_CAVITY_N1_6
#    Modification time : Fri May 22 19:15:12 2020

@<TRIPOS>MOLECULE
5vye_1_PLR_CAVITY_N1_6
   34     0     7     0     0
SMALL
NO_CHARGES


@<TRIPOS>ATOM
      1 OG         48.4500   -1.6300   67.0700 O.3       1 SER1        0.0000 
      2 N          45.3200   -3.0600   61.9300 N.am      2 ALA2        0.0000 
      3 O          47.7200   -0.5500   66.3400 O.2       2 ALA2        0.0000 
      4 O          48.4800   -0.8700   65.0900 O.2       2 ALA2        0.0000 
      5 OD1        45.2900   -3.8200   63.9100 O.co2     3 ASP3        0.0000 
      6 OD1        44.5600   -2.7300   63.1800 O.co2     3 ASP3        0.0000 
      7 OD1        45.5900   -2.5100   65.5500 O.co2     3 ASP3        0.0000 
      8 OD1        46.3500   -2.8400   64.3000 O.co2     3 ASP3        0.0000 
      9 OD1        46.3800   -2.0700   62.3200 O.co2     3 ASP3        0.0000 
     10 OD1        46.4100   -1.3100   60.3400 O.co2     3 ASP3        0.0000 
     11 OD1        46.6500   -1.5300   65.9500 O.co2     3 ASP3        0.0000 
     12 OD1        47.4200   -1.8500   64.7000 O.co2     3 ASP3        0.0000 
     13 OD1        47.4400   -1.0900   62.7200 O.co2     3 ASP3        0.0000 
     14 OD1        47.4700   -0.3300   60.7400 O.co2     3 ASP3        0.0000 
     15 OD1        47.7500    0.2200   64.3600 O.co2     3 ASP3        0.0000 
     16 NZ         43.0600   -1.3200   63.7000 N.4       4 LYS4        0.0000 
     17 NZ         44.8600   -1.4200   64.8200 N.4       4 LYS4        0.0000 
     18 NZ         45.6200   -1.7500   63.5700 N.4       4 LYS4        0.0000 
     19 NZ         44.8900   -0.6600   62.8400 N.4       4 LYS4        0.0000 
     20 NZ         45.1600   -0.1200   66.4700 N.4       4 LYS4        0.0000 
     21 NZ         45.9200   -0.4400   65.2200 N.4       4 LYS4        0.0000 
     22 NZ         46.6800   -0.7700   63.9700 N.4       4 LYS4        0.0000 
     23 NZ         46.9800    0.5400   65.6100 N.4       4 LYS4        0.0000 
     24 CZ         45.9500    0.3200   63.2400 C.ar      5 PHE5        0.0000 
     25 CZ         46.7100   -0.0100   61.9900 C.ar      5 PHE5        0.0000 
     26 CZ         46.7400    0.7600   60.0100 C.ar      5 PHE5        0.0000 
     27 CZ         47.7700    0.9800   62.3800 C.ar      5 PHE5        0.0000 
     28 CZ         48.0200    0.7600   67.9800 C.ar      5 PHE5        0.0000 
     29 CA         46.0500   -4.1400   62.6600 C.3       6 GLY6        0.0000 
     30 CA         43.8200   -1.6500   62.4500 C.3       6 GLY6        0.0000 
     31 CA         44.5800   -1.9700   61.2000 C.3       6 GLY6        0.0000 
     32 CA         45.6500   -0.9900   61.5900 C.3       6 GLY6        0.0000 
     33 CA         44.9100    0.1000   60.8700 C.3       6 GLY6        0.0000 
     34 DU         46.9600   -0.2200   67.5900 H         7 CUB7        0.0000 
@<TRIPOS>BOND
@<TRIPOS>SUBSTRUCTURE
     1 SER1        1 GROUP   
     2 ALA2        2 GROUP   
     3 ASP3        5 GROUP   
     4 LYS4       16 GROUP   
     5 PHE5       24 GROUP   
     6 GLY6       29 GROUP   
     7 CUB7       34 GROUP   
@<TRIPOS>SET

