#    Name: 5vye_4_PLR
#    Modification time : Fri May 22 19:15:24 2020

@<TRIPOS>MOLECULE
5vye_4_PLR
   25    25     1     0     0
SMALL
NO_CHARGES


@<TRIPOS>ATOM
      1 N1         18.4490   21.3160   57.8940 N.ar      1 PLR401      0.0000 
      2 C2         17.5910   20.6680   57.0130 C.ar      1 PLR401      0.0000 
      3 C2A        16.7610   19.4540   57.4830 C.3       1 PLR401      0.0000 
      4 C3         17.4630   21.1380   55.6800 C.ar      1 PLR401      0.0000 
      5 O3         16.5920   20.4950   54.7620 O.3       1 PLR401      0.0000 
      6 C4         18.2030   22.2120   55.2610 C.ar      1 PLR401      0.0000 
      7 C4A        18.1110   22.6740   53.7720 C.3       1 PLR401      0.0000 
      8 C5         19.0690   22.8270   56.1680 C.ar      1 PLR401      0.0000 
      9 C6         19.2030   22.3840   57.4910 C.ar      1 PLR401      0.0000 
     10 C5A        19.9440   24.0060   55.7210 C.3       1 PLR401      0.0000 
     11 O4P        19.1720   24.9030   54.9980 O.3       1 PLR401      0.0000 
     12 P          19.9620   25.9540   53.9330 P.3       1 PLR401      0.0000 
     13 O1P        19.5500   25.2970   52.5670 O.co2     1 PLR401      0.0000 
     14 O2P        21.5240   26.0680   54.0180 O.co2     1 PLR401      0.0000 
     15 O3P        19.1390   27.3360   54.2200 O.co2     1 PLR401      0.0000 
     16 H2A1       16.3100   19.0570   56.7210 H         1 PLR401      0.0000 
     17 H2A2       17.3490   18.7980   57.8890 H         1 PLR401      0.0000 
     18 H2A3       16.1030   19.7450   58.1330 H         1 PLR401      0.0000 
     19 HO3        16.9400   19.7640   54.5050 H         1 PLR401      0.0000 
     20 H4A1       17.4620   22.1260   53.3040 H         1 PLR401      0.0000 
     21 H4A2       17.8340   23.6030   53.7390 H         1 PLR401      0.0000 
     22 H4A3       18.9790   22.5790   53.3500 H         1 PLR401      0.0000 
     23 H6         19.7830   22.8090   58.0810 H         1 PLR401      0.0000 
     24 H5A1       20.3120   24.4510   56.5010 H         1 PLR401      0.0000 
     25 H5A2       20.6680   23.6790   55.1630 H         1 PLR401      0.0000 
@<TRIPOS>BOND
     1    1    2 ar   
     2    1    9 ar   
     3    2    3 1    
     4    2    4 ar   
     5    3   16 1    
     6    3   17 1    
     7    3   18 1    
     8    4    5 1    
     9    4    6 ar   
    10    5   19 1    
    11    6    7 1    
    12    6    8 ar   
    13    7   20 1    
    14    7   21 1    
    15    7   22 1    
    16    8    9 ar   
    17    8   10 1    
    18   10   11 1    
    19    9   23 1    
    20   10   24 1    
    21   10   25 1    
    22   11   12 1    
    23   12   13 ar   
    24   12   14 ar   
    25   12   15 ar   
@<TRIPOS>SUBSTRUCTURE
     1 PLR401      1 GROUP   
@<TRIPOS>SET

