#    Name: 6b4i_2_ADP
#    Modification time : Fri May 22 19:24:20 2020

@<TRIPOS>MOLECULE
6b4i_2_ADP
   41    44     1     0     1
SMALL
NO_CHARGES


@<TRIPOS>ATOM
      1 PB         81.9060    3.2830   22.0190 P.3       1 ADP501      0.0000 
      2 O1B        83.0600    4.2120   21.9930 O.co2     1 ADP501      0.0000 
      3 O2B        80.7150    3.8490   21.2670 O.co2     1 ADP501      0.0000 
      4 O3B        82.2450    1.9130   21.4260 O.co2     1 ADP501      0.0000 
      5 PA         80.7900    3.9810   24.6440 P.3       1 ADP501      0.0000 
      6 O1A        79.3750    3.6120   24.4180 Du        1 ADP501      0.0000 
      7 O2A        79.9970    5.1740   24.0030 O.co2     1 ADP501      0.0000 
      8 O3A        81.3880    3.0330   23.5050 O.3       1 ADP501      0.0000 
      9 O5'        80.2480    3.2880   26.0320 O.3       1 ADP501      0.0000 
     10 C5'        80.6380    1.9660   26.4560 C.3       1 ADP501      0.0000 
     11 C4'        80.1100    1.7250   27.8470 C.3       1 ADP501      0.0000 
     12 O4'        80.7150    2.6660   28.7580 O.3       1 ADP501      0.0000 
     13 C3'        78.5970    1.8660   28.0100 C.3       1 ADP501      0.0000 
     14 O3'        78.0800    0.8650   28.8800 O.3       1 ADP501      0.0000 
     15 C2'        78.4350    3.2710   28.5980 C.3       1 ADP501      0.0000 
     16 O2'        77.3160    3.3260   29.4750 O.3       1 ADP501      0.0000 
     17 C1'        79.7240    3.4370   29.4060 C.3       1 ADP501      0.0000 
     18 N9         80.1990    4.8110   29.4830 N.pl3     1 ADP501      0.0000 
     19 C8         80.3520    5.6930   28.4460 C.2       1 ADP501      0.0000 
     20 N7         80.8060    6.8710   28.7970 N.2       1 ADP501      0.0000 
     21 C5         80.9650    6.7570   30.1720 C.ar      1 ADP501      0.0000 
     22 C6         81.4190    7.6640   31.1510 C.ar      1 ADP501      0.0000 
     23 N6         81.8260    8.9070   30.8830 N.pl3     1 ADP501      0.0000 
     24 N1         81.4520    7.2370   32.4330 N.ar      1 ADP501      0.0000 
     25 C2         81.0580    5.9900   32.7070 C.ar      1 ADP501      0.0000 
     26 N3         80.6170    5.0480   31.8690 N.ar      1 ADP501      0.0000 
     27 C4         80.5960    5.5000   30.6090 C.ar      1 ADP501      0.0000 
     28 HOB2       79.9880    3.2270   21.0020 H         1 ADP501      0.0000 
     29 HOB3       82.5680    1.7010   20.5110 H         1 ADP501      0.0000 
     30 HOA2       79.1410    5.5500   24.3380 H         1 ADP501      0.0000 
     31 H5'1       80.2700    1.2120   25.7620 H         1 ADP501      0.0000 
     32 H5'2       81.7260    2.0140   26.4260 H         1 ADP501      0.0000 
     33 H4'        80.4420    0.7590   28.2240 H         1 ADP501      0.0000 
     34 H3'        78.0840    1.7580   27.0560 H         1 ADP501      0.0000 
     35 H2'        78.3530    4.0170   27.8100 H         1 ADP501      0.0000 
     36 HO2'       76.5880    3.7290   28.9330 H         1 ADP501      0.0000 
     37 H1'        79.6180    3.0650   30.4240 H         1 ADP501      0.0000 
     38 H8         80.1150    5.4320   27.4160 H         1 ADP501      0.0000 
     39 HN61       81.8250    9.2600   29.9310 H         1 ADP501      0.0000 
     40 HN62       82.1410    9.5060   31.6390 H         1 ADP501      0.0000 
     41 H2         81.1080    5.7160   33.7600 H         1 ADP501      0.0000 
@<TRIPOS>BOND
     1    1    2 ar   
     2    1    3 ar   
     3    1    4 ar   
     4    1    8 1    
     5    3   28 1    
     6    4   29 1    
     7    5    6 du   
     8    5    7 ar   
     9    5    8 1    
    10    5    9 1    
    11    6    7 du   
    12    7   30 1    
    13    9   10 1    
    14   10   11 1    
    15   10   31 1    
    16   10   32 1    
    17   11   12 1    
    18   11   13 1    
    19   11   33 1    
    20   12   17 1    
    21   13   14 1    
    22   13   15 1    
    23   13   34 1    
    24   15   16 1    
    25   15   17 1    
    26   15   35 1    
    27   16   36 1    
    28   17   18 1    
    29   17   37 1    
    30   18   19 1    
    31   18   27 1    
    32   19   20 2    
    33   19   38 1    
    34   20   21 1    
    35   21   22 ar   
    36   21   27 ar   
    37   22   23 1    
    38   22   24 ar   
    39   23   39 1    
    40   23   40 1    
    41   24   25 ar   
    42   25   26 ar   
    43   25   41 1    
    44   26   27 ar   
@<TRIPOS>SUBSTRUCTURE
     1 ADP501      1 GROUP   
@<TRIPOS>SET
ATOM$ORANGE STATIC     ATOMS   COLORGROUP SYSTEM 
20 10 10 11 11 13 13 15 15 17 17 19 19 21 21 22 22 25 \
25 27 27 

