#    Name: 6b4i_1_ADP
#    Modification time : Fri May 22 19:24:12 2020

@<TRIPOS>MOLECULE
6b4i_1_ADP
   42    45     1     0     1
SMALL
NO_CHARGES


@<TRIPOS>ATOM
      1 PB         47.4770  -15.1890   23.1300 P.3       1 ADP501      0.0000 
      2 O1B        46.2460  -15.9650   23.4160 O.co2     1 ADP501      0.0000 
      3 O2B        48.5530  -16.0350   22.4400 O.co2     1 ADP501      0.0000 
      4 O3B        47.1920  -13.9430   22.2710 O.co2     1 ADP501      0.0000 
      5 PA         48.6200  -15.4370   25.8050 P.3       1 ADP501      0.0000 
      6 O1A        50.0030  -14.9110   25.7340 Du        1 ADP501      0.0000 
      7 O2A        49.5920  -16.6050   25.4430 O.co2     1 ADP501      0.0000 
      8 O3A        48.1430  -14.6780   24.4830 O.3       1 ADP501      0.0000 
      9 O5'        48.8510  -14.5980   27.1950 O.3       1 ADP501      0.0000 
     10 C5'        47.8330  -13.7750   27.7930 C.3       1 ADP501      0.0000 
     11 C4'        48.4140  -13.1520   29.0350 C.3       1 ADP501      0.0000 
     12 O4'        47.9590  -13.8760   30.1980 O.3       1 ADP501      0.0000 
     13 C3'        49.9350  -13.1760   29.1180 C.3       1 ADP501      0.0000 
     14 O3'        50.4070  -12.0850   29.8970 O.3       1 ADP501      0.0000 
     15 C2'        50.2070  -14.5180   29.7970 C.3       1 ADP501      0.0000 
     16 O2'        51.4330  -14.4840   30.5190 O.3       1 ADP501      0.0000 
     17 C1'        49.0250  -14.6170   30.7680 C.3       1 ADP501      0.0000 
     18 N9         48.5540  -15.9750   31.0130 N.pl3     1 ADP501      0.0000 
     19 C8         48.3540  -16.9630   30.0910 C.2       1 ADP501      0.0000 
     20 N7         47.8870  -18.0860   30.5890 N.2       1 ADP501      0.0000 
     21 C5         47.7770  -17.8080   31.9410 C.ar      1 ADP501      0.0000 
     22 C6         47.3220  -18.5840   33.0330 C.ar      1 ADP501      0.0000 
     23 N6         46.9090  -19.8490   32.9230 N.pl3     1 ADP501      0.0000 
     24 N1         47.3190  -18.0060   34.2530 N.ar      1 ADP501      0.0000 
     25 C2         47.7470  -16.7460   34.3710 C.ar      1 ADP501      0.0000 
     26 N3         48.2000  -15.9230   33.4200 N.ar      1 ADP501      0.0000 
     27 C4         48.1830  -16.5200   32.2270 C.ar      1 ADP501      0.0000 
     28 HOB2       48.5450  -16.1070   21.4500 H         1 ADP501      0.0000 
     29 HOB3       46.7370  -13.8940   21.3900 H         1 ADP501      0.0000 
     30 HOA2       49.4920  -17.2270   24.6760 H         1 ADP501      0.0000 
     31 H5'1       46.9440  -14.3590   28.0240 H         1 ADP501      0.0000 
     32 H5'2       47.6210  -13.0430   27.0150 H         1 ADP501      0.0000 
     33 H4'        48.0320  -12.1440   29.1890 H         1 ADP501      0.0000 
     34 H3'        50.3940  -13.1030   28.1330 H         1 ADP501      0.0000 
     35 HO3'       50.7300  -11.4060   29.2480 H         1 ADP501      0.0000 
     36 H2'        50.2030  -15.3300   29.0720 H         1 ADP501      0.0000 
     37 HO2'       52.0240  -15.1260   30.0460 H         1 ADP501      0.0000 
     38 H1'        49.2590  -14.1740   31.7350 H         1 ADP501      0.0000 
     39 H8         48.5650  -16.8270   29.0320 H         1 ADP501      0.0000 
     40 HN61       46.9060  -20.3180   32.0230 H         1 ADP501      0.0000 
     41 HN62       46.5950  -20.3470   33.7500 H         1 ADP501      0.0000 
     42 H2         47.7180  -16.3470   35.3830 H         1 ADP501      0.0000 
@<TRIPOS>BOND
     1    1    2 ar   
     2    1    3 ar   
     3    1    4 ar   
     4    1    8 1    
     5    3   28 1    
     6    4   29 1    
     7    5    6 du   
     8    5    7 ar   
     9    5    8 1    
    10    5    9 1    
    11    6    7 du   
    12    7   30 1    
    13    9   10 1    
    14   10   11 1    
    15   10   31 1    
    16   10   32 1    
    17   11   12 1    
    18   11   13 1    
    19   11   33 1    
    20   12   17 1    
    21   13   14 1    
    22   13   15 1    
    23   13   34 1    
    24   14   35 1    
    25   15   16 1    
    26   15   17 1    
    27   15   36 1    
    28   16   37 1    
    29   17   18 1    
    30   17   38 1    
    31   18   19 1    
    32   18   27 1    
    33   19   20 2    
    34   19   39 1    
    35   20   21 1    
    36   21   22 ar   
    37   21   27 ar   
    38   22   23 1    
    39   22   24 ar   
    40   23   40 1    
    41   23   41 1    
    42   24   25 ar   
    43   25   26 ar   
    44   25   42 1    
    45   26   27 ar   
@<TRIPOS>SUBSTRUCTURE
     1 ADP501      1 GROUP   
@<TRIPOS>SET
ATOM$ORANGE STATIC     ATOMS   COLORGROUP SYSTEM 
20 10 10 11 11 13 13 15 15 17 17 19 19 21 21 22 22 25 \
25 27 27 

