#    Name: 6gf3_3_GTP
#    Modification time : Fri May 22 19:25:49 2020

@<TRIPOS>MOLECULE
6gf3_3_GTP
   32    34     1     0     1
SMALL
NO_CHARGES


@<TRIPOS>ATOM
      1 PG         20.2600   18.9040  -16.7780 P.3       1 GTP501      0.0000 
      2 O1G        19.1080   18.9390  -17.7550 O.co2     1 GTP501      0.0000 
      3 O2G        20.6130   17.4930  -16.3730 O.co2     1 GTP501      0.0000 
      4 O3G        21.4620   19.5480  -17.4330 O.co2     1 GTP501      0.0000 
      5 O3B        19.8820   19.7210  -15.4330 O.3       1 GTP501      0.0000 
      6 PB         18.6370   20.7310  -15.3180 P.3       1 GTP501      0.0000 
      7 O1B        18.4540   21.5340  -16.5780 O.co2     1 GTP501      0.0000 
      8 O2B        18.8710   21.6460  -14.1520 O.co2     1 GTP501      0.0000 
      9 O3A        17.3940   19.7280  -15.1010 O.3       1 GTP501      0.0000 
     10 PA         16.0390   20.0690  -14.2930 P.3       1 GTP501      0.0000 
     11 O1A        14.8720   19.8990  -15.2280 O.co2     1 GTP501      0.0000 
     12 O2A        16.0380   21.4560  -13.7040 O.co2     1 GTP501      0.0000 
     13 O5'        15.9870   18.9520  -13.1310 O.3       1 GTP501      0.0000 
     14 C5'        14.9860   17.9610  -13.0230 C.3       1 GTP501      0.0000 
     15 C4'        14.0840   18.2850  -11.8420 C.3       1 GTP501      0.0000 
     16 O4'        13.6510   19.6240  -11.9580 O.3       1 GTP501      0.0000 
     17 C3'        12.8390   17.4200  -11.8060 C.3       1 GTP501      0.0000 
     18 O3'        12.5860   17.0860  -10.4560 O.3       1 GTP501      0.0000 
     19 C2'        11.7570   18.3420  -12.3210 C.3       1 GTP501      0.0000 
     20 O2'        10.5030   18.0340  -11.7670 O.3       1 GTP501      0.0000 
     21 C1'        12.2470   19.7020  -11.8620 C.3       1 GTP501      0.0000 
     22 N9         11.7920   20.7770  -12.7510 N.pl3     1 GTP501      0.0000 
     23 C8         12.2100   21.0130  -14.0360 C.2       1 GTP501      0.0000 
     24 N7         11.5630   22.1070  -14.4980 N.2       1 GTP501      0.0000 
     25 C5         10.7500   22.5710  -13.5230 C.2       1 GTP501      0.0000 
     26 C6          9.8820   23.6470  -13.4640 C.2       1 GTP501      0.0000 
     27 O6          9.7550   24.3850  -14.4340 O.2       1 GTP501      0.0000 
     28 N1          9.1630   23.8860  -12.3110 N.am      1 GTP501      0.0000 
     29 C2          9.3140   23.0520  -11.2240 C.2       1 GTP501      0.0000 
     30 N2          8.6230   23.2790  -10.1110 N.pl3     1 GTP501      0.0000 
     31 N3         10.1800   21.9800  -11.2910 N.2       1 GTP501      0.0000 
     32 C4         10.8870   21.7460  -12.4200 C.2       1 GTP501      0.0000 
@<TRIPOS>BOND
     1    1    2 ar   
     2    1    3 ar   
     3    1    4 ar   
     4    1    5 1    
     5    5    6 1    
     6    6    7 ar   
     7    6    8 ar   
     8    6    9 1    
     9    9   10 1    
    10   10   11 ar   
    11   10   12 ar   
    12   10   13 1    
    13   13   14 1    
    14   14   15 1    
    15   15   16 1    
    16   15   17 1    
    17   16   21 1    
    18   17   18 1    
    19   17   19 1    
    20   19   20 1    
    21   19   21 1    
    22   21   22 1    
    23   22   23 1    
    24   22   32 1    
    25   23   24 2    
    26   24   25 1    
    27   25   26 1    
    28   25   32 2    
    29   26   27 2    
    30   26   28 am   
    31   28   29 1    
    32   29   30 1    
    33   29   31 2    
    34   31   32 1    
@<TRIPOS>SUBSTRUCTURE
     1 GTP501      1 GROUP   
@<TRIPOS>SET
ATOM$ORANGE STATIC     ATOMS   COLORGROUP SYSTEM 
20 14 14 15 15 17 17 19 19 21 21 23 23 25 25 26 26 29 \
29 32 32 

