#    Name: 6gf3_5_ACP
#    Modification time : Fri May 22 19:25:56 2020

@<TRIPOS>MOLECULE
6gf3_5_ACP
   31    33     1     0     1
SMALL
NO_CHARGES


@<TRIPOS>ATOM
      1 PG          7.9340   49.5650   94.3650 P.3       1 ACP401      0.0000 
      2 O1G         8.3490   49.9240   92.8510 O.co2     1 ACP401      0.0000 
      3 O2G         7.6930   50.9420   95.1490 O.co2     1 ACP401      0.0000 
      4 O3G         6.6540   48.8140   94.3570 O.co2     1 ACP401      0.0000 
      5 PB         10.9060   49.2960   95.4210 P.3       1 ACP401      0.0000 
      6 O1B        11.1040   50.4500   94.5320 O.co2     1 ACP401      0.0000 
      7 O2B        12.0150   48.1860   95.0890 O.co2     1 ACP401      0.0000 
      8 C3B         9.2480   48.5640   95.1570 C.3       1 ACP401      0.0000 
      9 PA         10.1670   50.8860   97.7600 P.3       1 ACP401      0.0000 
     10 O1A         9.2450   51.5850   96.8060 O.co2     1 ACP401      0.0000 
     11 O2A        11.0250   51.6600   98.7140 O.co2     1 ACP401      0.0000 
     12 O3A        11.0880   49.8130   96.9510 O.3       1 ACP401      0.0000 
     13 O5'         9.2260   50.0200   98.7290 O.3       1 ACP401      0.0000 
     14 C5'         9.6890   49.6030  100.0120 C.3       1 ACP401      0.0000 
     15 C4'         8.5500   49.0000  100.8340 C.3       1 ACP401      0.0000 
     16 O4'         8.9000   49.0650  102.2130 O.3       1 ACP401      0.0000 
     17 C3'         7.2370   49.7510  100.7170 C.3       1 ACP401      0.0000 
     18 O3'         6.3130   49.0470   99.8920 O.3       1 ACP401      0.0000 
     19 C2'         6.7070   49.8140  102.1260 C.3       1 ACP401      0.0000 
     20 O2'         6.0270   48.5960  102.3820 O.3       1 ACP401      0.0000 
     21 C1'         7.9310   49.7670  102.9810 C.3       1 ACP401      0.0000 
     22 N9          8.4960   51.0840  103.3390 N.pl3     1 ACP401      0.0000 
     23 C8          9.3130   51.8100  102.5720 C.2       1 ACP401      0.0000 
     24 N7          9.6640   52.9630  103.1740 N.2       1 ACP401      0.0000 
     25 C5          9.0640   52.9850  104.3610 C.ar      1 ACP401      0.0000 
     26 C6          9.0160   53.9190  105.4930 C.ar      1 ACP401      0.0000 
     27 N6          9.6990   55.0830  105.4640 N.pl3     1 ACP401      0.0000 
     28 N1          8.2680   53.5720  106.5560 N.ar      1 ACP401      0.0000 
     29 C2          7.5890   52.4190  106.5850 C.ar      1 ACP401      0.0000 
     30 N3          7.5910   51.5250  105.5880 N.ar      1 ACP401      0.0000 
     31 C4          8.2970   51.7470  104.4680 C.ar      1 ACP401      0.0000 
@<TRIPOS>BOND
     1    1    2 ar   
     2    1    3 ar   
     3    1    4 ar   
     4    1    8 1    
     5    5    6 ar   
     6    5    7 ar   
     7    5    8 1    
     8    5   12 1    
     9    9   10 ar   
    10    9   11 ar   
    11    9   12 1    
    12    9   13 1    
    13   13   14 1    
    14   14   15 1    
    15   15   16 1    
    16   15   17 1    
    17   16   21 1    
    18   17   18 1    
    19   17   19 1    
    20   19   20 1    
    21   19   21 1    
    22   21   22 1    
    23   22   23 1    
    24   22   31 1    
    25   23   24 2    
    26   24   25 1    
    27   25   26 ar   
    28   25   31 ar   
    29   26   27 1    
    30   26   28 ar   
    31   28   29 ar   
    32   29   30 ar   
    33   30   31 ar   
@<TRIPOS>SUBSTRUCTURE
     1 ACP401      1 GROUP   
@<TRIPOS>SET
ATOM$ORANGE STATIC     ATOMS   COLORGROUP SYSTEM 
22 8 8 14 14 15 15 17 17 19 19 21 21 23 23 25 25 26 \
26 29 29 31 31 

