#    Name: 6gf3_2_GDP_CAVITY_N1_8
#    Modification time : Fri May 22 19:25:37 2020

@<TRIPOS>MOLECULE
6gf3_2_GDP_CAVITY_N1_8
   78     0     6     0     0
SMALL
NO_CHARGES


@<TRIPOS>ATOM
      1 OG         13.2600   52.5000    9.1400 O.3       1 SER1        0.0000 
      2 OG          6.5200   45.6800   17.1000 O.3       1 SER1        0.0000 
      3 N          12.1600   47.0000    8.8700 N.am      2 ALA2        0.0000 
      4 N          13.0100   48.8500    9.4800 N.am      2 ALA2        0.0000 
      5 N          11.7000   49.5300    9.2300 N.am      2 ALA2        0.0000 
      6 N          10.9800   48.4100    9.9300 N.am      2 ALA2        0.0000 
      7 N          10.2700   47.2900   10.6300 N.am      2 ALA2        0.0000 
      8 O          15.2900   52.9300    8.6900 O.2       2 ALA2        0.0000 
      9 N          13.8600   50.6900   10.0800 N.am      2 ALA2        0.0000 
     10 N          12.5500   51.3800    9.8400 N.am      2 ALA2        0.0000 
     11 N          10.5200   50.9400   10.3000 N.am      2 ALA2        0.0000 
     12 N          11.1200   49.1400   11.2400 N.am      2 ALA2        0.0000 
     13 N           9.8100   49.8300   11.0000 N.am      2 ALA2        0.0000 
     14 N           8.5000   50.5100   10.7500 N.am      2 ALA2        0.0000 
     15 N          10.4100   48.0200   11.9400 N.am      2 ALA2        0.0000 
     16 N           9.1000   48.7100   11.6900 N.am      2 ALA2        0.0000 
     17 N           7.0700   48.2700   12.1500 N.am      2 ALA2        0.0000 
     18 N           6.8400   42.4300   15.4300 N.am      2 ALA2        0.0000 
     19 N           9.3500   52.3600   11.3600 N.am      2 ALA2        0.0000 
     20 N           8.6400   51.2400   12.0600 N.am      2 ALA2        0.0000 
     21 N           9.2300   49.4300   13.0000 N.am      2 ALA2        0.0000 
     22 N           7.9200   50.1200   12.7600 N.am      2 ALA2        0.0000 
     23 N           5.9000   49.6900   13.2100 N.am      2 ALA2        0.0000 
     24 N           5.6600   43.8400   16.4900 N.am      2 ALA2        0.0000 
     25 N           6.2600   42.0300   17.4300 N.am      2 ALA2        0.0000 
     26 N           4.9500   42.7200   17.1900 N.am      2 ALA2        0.0000 
     27 N           8.7700   51.9600   13.3600 N.am      2 ALA2        0.0000 
     28 O           4.0100   49.9800   14.9700 O.2       2 ALA2        0.0000 
     29 N           5.8000   44.5600   17.8000 N.am      2 ALA2        0.0000 
     30 N           6.4000   42.7600   18.7400 N.am      2 ALA2        0.0000 
     31 N           4.3700   42.3300   19.1900 N.am      2 ALA2        0.0000 
     32 O           4.7400   48.9000   17.2200 O.2       2 ALA2        0.0000 
     33 N           3.3200   46.6600   18.6200 N.am      2 ALA2        0.0000 
     34 N           3.4600   47.3900   19.9200 N.am      2 ALA2        0.0000 
     35 NZ         13.4700   46.3200    9.1100 N.4       3 LYS4        0.0000 
     36 NZ         14.4400   51.0900    8.0800 N.4       3 LYS4        0.0000 
     37 NZ         13.7200   49.9700    8.7800 N.4       3 LYS4        0.0000 
     38 NZ         14.3200   48.1600    9.7200 N.4       3 LYS4        0.0000 
     39 NZ         11.5800   46.6100   10.8700 N.4       3 LYS4        0.0000 
     40 NZ         10.8700   45.4900   11.5700 N.4       3 LYS4        0.0000 
     41 NZ         14.5800   51.8100    9.3800 N.4       3 LYS4        0.0000 
     42 NZ         10.2900   45.1000   13.5800 N.4       3 LYS4        0.0000 
     43 NZ          8.9800   45.7800   13.3300 N.4       3 LYS4        0.0000 
     44 NZ          9.5800   43.9800   14.2700 N.4       3 LYS4        0.0000 
     45 NZ          8.2700   44.6600   14.0300 N.4       3 LYS4        0.0000 
     46 NZ          8.8600   42.8600   14.9700 N.4       3 LYS4        0.0000 
     47 NZ          7.5500   43.5400   14.7300 N.4       3 LYS4        0.0000 
     48 NZ          9.1200   46.5100   14.6400 N.4       3 LYS4        0.0000 
     49 NZ          7.6900   44.2700   16.0300 N.4       3 LYS4        0.0000 
     50 NZ          6.3800   44.9600   15.7900 N.4       3 LYS4        0.0000 
     51 CZ          8.5200   48.3100   13.7000 C.ar      4 PHE5        0.0000 
     52 CZ          7.2100   49.0000   13.4500 C.ar      4 PHE5        0.0000 
     53 CZ          7.8100   47.1900   14.4000 C.ar      4 PHE5        0.0000 
     54 CZ          6.4900   47.8800   14.1500 C.ar      4 PHE5        0.0000 
     55 CZ          7.0900   46.0800   15.0900 C.ar      4 PHE5        0.0000 
     56 CZ          5.7800   46.7600   14.8500 C.ar      4 PHE5        0.0000 
     57 CZ          8.0600   50.8400   14.0600 C.ar      4 PHE5        0.0000 
     58 CZ          6.7500   51.5300   13.8200 C.ar      4 PHE5        0.0000 
     59 CZ          6.0300   50.4100   14.5200 C.ar      4 PHE5        0.0000 
     60 CZ          5.3200   49.2900   15.2200 C.ar      4 PHE5        0.0000 
     61 CZ          4.6100   48.1700   15.9100 C.ar      4 PHE5        0.0000 
     62 CZ          5.2000   46.3700   16.8500 C.ar      4 PHE5        0.0000 
     63 CZ          5.3400   47.0900   18.1600 C.ar      4 PHE5        0.0000 
     64 CA          9.5500   46.1800   11.3300 C.3       5 GLY6        0.0000 
     65 CA          5.1800   48.5700   13.9100 C.3       5 GLY6        0.0000 
     66 CA          5.0900   43.4400   18.4900 C.3       5 GLY6        0.0000 
     67 CA          4.6300   45.9800   18.8600 C.3       5 GLY6        0.0000 
     68 CA          5.2300   44.1700   19.8000 C.3       5 GLY6        0.0000 
     69 CA          3.9100   44.8600   19.5600 C.3       5 GLY6        0.0000 
     70 CA          4.0500   45.5800   20.8600 C.3       5 GLY6        0.0000 
     71 DU         12.2900   47.7300   10.1700 H         6 CUB7        0.0000 
     72 DU          9.6900   46.9000   12.6300 H         6 CUB7        0.0000 
     73 DU          8.3800   47.5900   12.3900 H         6 CUB7        0.0000 
     74 DU          7.6700   46.4700   13.0900 H         6 CUB7        0.0000 
     75 DU          6.9500   45.3500   13.7900 H         6 CUB7        0.0000 
     76 DU          5.0700   45.6400   15.5500 H         6 CUB7        0.0000 
     77 DU          4.4900   45.2500   17.5500 H         6 CUB7        0.0000 
     78 DU          3.7800   44.1300   18.2500 H         6 CUB7        0.0000 
@<TRIPOS>BOND
@<TRIPOS>SUBSTRUCTURE
     1 SER1        1 GROUP   
     2 ALA2        3 GROUP   
     3 LYS4       35 GROUP   
     4 PHE5       51 GROUP   
     5 GLY6       64 GROUP   
     6 CUB7       71 GROUP   
@<TRIPOS>SET

