#    Name: 6gf3_2_GDP
#    Modification time : Fri May 22 19:25:35 2020

@<TRIPOS>MOLECULE
6gf3_2_GDP
   28    30     1     0     1
SMALL
NO_CHARGES


@<TRIPOS>ATOM
      1 PB         18.5790   49.6610   15.9610 P.3       1 GDP501      0.0000 
      2 O1B        17.8390   50.5430   14.9890 O.co2     1 GDP501      0.0000 
      3 O2B        19.3250   50.4930   16.9710 O.co2     1 GDP501      0.0000 
      4 O3B        19.5890   48.8070   15.2440 O.co2     1 GDP501      0.0000 
      5 O3A        17.5550   48.6830   16.7050 O.3       1 GDP501      0.0000 
      6 PA         16.0650   49.1100   17.1480 P.3       1 GDP501      0.0000 
      7 O1A        15.0130   48.8170   16.1020 O.co2     1 GDP501      0.0000 
      8 O2A        16.0210   50.5680   17.5480 O.co2     1 GDP501      0.0000 
      9 O5'        15.9060   48.1210   18.4060 O.3       1 GDP501      0.0000 
     10 C5'        14.8660   47.1560   18.4680 C.3       1 GDP501      0.0000 
     11 C4'        14.3110   47.2060   19.8800 C.3       1 GDP501      0.0000 
     12 O4'        13.8500   48.5360   20.0950 O.3       1 GDP501      0.0000 
     13 C3'        13.1140   46.2960   20.0530 C.3       1 GDP501      0.0000 
     14 O3'        13.1060   45.8000   21.3960 O.3       1 GDP501      0.0000 
     15 C2'        11.9210   47.1980   19.8190 C.3       1 GDP501      0.0000 
     16 O2'        10.8150   46.8090   20.6310 O.3       1 GDP501      0.0000 
     17 C1'        12.4310   48.5570   20.2460 C.3       1 GDP501      0.0000 
     18 N9         11.9340   49.6810   19.4250 N.pl3     1 GDP501      0.0000 
     19 C8         12.2020   49.9130   18.1280 C.2       1 GDP501      0.0000 
     20 N7         11.6100   51.0620   17.7120 N.2       1 GDP501      0.0000 
     21 C5         10.9620   51.5900   18.7680 C.2       1 GDP501      0.0000 
     22 C6         10.1390   52.7910   19.0350 C.2       1 GDP501      0.0000 
     23 O6          9.9000   53.6160   18.1280 O.2       1 GDP501      0.0000 
     24 N1          9.6590   52.9660   20.2740 N.am      1 GDP501      0.0000 
     25 C2          9.9020   52.0930   21.2680 C.2       1 GDP501      0.0000 
     26 N2          9.3820   52.3370   22.4940 N.pl3     1 GDP501      0.0000 
     27 N3         10.6480   50.9730   21.0970 N.2       1 GDP501      0.0000 
     28 C4         11.1880   50.6770   19.8930 C.2       1 GDP501      0.0000 
@<TRIPOS>BOND
     1    1    2 ar   
     2    1    3 ar   
     3    1    4 ar   
     4    1    5 1    
     5    5    6 1    
     6    6    7 ar   
     7    6    8 ar   
     8    6    9 1    
     9    9   10 1    
    10   10   11 1    
    11   11   12 1    
    12   11   13 1    
    13   12   17 1    
    14   13   14 1    
    15   13   15 1    
    16   15   16 1    
    17   15   17 1    
    18   17   18 1    
    19   18   19 1    
    20   18   28 1    
    21   19   20 2    
    22   20   21 1    
    23   21   22 1    
    24   21   28 2    
    25   22   23 2    
    26   22   24 am   
    27   24   25 1    
    28   25   26 1    
    29   25   27 2    
    30   27   28 1    
@<TRIPOS>SUBSTRUCTURE
     1 GDP501      1 GROUP   
@<TRIPOS>SET
ATOM$ORANGE STATIC     ATOMS   COLORGROUP SYSTEM 
20 10 10 11 11 13 13 15 15 17 17 19 19 21 21 22 22 25 \
25 28 28 

