#    Name: 6gf3_3_GTP_CAVITY_N1_8
#    Modification time : Fri May 22 19:25:52 2020

@<TRIPOS>MOLECULE
6gf3_3_GTP_CAVITY_N1_8
   41     0     5     0     0
SMALL
NO_CHARGES


@<TRIPOS>ATOM
      1 OG          9.5400   16.4700  -16.9600 O.3       1 SER1        0.0000 
      2 OG          8.2300   17.1500  -17.2000 O.3       1 SER1        0.0000 
      3 OG          7.5200   16.0300  -16.5100 O.3       1 SER1        0.0000 
      4 N          10.0000   13.9300  -17.3300 N.am      2 ALA2        0.0000 
      5 N           8.6900   14.6200  -17.5700 N.am      2 ALA2        0.0000 
      6 N           7.9800   13.5000  -16.8700 N.am      2 ALA2        0.0000 
      7 N           8.5800   11.7000  -15.9300 N.am      2 ALA2        0.0000 
      8 N           7.2600   12.3800  -16.1700 N.am      2 ALA2        0.0000 
      9 O           5.0100   20.3300  -18.6300 O.2       2 ALA2        0.0000 
     10 N           8.8300   15.3500  -16.2600 N.am      2 ALA2        0.0000 
     11 N           8.1200   14.2300  -15.5600 N.am      2 ALA2        0.0000 
     12 N           7.4000   13.1100  -14.8700 N.am      2 ALA2        0.0000 
     13 N           4.7800   14.4800  -15.3500 N.am      2 ALA2        0.0000 
     14 N           8.0000   11.3000  -13.9300 N.am      2 ALA2        0.0000 
     15 N           6.6900   11.9900  -14.1700 N.am      2 ALA2        0.0000 
     16 O           4.4400   19.9300  -16.6300 O.2       2 ALA2        0.0000 
     17 N           3.7200   18.8200  -15.9300 N.am      2 ALA2        0.0000 
     18 CZ          7.0400   20.7600  -19.0800 C.ar      3 PHE5        0.0000 
     19 CZ          6.3200   19.6400  -18.3900 C.ar      3 PHE5        0.0000 
     20 CZ          6.9200   17.8400  -17.4500 C.ar      3 PHE5        0.0000 
     21 CZ          5.6100   18.5200  -17.6900 C.ar      3 PHE5        0.0000 
     22 CZ          5.7500   19.2500  -16.3800 C.ar      3 PHE5        0.0000 
     23 CA          8.2100   19.3500  -20.1500 C.3       4 GLY6        0.0000 
     24 CA          7.5000   18.2300  -19.4500 C.3       4 GLY6        0.0000 
     25 CA         10.7200   15.0500  -18.0200 C.3       4 GLY6        0.0000 
     26 CA          9.4100   15.7400  -18.2700 C.3       4 GLY6        0.0000 
     27 CA          8.0900   16.4300  -18.5100 C.3       4 GLY6        0.0000 
     28 CA          6.2100   16.7200  -16.7500 C.3       4 GLY6        0.0000 
     29 CA          4.8900   17.4000  -16.9900 C.3       4 GLY6        0.0000 
     30 CA          6.8000   14.9100  -15.8100 C.3       4 GLY6        0.0000 
     31 CA          5.4900   15.6000  -16.0500 C.3       4 GLY6        0.0000 
     32 CA          4.1800   16.2800  -16.2900 C.3       4 GLY6        0.0000 
     33 CA          6.0900   13.7900  -15.1100 C.3       4 GLY6        0.0000 
     34 CA          5.0300   18.1300  -15.6800 C.3       4 GLY6        0.0000 
     35 CA          4.3200   17.0100  -14.9900 C.3       4 GLY6        0.0000 
     36 CA          3.6100   15.8900  -14.2900 C.3       4 GLY6        0.0000 
     37 DU          6.9000   20.0400  -20.3900 H         5 CUB7        0.0000 
     38 DU          6.7800   17.1100  -18.7500 H         5 CUB7        0.0000 
     39 DU          7.3800   15.3100  -17.8100 H         5 CUB7        0.0000 
     40 DU          6.0700   15.9900  -18.0500 H         5 CUB7        0.0000 
     41 DU          6.6700   14.1900  -17.1100 H         5 CUB7        0.0000 
@<TRIPOS>BOND
@<TRIPOS>SUBSTRUCTURE
     1 SER1        1 GROUP   
     2 ALA2        4 GROUP   
     3 PHE5       18 GROUP   
     4 GLY6       23 GROUP   
     5 CUB7       37 GROUP   
@<TRIPOS>SET

