#    Name: 6gf3_2_GDP_CAVITY_N1_6
#    Modification time : Fri May 22 19:25:37 2020

@<TRIPOS>MOLECULE
6gf3_2_GDP_CAVITY_N1_6
    7     0     4     0     0
SMALL
NO_CHARGES


@<TRIPOS>ATOM
      1 OG          6.5200   45.6800   17.1000 O.3       1 SER1        0.0000 
      2 N           9.2300   49.4300   13.0000 N.am      2 ALA2        0.0000 
      3 N           8.7700   51.9600   13.3600 N.am      2 ALA2        0.0000 
      4 NZ          9.1200   46.5100   14.6400 N.4       3 LYS4        0.0000 
      5 CZ          8.5200   48.3100   13.7000 C.ar      4 PHE5        0.0000 
      6 CZ          8.0600   50.8400   14.0600 C.ar      4 PHE5        0.0000 
      7 CZ          6.7500   51.5300   13.8200 C.ar      4 PHE5        0.0000 
@<TRIPOS>BOND
@<TRIPOS>SUBSTRUCTURE
     1 SER1        1 GROUP   
     2 ALA2        2 GROUP   
     3 LYS4        4 GROUP   
     4 PHE5        5 GROUP   
@<TRIPOS>SET

