#    Name: 6gf3_3_GTP_CAVITY_N1_6
#    Modification time : Fri May 22 19:25:52 2020

@<TRIPOS>MOLECULE
6gf3_3_GTP_CAVITY_N1_6
    5     0     2     0     0
SMALL
NO_CHARGES


@<TRIPOS>ATOM
      1 OG          9.5400   16.4700  -16.9600 O.3       1 SER1        0.0000 
      2 OG          8.2300   17.1500  -17.2000 O.3       1 SER1        0.0000 
      3 OG          7.5200   16.0300  -16.5100 O.3       1 SER1        0.0000 
      4 N           8.8300   15.3500  -16.2600 N.am      2 ALA2        0.0000 
      5 N           8.1200   14.2300  -15.5600 N.am      2 ALA2        0.0000 
@<TRIPOS>BOND
@<TRIPOS>SUBSTRUCTURE
     1 SER1        1 GROUP   
     2 ALA2        4 GROUP   
@<TRIPOS>SET

