#    Name: 6csd_4_CPS
#    Modification time : Fri May 22 19:28:03 2020

@<TRIPOS>MOLECULE
6csd_4_CPS
   24    27     1     0     0
SMALL
NO_CHARGES


@<TRIPOS>ATOM
      1 C1         61.4230  150.0760   31.5110 C.3       1 CPS603      0.0000 
      2 C2         60.6070  148.7860   31.7070 C.3       1 CPS603      0.0000 
      3 C3         62.5920  147.3830   30.8250 C.3       1 CPS603      0.0000 
      4 C4         63.0800  146.2330   29.9480 C.3       1 CPS603      0.0000 
      5 C5         62.2890  144.9410   30.2330 C.3       1 CPS603      0.0000 
      6 C6         60.7920  145.2640   30.0070 C.3       1 CPS603      0.0000 
      7 C7         60.1220  143.8870   30.0520 C.3       1 CPS603      0.0000 
      8 C8         61.1420  142.9610   29.3710 C.3       1 CPS603      0.0000 
      9 C9         62.4670  143.7460   29.2480 C.3       1 CPS603      0.0000 
     10 C10        62.5470  144.5020   31.6880 C.3       1 CPS603      0.0000 
     11 C11        60.7980  148.3350   33.1670 C.3       1 CPS603      0.0000 
     12 C12        61.1800  150.7460   30.1590 C.3       1 CPS603      0.0000 
     13 C13        59.7150  151.0800   30.0000 C.3       1 CPS603      0.0000 
     14 C14        58.8720  149.8240   30.1130 C.3       1 CPS603      0.0000 
     15 C15        59.1060  149.0700   31.4310 C.3       1 CPS603      0.0000 
     16 C16        58.2420  147.8030   31.5080 C.3       1 CPS603      0.0000 
     17 C17        58.7510  146.6390   30.6650 C.3       1 CPS603      0.0000 
     18 C18        60.2450  146.3830   30.9070 C.3       1 CPS603      0.0000 
     19 C19        61.0840  147.6650   30.7360 C.3       1 CPS603      0.0000 
     20 C20        63.6890  142.8190   29.3930 C.3       1 CPS603      0.0000 
     21 C21        65.0200  143.5290   29.1690 C.3       1 CPS603      0.0000 
     22 O2         59.4900  151.7320   28.7470 O.3       1 CPS603      0.0000 
     23 O3         58.4780  146.8650   29.2770 O.3       1 CPS603      0.0000 
     24 O4         62.9610  146.6100   28.5740 O.3       1 CPS603      0.0000 
@<TRIPOS>BOND
     1    1    2 1    
     2    1   12 1    
     3    2   11 1    
     4    2   15 1    
     5    2   19 1    
     6    3    4 1    
     7    3   19 1    
     8    4    5 1    
     9    4   24 1    
    10    5    6 1    
    11    5    9 1    
    12    5   10 1    
    13    6    7 1    
    14    6   18 1    
    15    7    8 1    
    16    8    9 1    
    17    9   20 1    
    18   12   13 1    
    19   13   14 1    
    20   13   22 1    
    21   14   15 1    
    22   15   16 1    
    23   16   17 1    
    24   17   18 1    
    25   17   23 1    
    26   18   19 1    
    27   20   21 1    
@<TRIPOS>SUBSTRUCTURE
     1 CPS603      1 GROUP   
@<TRIPOS>SET

