#    Name: 6csd_1_PN0
#    Modification time : Fri May 22 19:27:40 2020

@<TRIPOS>MOLECULE
6csd_1_PN0
   28    30     1     0     0
SMALL
NO_CHARGES


@<TRIPOS>ATOM
      1 N1         65.3340  152.2090   76.7240 N.pl3     1 PN0602      0.0000 
      2 N3         64.7660  155.2850   77.8210 N.am      1 PN0602      0.0000 
      3 C4         63.9850  150.2860   77.4350 C.3       1 PN0602      0.0000 
      4 C5         65.7220  154.1360   74.8290 C.ar      1 PN0602      0.0000 
      5 C6         64.5760  154.0600   74.0570 C.ar      1 PN0602      0.0000 
      6 C7         64.1560  155.1700   73.3550 C.ar      1 PN0602      0.0000 
      7 C8         64.8820  156.3450   73.4260 C.ar      1 PN0602      0.0000 
      8 C10        66.4190  155.3260   74.9500 C.ar      1 PN0602      0.0000 
      9 C13        63.0180  160.6330   72.5530 C.ar      1 PN0602      0.0000 
     10 C15        63.7650  158.7360   74.3350 C.ar      1 PN0602      0.0000 
     11 C17        65.0400  152.8130   80.5640 C.3       1 PN0602      0.0000 
     12 C1         65.1870  152.0590   79.2440 C.3       1 PN0602      0.0000 
     13 C2         65.2680  152.9630   78.0000 C.3       1 PN0602      0.0000 
     14 C3         64.1560  151.3780   76.4060 C.3       1 PN0602      0.0000 
     15 S1         63.7200  150.9480   79.0990 S.3       1 PN0602      0.0000 
     16 S2         66.3690  152.6760   75.5570 S.o2      1 PN0602      0.0000 
     17 C9         65.9950  156.4350   74.2460 C.ar      1 PN0602      0.0000 
     18 O1         64.5280  157.3440   72.5300 O.3       1 PN0602      0.0000 
     19 C11        63.9570  158.5130   72.9870 C.ar      1 PN0602      0.0000 
     20 C12        63.5730  159.4670   72.0670 C.ar      1 PN0602      0.0000 
     21 N2         62.8320  160.8840   73.8510 N.ar      1 PN0602      0.0000 
     22 C14        63.2050  159.9390   74.7120 C.ar      1 PN0602      0.0000 
     23 O2         66.3490  151.6480   74.5650 O.2       1 PN0602      0.0000 
     24 O3         67.5960  153.0170   76.2040 O.2       1 PN0602      0.0000 
     25 C16        64.2260  154.0790   77.9060 C.2       1 PN0602      0.0000 
     26 O4         63.9440  156.3960   77.6640 O.3       1 PN0602      0.0000 
     27 O5         63.0110  153.8820   77.8930 O.2       1 PN0602      0.0000 
     28 C18        66.4470  151.1910   79.3000 C.3       1 PN0602      0.0000 
@<TRIPOS>BOND
     1    1   13 1    
     2    1   14 1    
     3    1   16 1    
     4    2   25 am   
     5    2   26 1    
     6    3   14 1    
     7    3   15 1    
     8    4    5 ar   
     9    4    8 ar   
    10    4   16 1    
    11    5    6 ar   
    12    6    7 ar   
    13    7   17 ar   
    14    7   18 1    
    15    8   17 ar   
    16    9   20 ar   
    17    9   21 ar   
    18   10   19 ar   
    19   10   22 ar   
    20   11   12 1    
    21   12   13 1    
    22   12   15 1    
    23   12   28 1    
    24   13   25 1    
    25   16   23 2    
    26   16   24 2    
    27   18   19 1    
    28   19   20 ar   
    29   21   22 ar   
    30   25   27 2    
@<TRIPOS>SUBSTRUCTURE
     1 PN0602      1 GROUP   
@<TRIPOS>SET

