#    Name: 6csd_4_CPS_CAVITY_N1_4
#    Modification time : Fri May 22 19:28:04 2020

@<TRIPOS>MOLECULE
6csd_4_CPS_CAVITY_N1_4
   58     0     5     0     0
SMALL
NO_CHARGES


@<TRIPOS>ATOM
      1 N          55.3200  146.5800   32.1900 N.am      1 ALA2        0.0000 
      2 O          55.4000  149.8700   31.5300 O.2       1 ALA2        0.0000 
      3 N          59.3400  151.5500   30.1500 N.am      1 ALA2        0.0000 
      4 N          55.7800  150.1500   32.9600 N.am      1 ALA2        0.0000 
      5 N          57.0900  150.7100   32.5000 N.am      1 ALA2        0.0000 
      6 NZ         57.1900  147.1500   28.4200 N.4       2 LYS4        0.0000 
      7 NZ         58.5000  147.7100   27.9700 N.4       2 LYS4        0.0000 
      8 CZ         57.8800  149.0800   27.8700 C.ar      3 PHE5        0.0000 
      9 CZ         56.3300  150.1500   29.6500 C.ar      3 PHE5        0.0000 
     10 CZ         57.6400  150.7200   29.1900 C.ar      3 PHE5        0.0000 
     11 CZ         58.2600  149.3500   29.2900 C.ar      3 PHE5        0.0000 
     12 CZ         58.9600  151.2800   28.7300 C.ar      3 PHE5        0.0000 
     13 CZ         58.0200  150.9900   30.6100 C.ar      3 PHE5        0.0000 
     14 CZ         55.0800  148.2200   33.5200 C.ar      3 PHE5        0.0000 
     15 CZ         56.7800  149.0600   34.4800 C.ar      3 PHE5        0.0000 
     16 CA         56.5700  148.5100   28.3200 C.3       4 GLY6        0.0000 
     17 CA         55.0200  149.5900   30.1100 C.3       4 GLY6        0.0000 
     18 CA         55.6400  148.2300   30.2100 C.3       4 GLY6        0.0000 
     19 CA         56.2500  146.8700   30.3100 C.3       4 GLY6        0.0000 
     20 CA         56.9500  148.7900   29.7500 C.3       4 GLY6        0.0000 
     21 CA         54.7000  147.9500   32.0900 C.3       4 GLY6        0.0000 
     22 CA         56.0200  148.5100   31.6300 C.3       4 GLY6        0.0000 
     23 CA         56.7100  150.4300   31.0700 C.3       4 GLY6        0.0000 
     24 CA         61.2700  150.7500   29.8000 C.3       4 GLY6        0.0000 
     25 CA         61.8900  149.3900   29.9000 C.3       4 GLY6        0.0000 
     26 CA         58.4000  151.2700   32.0400 C.3       4 GLY6        0.0000 
     27 CA         59.0200  149.9000   32.1400 C.3       4 GLY6        0.0000 
     28 CA         60.3400  150.4700   31.6800 C.3       4 GLY6        0.0000 
     29 CA         61.5700  147.7400   31.8800 C.3       4 GLY6        0.0000 
     30 CA         61.6500  151.0300   31.2200 C.3       4 GLY6        0.0000 
     31 CA         62.2700  149.6600   31.3200 C.3       4 GLY6        0.0000 
     32 CA         62.8800  148.3000   31.4200 C.3       4 GLY6        0.0000 
     33 CA         57.4700  150.9800   33.9200 C.3       4 GLY6        0.0000 
     34 CA         58.0900  149.6200   34.0200 C.3       4 GLY6        0.0000 
     35 CA         58.7100  148.2600   34.1200 C.3       4 GLY6        0.0000 
     36 CA         60.0200  148.8200   33.6600 C.3       4 GLY6        0.0000 
     37 CA         61.3300  149.3800   33.2000 C.3       4 GLY6        0.0000 
     38 CA         61.9500  148.0200   33.3000 C.3       4 GLY6        0.0000 
     39 CA         62.5700  146.6500   33.4000 C.3       4 GLY6        0.0000 
     40 DU         57.5700  147.4300   29.8500 H         5 CUB7        0.0000 
     41 DU         58.8800  147.9900   29.3900 H         5 CUB7        0.0000 
     42 DU         59.5000  146.6300   29.4900 H         5 CUB7        0.0000 
     43 DU         59.5700  149.9100   28.8300 H         5 CUB7        0.0000 
     44 DU         56.6300  147.1400   31.7300 H         5 CUB7        0.0000 
     45 DU         57.2500  145.7800   31.8300 H         5 CUB7        0.0000 
     46 DU         57.3300  149.0700   31.1700 H         5 CUB7        0.0000 
     47 DU         58.6400  149.6300   30.7100 H         5 CUB7        0.0000 
     48 DU         59.9600  150.1900   30.2500 H         5 CUB7        0.0000 
     49 DU         60.5700  148.8300   30.3500 H         5 CUB7        0.0000 
     50 DU         61.1900  147.4600   30.4500 H         5 CUB7        0.0000 
     51 DU         55.7000  146.8600   33.6200 H         5 CUB7        0.0000 
     52 DU         56.4000  148.7800   33.0600 H         5 CUB7        0.0000 
     53 DU         57.0100  147.4200   33.1600 H         5 CUB7        0.0000 
     54 DU         57.7100  149.3400   32.6000 H         5 CUB7        0.0000 
     55 DU         58.3300  147.9800   32.7000 H         5 CUB7        0.0000 
     56 DU         59.6400  148.5400   32.2400 H         5 CUB7        0.0000 
     57 DU         60.9500  149.1000   31.7800 H         5 CUB7        0.0000 
     58 DU         62.1900  146.3800   31.9800 H         5 CUB7        0.0000 
@<TRIPOS>BOND
@<TRIPOS>SUBSTRUCTURE
     1 ALA2        1 GROUP   
     2 LYS4        6 GROUP   
     3 PHE5        8 GROUP   
     4 GLY6       16 GROUP   
     5 CUB7       40 GROUP   
@<TRIPOS>SET

