#    Name: 6csd_3_PN0
#    Modification time : Fri May 22 19:27:56 2020

@<TRIPOS>MOLECULE
6csd_3_PN0
   28    30     1     0     0
SMALL
NO_CHARGES


@<TRIPOS>ATOM
      1 N1         52.9780  150.7780   18.9590 N.pl3     1 PN0602      0.0000 
      2 N3         53.7920  153.9200   17.9340 N.am      1 PN0602      0.0000 
      3 C4         54.2310  148.8580   18.0410 C.3       1 PN0602      0.0000 
      4 C5         52.7370  152.5670   20.9810 C.ar      1 PN0602      0.0000 
      5 C6         53.9390  152.3680   21.6380 C.ar      1 PN0602      0.0000 
      6 C7         54.4460  153.3700   22.4380 C.ar      1 PN0602      0.0000 
      7 C8         53.7480  154.5560   22.5770 C.ar      1 PN0602      0.0000 
      8 C10        52.0780  153.7830   21.0550 C.ar      1 PN0602      0.0000 
      9 C13        55.6520  158.6760   23.9970 C.ar      1 PN0602      0.0000 
     10 C15        54.8190  157.0950   21.9600 C.ar      1 PN0602      0.0000 
     11 C17        53.1690  151.6560   15.1750 C.3       1 PN0602      0.0000 
     12 C1         53.0510  150.8500   16.4610 C.3       1 PN0602      0.0000 
     13 C2         53.0900  151.6530   17.7670 C.3       1 PN0602      0.0000 
     14 C3         54.1140  149.8570   19.1720 C.3       1 PN0602      0.0000 
     15 S1         54.4510  149.6560   16.4290 S.3       1 PN0602      0.0000 
     16 S2         51.9700  151.2230   20.1560 S.o2      1 PN0602      0.0000 
     17 C9         52.5880  154.7810   21.8570 C.ar      1 PN0602      0.0000 
     18 O1         54.1450  155.4230   23.5780 O.3       1 PN0602      0.0000 
     19 C11        54.6860  156.6520   23.2610 C.ar      1 PN0602      0.0000 
     20 C12        55.1170  157.4430   24.3060 C.ar      1 PN0602      0.0000 
     21 N2         55.7660  159.1420   22.7530 N.ar      1 PN0602      0.0000 
     22 C14        55.3660  158.3460   21.7630 C.ar      1 PN0602      0.0000 
     23 O2         51.8840  150.1290   21.0710 O.2       1 PN0602      0.0000 
     24 O3         50.7870  151.7260   19.5330 O.2       1 PN0602      0.0000 
     25 C16        54.2130  152.6690   17.8900 C.2       1 PN0602      0.0000 
     26 O4         54.6510  154.9150   18.3900 O.3       1 PN0602      0.0000 
     27 O5         55.3980  152.3560   17.9510 O.2       1 PN0602      0.0000 
     28 C18        51.7660  150.0290   16.4480 C.3       1 PN0602      0.0000 
@<TRIPOS>BOND
     1    1   13 1    
     2    1   14 1    
     3    1   16 1    
     4    2   25 am   
     5    2   26 1    
     6    3   14 1    
     7    3   15 1    
     8    4    5 ar   
     9    4    8 ar   
    10    4   16 1    
    11    5    6 ar   
    12    6    7 ar   
    13    7   17 ar   
    14    7   18 1    
    15    8   17 ar   
    16    9   20 ar   
    17    9   21 ar   
    18   10   19 ar   
    19   10   22 ar   
    20   11   12 1    
    21   12   13 1    
    22   12   15 1    
    23   12   28 1    
    24   13   25 1    
    25   16   23 2    
    26   16   24 2    
    27   18   19 1    
    28   19   20 ar   
    29   21   22 ar   
    30   25   27 2    
@<TRIPOS>SUBSTRUCTURE
     1 PN0602      1 GROUP   
@<TRIPOS>SET

