#    Name: 6csd_2_CPS
#    Modification time : Fri May 22 19:27:49 2020

@<TRIPOS>MOLECULE
6csd_2_CPS
   24    27     1     0     0
SMALL
NO_CHARGES


@<TRIPOS>ATOM
      1 C1         57.3990  152.5350   63.8170 C.3       1 CPS603      0.0000 
      2 C2         58.1160  151.1910   63.6390 C.3       1 CPS603      0.0000 
      3 C3         56.0610  150.0940   64.7170 C.3       1 CPS603      0.0000 
      4 C4         55.5180  148.9350   65.5380 C.3       1 CPS603      0.0000 
      5 C5         56.0620  147.6110   64.9860 C.3       1 CPS603      0.0000 
      6 C6         57.5980  147.6520   65.1540 C.3       1 CPS603      0.0000 
      7 C7         58.0300  146.2030   64.8870 C.3       1 CPS603      0.0000 
      8 C8         56.8380  145.3360   65.3280 C.3       1 CPS603      0.0000 
      9 C9         55.7160  146.3000   65.7490 C.3       1 CPS603      0.0000 
     10 C10        55.6930  147.4990   63.4970 C.3       1 CPS603      0.0000 
     11 C11        57.9250  150.7200   62.1830 C.3       1 CPS603      0.0000 
     12 C12        57.5930  153.1210   65.2130 C.3       1 CPS603      0.0000 
     13 C13        59.0600  153.3370   65.5070 C.3       1 CPS603      0.0000 
     14 C14        59.8530  152.0530   65.3230 C.3       1 CPS603      0.0000 
     15 C15        59.6200  151.3710   63.9640 C.3       1 CPS603      0.0000 
     16 C16        60.4120  150.0520   63.8550 C.3       1 CPS603      0.0000 
     17 C17        59.7890  148.8570   64.5860 C.3       1 CPS603      0.0000 
     18 C18        58.2710  148.7860   64.3600 C.3       1 CPS603      0.0000 
     19 C19        57.5950  150.1470   64.6280 C.3       1 CPS603      0.0000 
     20 C20        54.3310  145.6610   65.5200 C.3       1 CPS603      0.0000 
     21 C21        53.6800  145.1410   66.7960 C.3       1 CPS603      0.0000 
     22 O2         59.1740  153.7950   66.8560 O.3       1 CPS603      0.0000 
     23 O3         60.1100  148.8880   65.9800 O.3       1 CPS603      0.0000 
     24 O4         55.9200  149.1140   66.9030 O.3       1 CPS603      0.0000 
@<TRIPOS>BOND
     1    1    2 1    
     2    1   12 1    
     3    2   11 1    
     4    2   15 1    
     5    2   19 1    
     6    3    4 1    
     7    3   19 1    
     8    4    5 1    
     9    4   24 1    
    10    5    6 1    
    11    5    9 1    
    12    5   10 1    
    13    6    7 1    
    14    6   18 1    
    15    7    8 1    
    16    8    9 1    
    17    9   20 1    
    18   12   13 1    
    19   13   14 1    
    20   13   22 1    
    21   14   15 1    
    22   15   16 1    
    23   16   17 1    
    24   17   18 1    
    25   17   23 1    
    26   18   19 1    
    27   20   21 1    
@<TRIPOS>SUBSTRUCTURE
     1 CPS603      1 GROUP   
@<TRIPOS>SET

