#    Name: 6csd_4_CPS_CAVITY_N1_8
#    Modification time : Fri May 22 19:28:04 2020

@<TRIPOS>MOLECULE
6csd_4_CPS_CAVITY_N1_8
   75     0     6     0     0
SMALL
NO_CHARGES


@<TRIPOS>ATOM
      1 OG         51.7000  146.5500   31.5900 O.3       1 SER1        0.0000 
      2 N          52.6900  145.4600   33.1100 N.am      2 ALA2        0.0000 
      3 N          54.0100  146.0200   32.6500 N.am      2 ALA2        0.0000 
      4 O          54.0900  149.3100   31.9900 O.2       2 ALA2        0.0000 
      5 N          55.3200  146.5800   32.1900 N.am      2 ALA2        0.0000 
      6 O          55.4000  149.8700   31.5300 O.2       2 ALA2        0.0000 
      7 N          59.3400  151.5500   30.1500 N.am      2 ALA2        0.0000 
      8 N          51.1400  146.5400   34.8900 N.am      2 ALA2        0.0000 
      9 N          52.4600  147.1000   34.4400 N.am      2 ALA2        0.0000 
     10 N          55.7800  150.1500   32.9600 N.am      2 ALA2        0.0000 
     11 N          56.4700  152.0700   32.4000 N.am      2 ALA2        0.0000 
     12 N          57.0900  150.7100   32.5000 N.am      2 ALA2        0.0000 
     13 N          52.8400  147.3800   35.8600 N.am      2 ALA2        0.0000 
     14 N          54.7700  146.5700   35.5000 N.am      2 ALA2        0.0000 
     15 NZ         57.1900  147.1500   28.4200 N.4       3 LYS4        0.0000 
     16 NZ         58.5000  147.7100   27.9700 N.4       3 LYS4        0.0000 
     17 CZ         57.8800  149.0800   27.8700 C.ar      4 PHE5        0.0000 
     18 CZ         56.3300  150.1500   29.6500 C.ar      4 PHE5        0.0000 
     19 CZ         57.6400  150.7200   29.1900 C.ar      4 PHE5        0.0000 
     20 CZ         58.2600  149.3500   29.2900 C.ar      4 PHE5        0.0000 
     21 CZ         58.9600  151.2800   28.7300 C.ar      4 PHE5        0.0000 
     22 CZ         58.0200  150.9900   30.6100 C.ar      4 PHE5        0.0000 
     23 CZ         55.0800  148.2200   33.5200 C.ar      4 PHE5        0.0000 
     24 CZ         55.4600  148.5000   34.9400 C.ar      4 PHE5        0.0000 
     25 CZ         56.7800  149.0600   34.4800 C.ar      4 PHE5        0.0000 
     26 CA         56.5700  148.5100   28.3200 C.3       5 GLY6        0.0000 
     27 CA         55.0200  149.5900   30.1100 C.3       5 GLY6        0.0000 
     28 CA         55.6400  148.2300   30.2100 C.3       5 GLY6        0.0000 
     29 CA         56.2500  146.8700   30.3100 C.3       5 GLY6        0.0000 
     30 CA         56.9500  148.7900   29.7500 C.3       5 GLY6        0.0000 
     31 CA         52.7700  148.7500   32.4500 C.3       5 GLY6        0.0000 
     32 CA         53.3900  147.3800   32.5500 C.3       5 GLY6        0.0000 
     33 CA         54.7000  147.9500   32.0900 C.3       5 GLY6        0.0000 
     34 CA         56.0200  148.5100   31.6300 C.3       5 GLY6        0.0000 
     35 CA         56.7100  150.4300   31.0700 C.3       5 GLY6        0.0000 
     36 CA         61.2700  150.7500   29.8000 C.3       5 GLY6        0.0000 
     37 CA         61.8900  149.3900   29.9000 C.3       5 GLY6        0.0000 
     38 CA         53.1500  149.0200   33.8800 C.3       5 GLY6        0.0000 
     39 CA         54.4700  149.5900   33.4200 C.3       5 GLY6        0.0000 
     40 CA         58.4000  151.2700   32.0400 C.3       5 GLY6        0.0000 
     41 CA         59.0200  149.9000   32.1400 C.3       5 GLY6        0.0000 
     42 CA         60.3400  150.4700   31.6800 C.3       5 GLY6        0.0000 
     43 CA         61.5700  147.7400   31.8800 C.3       5 GLY6        0.0000 
     44 CA         61.6500  151.0300   31.2200 C.3       5 GLY6        0.0000 
     45 CA         62.2700  149.6600   31.3200 C.3       5 GLY6        0.0000 
     46 CA         62.8800  148.3000   31.4200 C.3       5 GLY6        0.0000 
     47 CA         57.4700  150.9800   33.9200 C.3       5 GLY6        0.0000 
     48 CA         58.0900  149.6200   34.0200 C.3       5 GLY6        0.0000 
     49 CA         58.7100  148.2600   34.1200 C.3       5 GLY6        0.0000 
     50 CA         60.0200  148.8200   33.6600 C.3       5 GLY6        0.0000 
     51 CA         61.3300  149.3800   33.2000 C.3       5 GLY6        0.0000 
     52 CA         61.9500  148.0200   33.3000 C.3       5 GLY6        0.0000 
     53 CA         62.5700  146.6500   33.4000 C.3       5 GLY6        0.0000 
     54 DU         57.5700  147.4300   29.8500 H         6 CUB7        0.0000 
     55 DU         58.8800  147.9900   29.3900 H         6 CUB7        0.0000 
     56 DU         59.5000  146.6300   29.4900 H         6 CUB7        0.0000 
     57 DU         59.5700  149.9100   28.8300 H         6 CUB7        0.0000 
     58 DU         52.0800  146.8200   33.0100 H         6 CUB7        0.0000 
     59 DU         56.6300  147.1400   31.7300 H         6 CUB7        0.0000 
     60 DU         57.2500  145.7800   31.8300 H         6 CUB7        0.0000 
     61 DU         57.3300  149.0700   31.1700 H         6 CUB7        0.0000 
     62 DU         58.6400  149.6300   30.7100 H         6 CUB7        0.0000 
     63 DU         59.9600  150.1900   30.2500 H         6 CUB7        0.0000 
     64 DU         60.5700  148.8300   30.3500 H         6 CUB7        0.0000 
     65 DU         61.1900  147.4600   30.4500 H         6 CUB7        0.0000 
     66 DU         53.7700  147.6600   33.9800 H         6 CUB7        0.0000 
     67 DU         54.3900  146.3000   34.0800 H         6 CUB7        0.0000 
     68 DU         55.7000  146.8600   33.6200 H         6 CUB7        0.0000 
     69 DU         56.4000  148.7800   33.0600 H         6 CUB7        0.0000 
     70 DU         57.0100  147.4200   33.1600 H         6 CUB7        0.0000 
     71 DU         57.7100  149.3400   32.6000 H         6 CUB7        0.0000 
     72 DU         58.3300  147.9800   32.7000 H         6 CUB7        0.0000 
     73 DU         59.6400  148.5400   32.2400 H         6 CUB7        0.0000 
     74 DU         60.9500  149.1000   31.7800 H         6 CUB7        0.0000 
     75 DU         62.1900  146.3800   31.9800 H         6 CUB7        0.0000 
@<TRIPOS>BOND
@<TRIPOS>SUBSTRUCTURE
     1 SER1        1 GROUP   
     2 ALA2        2 GROUP   
     3 LYS4       15 GROUP   
     4 PHE5       17 GROUP   
     5 GLY6       26 GROUP   
     6 CUB7       54 GROUP   
@<TRIPOS>SET

