#    Name: 6n9l_1_ADP_CAVITY_N1_4
#    Modification time : Fri May 22 19:36:16 2020

@<TRIPOS>MOLECULE
6n9l_1_ADP_CAVITY_N1_4
   57     0     6     0     0
SMALL
NO_CHARGES


@<TRIPOS>ATOM
      1 OG         32.7800   -0.7900   14.8800 O.3       1 SER1        0.0000 
      2 OG         32.4900    4.7800   14.3400 O.3       1 SER1        0.0000 
      3 OG         32.5700    2.8600   15.2200 O.3       1 SER1        0.0000 
      4 OG         31.6300    4.0300   15.3100 O.3       1 SER1        0.0000 
      5 OG         31.7100    2.1000   16.1900 O.3       1 SER1        0.0000 
      6 OG         31.5000    5.7500   16.5400 O.3       1 SER1        0.0000 
      7 OG         28.8600    5.4100   18.5700 O.3       1 SER1        0.0000 
      8 OG         27.9200    6.5700   18.6600 O.3       1 SER1        0.0000 
      9 OG         28.9400    3.4800   19.4600 O.3       1 SER1        0.0000 
     10 N          30.8800    3.6700   12.0600 N.am      2 ALA2        0.0000 
     11 N          31.8900    0.5800   12.8500 N.am      2 ALA2        0.0000 
     12 N          31.6800    4.2300   13.2000 N.am      2 ALA2        0.0000 
     13 N          30.7500    5.4000   13.2900 N.am      2 ALA2        0.0000 
     14 O          31.8400    0.3700   14.9700 O.2       2 ALA2        0.0000 
     15 N          30.9100    1.5400   15.0600 N.am      2 ALA2        0.0000 
     16 N          31.5500    5.9500   14.4300 N.am      2 ALA2        0.0000 
     17 O          30.8600    1.3400   17.1700 O.2       2 ALA2        0.0000 
     18 O          28.0500    4.8500   17.4400 O.2       2 ALA2        0.0000 
     19 O          27.1200    6.0200   17.5300 O.2       2 ALA2        0.0000 
     20 O          30.5600    6.9200   16.6300 O.2       2 ALA2        0.0000 
     21 O          29.7100    6.1600   17.6000 O.2       2 ALA2        0.0000 
     22 O          28.7800    7.3300   17.6900 O.2       2 ALA2        0.0000 
     23 NZ         28.1800    3.1300   16.2100 N.4       3 LYS4        0.0000 
     24 NZ         28.1300    2.9200   18.3200 N.4       3 LYS4        0.0000 
     25 NZ         27.2000    4.0900   18.4100 N.4       3 LYS4        0.0000 
     26 NZ         27.2800    2.1700   19.2900 N.4       3 LYS4        0.0000 
     27 CZ         30.0200    2.9200   13.0300 C.ar      4 PHE5        0.0000 
     28 CZ         34.5700   -1.2100   13.8100 C.ar      4 PHE5        0.0000 
     29 CZ         33.6300   -0.0400   13.9000 C.ar      4 PHE5        0.0000 
     30 CZ         32.7000    1.1300   13.9900 C.ar      4 PHE5        0.0000 
     31 CZ         31.7600    2.3000   14.0800 C.ar      4 PHE5        0.0000 
     32 CZ         29.0400    3.8800   15.2400 C.ar      4 PHE5        0.0000 
     33 CZ         27.2500    4.3000   16.3000 C.ar      4 PHE5        0.0000 
     34 CZ         32.6500    0.9300   16.1000 C.ar      4 PHE5        0.0000 
     35 CA         33.6800    0.1700   11.7900 C.3       5 GLY6        0.0000 
     36 CA         32.7500    1.3400   11.8800 C.3       5 GLY6        0.0000 
     37 CA         32.8300   -0.5900   12.7600 C.3       5 GLY6        0.0000 
     38 CA         33.5500    1.8900   13.0200 C.3       5 GLY6        0.0000 
     39 CA         32.6200    3.0600   13.1100 C.3       5 GLY6        0.0000 
     40 CA         29.8900    4.6400   14.2600 C.3       5 GLY6        0.0000 
     41 CA         30.7000    5.2000   15.4000 C.3       5 GLY6        0.0000 
     42 CA         29.7600    6.3700   15.4900 C.3       5 GLY6        0.0000 
     43 CA         28.9100    5.6100   16.4600 C.3       5 GLY6        0.0000 
     44 CA         30.6500    4.9900   17.5100 C.3       5 GLY6        0.0000 
     45 CA         29.7900    4.2400   18.4800 C.3       5 GLY6        0.0000 
     46 DU         30.9600    1.7500   12.9400 H         6 CUB7        0.0000 
     47 DU         30.8300    3.4700   14.1700 H         6 CUB7        0.0000 
     48 DU         29.9700    2.7100   15.1500 H         6 CUB7        0.0000 
     49 DU         30.7800    3.2700   16.2800 H         6 CUB7        0.0000 
     50 DU         29.8400    4.4400   16.3700 H         6 CUB7        0.0000 
     51 DU         29.9200    2.5100   17.2600 H         6 CUB7        0.0000 
     52 DU         28.9900    3.6800   17.3500 H         6 CUB7        0.0000 
     53 DU         26.2600    5.2600   18.5000 H         6 CUB7        0.0000 
     54 DU         29.8700    2.3100   19.3700 H         6 CUB7        0.0000 
     55 DU         28.0800    2.7200   20.4300 H         6 CUB7        0.0000 
     56 DU         27.1500    3.8900   20.5200 H         6 CUB7        0.0000 
     57 DU         26.2100    5.0600   20.6100 H         6 CUB7        0.0000 
@<TRIPOS>BOND
@<TRIPOS>SUBSTRUCTURE
     1 SER1        1 GROUP   
     2 ALA2       10 GROUP   
     3 LYS4       23 GROUP   
     4 PHE5       27 GROUP   
     5 GLY6       35 GROUP   
     6 CUB7       46 GROUP   
@<TRIPOS>SET

