#    Name: 6n9l_1_ADP
#    Modification time : Fri May 22 19:36:15 2020

@<TRIPOS>MOLECULE
6n9l_1_ADP
   27    29     1     0     1
SMALL
NO_CHARGES


@<TRIPOS>ATOM
      1 PB         28.7440    7.4030   17.7000 P.3       1 ADP1002     0.0000 
      2 O1B        28.9380    8.7930   17.1630 O.co2     1 ADP1002     0.0000 
      3 O2B        29.4310    7.2180   19.0150 O.co2     1 ADP1002     0.0000 
      4 O3B        27.2910    6.9340   17.6120 O.co2     1 ADP1002     0.0000 
      5 PA         30.6110    5.3690   16.8270 P.3       1 ADP1002     0.0000 
      6 O1A        31.9620    5.9330   17.1680 O.co2     1 ADP1002     0.0000 
      7 O2A        30.0080    4.3670   17.7650 O.co2     1 ADP1002     0.0000 
      8 O3A        29.5330    6.5280   16.6010 O.3       1 ADP1002     0.0000 
      9 O5'        30.6950    4.7530   15.3450 O.3       1 ADP1002     0.0000 
     10 C5'        31.3690    5.4240   14.2570 C.3       1 ADP1002     0.0000 
     11 C4'        31.3950    4.4680   13.0590 C.3       1 ADP1002     0.0000 
     12 O4'        32.1730    3.3290   13.4560 O.3       1 ADP1002     0.0000 
     13 C3'        30.0050    3.9290   12.7300 C.3       1 ADP1002     0.0000 
     14 O3'        29.9210    3.7110   11.3160 O.3       1 ADP1002     0.0000 
     15 C2'        29.9240    2.5910   13.4510 C.3       1 ADP1002     0.0000 
     16 O2'        29.0400    1.6740   12.8120 O.3       1 ADP1002     0.0000 
     17 C1'        31.3800    2.1360   13.3920 C.3       1 ADP1002     0.0000 
     18 N9         31.7250    1.3250   14.5690 N.pl3     1 ADP1002     0.0000 
     19 C8         31.4400    1.6350   15.8580 C.2       1 ADP1002     0.0000 
     20 N7         31.9120    0.6590   16.6780 N.2       1 ADP1002     0.0000 
     21 C5         32.5150   -0.2660   15.9100 C.ar      1 ADP1002     0.0000 
     22 C6         33.2160   -1.5410   16.1560 C.ar      1 ADP1002     0.0000 
     23 N6         33.3550   -1.9910   17.4280 N.pl3     1 ADP1002     0.0000 
     24 N1         33.6880   -2.2070   15.0830 N.ar      1 ADP1002     0.0000 
     25 C2         33.5390   -1.7510   13.8200 C.ar      1 ADP1002     0.0000 
     26 N3         32.9100   -0.5930   13.5230 N.ar      1 ADP1002     0.0000 
     27 C4         32.3870    0.1690   14.5170 C.ar      1 ADP1002     0.0000 
@<TRIPOS>BOND
     1    1    2 ar   
     2    1    3 ar   
     3    1    4 ar   
     4    1    8 1    
     5    5    6 ar   
     6    5    7 ar   
     7    5    8 1    
     8    5    9 1    
     9    9   10 1    
    10   10   11 1    
    11   11   12 1    
    12   11   13 1    
    13   12   17 1    
    14   13   14 1    
    15   13   15 1    
    16   15   16 1    
    17   15   17 1    
    18   17   18 1    
    19   18   19 1    
    20   18   27 1    
    21   19   20 2    
    22   20   21 1    
    23   21   22 ar   
    24   21   27 ar   
    25   22   23 1    
    26   22   24 ar   
    27   24   25 ar   
    28   25   26 ar   
    29   26   27 ar   
@<TRIPOS>SUBSTRUCTURE
     1 ADP1002     1 GROUP   
@<TRIPOS>SET
ATOM$ORANGE STATIC     ATOMS   COLORGROUP SYSTEM 
20 10 10 11 11 13 13 15 15 17 17 19 19 21 21 22 22 25 \
25 27 27 

