#    Name: 5nwl_11_ATP
#    Modification time : Fri May 22 19:16:26 2020

@<TRIPOS>MOLECULE
5nwl_11_ATP
   31    33     1     0     1
SMALL
NO_CHARGES


@<TRIPOS>ATOM
      1 PG        170.8010   -1.8700  322.9720 P.3       1 ATP402      0.0000 
      2 O1G       172.0200   -2.4700  322.3140 O.co2     1 ATP402      0.0000 
      3 O2G       169.6520   -2.8360  323.1400 O.co2     1 ATP402      0.0000 
      4 O3G       171.0990   -1.0260  324.1890 O.co2     1 ATP402      0.0000 
      5 PB        168.6850   -0.7000  321.5940 P.3       1 ATP402      0.0000 
      6 O1B       168.4430   -1.2030  320.1920 O.co2     1 ATP402      0.0000 
      7 O2B       167.9350   -1.3090  322.7540 O.co2     1 ATP402      0.0000 
      8 O3B       170.2620   -0.8100  321.8870 O.3       1 ATP402      0.0000 
      9 PA        167.0240    1.4510  322.1600 P.3       1 ATP402      0.0000 
     10 O1A       165.8990    0.7900  321.4020 O.co2     1 ATP402      0.0000 
     11 O2A       167.0560    1.3680  323.6680 O.co2     1 ATP402      0.0000 
     12 O3A       168.4230    0.8870  321.6000 O.3       1 ATP402      0.0000 
     13 O5'       167.0650    3.0060  321.7490 O.3       1 ATP402      0.0000 
     14 C5'       166.0830    3.8900  322.2800 C.3       1 ATP402      0.0000 
     15 C4'       165.9970    5.1560  321.4400 C.3       1 ATP402      0.0000 
     16 O4'       164.6310    5.5600  321.3430 O.3       1 ATP402      0.0000 
     17 C3'       166.7770    6.3030  322.0610 C.3       1 ATP402      0.0000 
     18 O3'       167.8770    6.6610  321.2210 O.3       1 ATP402      0.0000 
     19 C2'       165.8060    7.4630  322.1600 C.3       1 ATP402      0.0000 
     20 O2'       166.2860    8.5710  321.3940 O.3       1 ATP402      0.0000 
     21 C1'       164.4910    6.9600  321.5840 C.3       1 ATP402      0.0000 
     22 N9        163.4020    7.1880  322.5660 N.pl3     1 ATP402      0.0000 
     23 C8        163.2680    6.5550  323.7470 C.2       1 ATP402      0.0000 
     24 N7        162.1700    6.9910  324.4150 N.2       1 ATP402      0.0000 
     25 C5        161.5800    7.9290  323.6510 C.ar      1 ATP402      0.0000 
     26 C6        160.3820    8.7940  323.7570 C.ar      1 ATP402      0.0000 
     27 N6        159.5740    8.7430  324.8440 N.pl3     1 ATP402      0.0000 
     28 N1        160.1230    9.6380  322.7330 N.ar      1 ATP402      0.0000 
     29 C2        160.9170    9.7000  321.6480 C.ar      1 ATP402      0.0000 
     30 N3        162.0180    8.9450  321.4850 N.ar      1 ATP402      0.0000 
     31 C4        162.3980    8.0570  322.4350 C.ar      1 ATP402      0.0000 
@<TRIPOS>BOND
     1    1    2 ar   
     2    1    3 ar   
     3    1    4 ar   
     4    1    8 1    
     5    5    6 ar   
     6    5    7 ar   
     7    5    8 1    
     8    5   12 1    
     9    9   10 ar   
    10    9   11 ar   
    11    9   12 1    
    12    9   13 1    
    13   13   14 1    
    14   14   15 1    
    15   15   16 1    
    16   15   17 1    
    17   16   21 1    
    18   17   18 1    
    19   17   19 1    
    20   19   20 1    
    21   19   21 1    
    22   21   22 1    
    23   22   23 1    
    24   22   31 1    
    25   23   24 2    
    26   24   25 1    
    27   25   26 ar   
    28   25   31 ar   
    29   26   27 1    
    30   26   28 ar   
    31   28   29 ar   
    32   29   30 ar   
    33   30   31 ar   
@<TRIPOS>SUBSTRUCTURE
     1 ATP402      1 GROUP   
@<TRIPOS>SET
ATOM$ORANGE STATIC     ATOMS   COLORGROUP SYSTEM 
20 14 14 15 15 17 17 19 19 21 21 23 23 25 25 26 26 29 \
29 31 31 

