#    Name: 5nwl_14_ATP_CAVITY_N1_4
#    Modification time : Fri May 22 19:17:05 2020

@<TRIPOS>MOLECULE
5nwl_14_ATP_CAVITY_N1_4
   67     0     5     0     0
SMALL
NO_CHARGES


@<TRIPOS>ATOM
      1 N         209.3100  -48.3400  290.7000 N.am      1 ALA2        0.0000 
      2 N         209.3100  -49.1800  291.9400 N.am      1 ALA2        0.0000 
      3 O         212.6300  -47.0900  287.9300 O.2       1 ALA2        0.0000 
      4 N         211.4100  -46.3700  288.4200 N.am      1 ALA2        0.0000 
      5 N         210.1800  -45.6500  288.9000 N.am      1 ALA2        0.0000 
      6 O         211.4000  -47.2100  289.6600 O.2       1 ALA2        0.0000 
      7 N         210.1800  -46.4900  290.1400 N.am      1 ALA2        0.0000 
      8 N         208.9600  -45.7700  290.6300 N.am      1 ALA2        0.0000 
      9 N         210.1700  -48.1700  292.6300 N.am      1 ALA2        0.0000 
     10 N         208.9500  -47.4500  293.1100 N.am      1 ALA2        0.0000 
     11 N         212.2700  -45.3500  289.1000 N.am      1 ALA2        0.0000 
     12 N         211.0500  -44.6300  289.5900 N.am      1 ALA2        0.0000 
     13 N         215.5900  -44.9400  287.5800 N.am      1 ALA2        0.0000 
     14 O         211.9200  -43.6200  290.2700 O.2       1 ALA2        0.0000 
     15 N         215.2300  -43.2100  288.7500 N.am      1 ALA2        0.0000 
     16 O         212.7900  -41.7700  289.7200 O.2       1 ALA2        0.0000 
     17 N         214.0100  -43.3300  290.4800 N.am      1 ALA2        0.0000 
     18 O         212.7800  -42.6100  290.9600 O.2       1 ALA2        0.0000 
     19 N         214.0100  -44.1700  291.7200 N.am      1 ALA2        0.0000 
     20 N         212.7800  -43.4500  292.2000 N.am      1 ALA2        0.0000 
     21 O         216.1000  -41.3500  288.1900 O.2       1 ALA2        0.0000 
     22 N         216.1000  -42.1900  289.4400 N.am      1 ALA2        0.0000 
     23 N         214.8800  -41.4700  289.9200 N.am      1 ALA2        0.0000 
     24 O         213.6500  -40.7500  290.4000 O.2       1 ALA2        0.0000 
     25 N         213.6500  -41.5900  291.6500 N.am      1 ALA2        0.0000 
     26 N         215.7500  -40.4600  290.6100 N.am      1 ALA2        0.0000 
     27 OD1       214.7300  -44.2700  284.4100 O.co2     2 ASP3        0.0000 
     28 OD1       214.7200  -45.9500  286.8900 O.co2     2 ASP3        0.0000 
     29 OD1       211.0400  -46.3100  292.0700 O.co2     2 ASP3        0.0000 
     30 OD1       209.8200  -45.5900  292.5600 O.co2     2 ASP3        0.0000 
     31 OD1       211.0400  -47.1500  293.3200 O.co2     2 ASP3        0.0000 
     32 OD1       215.5900  -44.1000  286.3400 O.co2     2 ASP3        0.0000 
     33 OD1       211.9100  -45.3000  292.7600 O.co2     2 ASP3        0.0000 
     34 OD1       212.7800  -44.2900  293.4500 O.co2     2 ASP3        0.0000 
     35 NZ        211.5600  -42.7300  292.6900 N.4       3 LYS4        0.0000 
     36 CA        208.0900  -47.6200  291.1800 C.3       4 GLY6        0.0000 
     37 CA        210.5300  -49.9000  291.4600 C.3       4 GLY6        0.0000 
     38 CA        208.0800  -48.4600  292.4300 C.3       4 GLY6        0.0000 
     39 CA        209.3000  -50.0200  293.1900 C.3       4 GLY6        0.0000 
     40 CA        211.4000  -48.0500  290.9000 C.3       4 GLY6        0.0000 
     41 CA        208.9500  -46.6100  291.8700 C.3       4 GLY6        0.0000 
     42 CA        207.7300  -45.8900  292.3500 C.3       4 GLY6        0.0000 
     43 CA        211.4000  -48.8900  292.1500 C.3       4 GLY6        0.0000 
     44 CA        213.5000  -44.3900  286.1300 C.3       4 GLY6        0.0000 
     45 CA        213.5000  -45.2300  287.3800 C.3       4 GLY6        0.0000 
     46 CA        212.2800  -44.5100  287.8600 C.3       4 GLY6        0.0000 
     47 CA        213.5000  -46.0700  288.6200 C.3       4 GLY6        0.0000 
     48 CA        213.4900  -46.9100  289.8600 C.3       4 GLY6        0.0000 
     49 CA        212.2700  -46.1900  290.3500 C.3       4 GLY6        0.0000 
     50 CA        209.8200  -44.7500  291.3100 C.3       4 GLY6        0.0000 
     51 CA        212.2700  -47.0300  291.5900 C.3       4 GLY6        0.0000 
     52 CA        214.3700  -43.3800  286.8200 C.3       4 GLY6        0.0000 
     53 CA        214.3700  -44.2200  288.0600 C.3       4 GLY6        0.0000 
     54 CA        213.1400  -43.5000  288.5500 C.3       4 GLY6        0.0000 
     55 CA        214.3600  -45.0600  289.3100 C.3       4 GLY6        0.0000 
     56 CA        213.1400  -44.3400  289.7900 C.3       4 GLY6        0.0000 
     57 CA        213.1400  -45.1800  291.0300 C.3       4 GLY6        0.0000 
     58 CA        210.6900  -43.7400  292.0000 C.3       4 GLY6        0.0000 
     59 CA        215.2400  -41.5300  286.2600 C.3       4 GLY6        0.0000 
     60 CA        215.2400  -42.3700  287.5100 C.3       4 GLY6        0.0000 
     61 CA        214.0100  -42.4900  289.2300 C.3       4 GLY6        0.0000 
     62 CA        212.4300  -40.8700  292.1300 C.3       4 GLY6        0.0000 
     63 CA        213.6500  -42.4300  292.8900 C.3       4 GLY6        0.0000 
     64 CA        212.4200  -41.7100  293.3700 C.3       4 GLY6        0.0000 
     65 DU        210.1800  -47.3300  291.3900 H         5 CUB7        0.0000 
     66 DU        211.0500  -45.4700  290.8300 H         5 CUB7        0.0000 
     67 DU        211.9100  -44.4600  291.5200 H         5 CUB7        0.0000 
@<TRIPOS>BOND
@<TRIPOS>SUBSTRUCTURE
     1 ALA2        1 GROUP   
     2 ASP3       27 GROUP   
     3 LYS4       35 GROUP   
     4 GLY6       36 GROUP   
     5 CUB7       65 GROUP   
@<TRIPOS>SET

