#    Name: 5nwl_10_ATP
#    Modification time : Fri May 22 19:16:13 2020

@<TRIPOS>MOLECULE
5nwl_10_ATP
   31    33     1     0     1
SMALL
NO_CHARGES


@<TRIPOS>ATOM
      1 PG        187.6590   15.1710  334.7550 P.3       1 ATP402      0.0000 
      2 O1G       187.8540   14.5140  333.4100 O.co2     1 ATP402      0.0000 
      3 O2G       186.9410   14.3080  335.7660 O.co2     1 ATP402      0.0000 
      4 O3G       188.8810   15.8830  335.2850 O.co2     1 ATP402      0.0000 
      5 PB        185.3600   16.5800  335.4390 P.3       1 ATP402      0.0000 
      6 O1B       184.1050   16.2870  334.6530 O.co2     1 ATP402      0.0000 
      7 O2B       185.6240   15.8520  336.7350 O.co2     1 ATP402      0.0000 
      8 O3B       186.6140   16.3580  334.4560 O.3       1 ATP402      0.0000 
      9 PA        185.1410   18.6910  337.2240 P.3       1 ATP402      0.0000 
     10 O1A       183.8780   18.0510  337.7490 O.co2     1 ATP402      0.0000 
     11 O2A       186.4260   18.5450  338.0030 O.co2     1 ATP402      0.0000 
     12 O3A       185.4020   18.1610  335.7280 O.3       1 ATP402      0.0000 
     13 O5'       184.8600   20.2630  337.0230 O.3       1 ATP402      0.0000 
     14 C5'       184.8080   21.1030  338.1720 C.3       1 ATP402      0.0000 
     15 C4'       184.1060   22.4160  337.8530 C.3       1 ATP402      0.0000 
     16 O4'       183.2170   22.7310  338.9250 O.3       1 ATP402      0.0000 
     17 C3'       185.0920   23.5650  337.7130 C.3       1 ATP402      0.0000 
     18 O3'       185.0760   24.0670  336.3740 O.3       1 ATP402      0.0000 
     19 C2'       184.6250   24.6380  338.6760 C.3       1 ATP402      0.0000 
     20 O2'       184.2850   25.8290  337.9600 O.3       1 ATP402      0.0000 
     21 C1'       183.3960   24.0750  339.3720 C.3       1 ATP402      0.0000 
     22 N9        183.6240   24.0720  340.8370 N.pl3     1 ATP402      0.0000 
     23 C8        184.5860   23.3760  341.4720 C.2       1 ATP402      0.0000 
     24 N7        184.5390   23.5840  342.8120 N.2       1 ATP402      0.0000 
     25 C5        183.5250   24.4350  343.0500 C.ar      1 ATP402      0.0000 
     26 C6        182.9270   25.0710  344.2470 C.ar      1 ATP402      0.0000 
     27 N6        183.4230   24.8290  345.4840 N.pl3     1 ATP402      0.0000 
     28 N1        181.8750   25.8990  344.0610 N.ar      1 ATP402      0.0000 
     29 C2        181.3780   26.1460  342.8340 C.ar      1 ATP402      0.0000 
     30 N3        181.8710   25.6040  341.7060 N.ar      1 ATP402      0.0000 
     31 C4        182.9270   24.7570  341.7460 C.ar      1 ATP402      0.0000 
@<TRIPOS>BOND
     1    1    2 ar   
     2    1    3 ar   
     3    1    4 ar   
     4    1    8 1    
     5    5    6 ar   
     6    5    7 ar   
     7    5    8 1    
     8    5   12 1    
     9    9   10 ar   
    10    9   11 ar   
    11    9   12 1    
    12    9   13 1    
    13   13   14 1    
    14   14   15 1    
    15   15   16 1    
    16   15   17 1    
    17   16   21 1    
    18   17   18 1    
    19   17   19 1    
    20   19   20 1    
    21   19   21 1    
    22   21   22 1    
    23   22   23 1    
    24   22   31 1    
    25   23   24 2    
    26   24   25 1    
    27   25   26 ar   
    28   25   31 ar   
    29   26   27 1    
    30   26   28 ar   
    31   28   29 ar   
    32   29   30 ar   
    33   30   31 ar   
@<TRIPOS>SUBSTRUCTURE
     1 ATP402      1 GROUP   
@<TRIPOS>SET
ATOM$ORANGE STATIC     ATOMS   COLORGROUP SYSTEM 
20 14 14 15 15 17 17 19 19 21 21 23 23 25 25 26 26 29 \
29 31 31 

