#    Name: 5nwl_13_ATP
#    Modification time : Fri May 22 19:16:50 2020

@<TRIPOS>MOLECULE
5nwl_13_ATP
   31    33     1     0     1
SMALL
NO_CHARGES


@<TRIPOS>ATOM
      1 PG        185.5220  -36.7460  287.9240 P.3       1 ATP402      0.0000 
      2 O1G       185.7240  -37.6900  286.7620 O.co2     1 ATP402      0.0000 
      3 O2G       185.8790  -37.3360  289.2660 O.co2     1 ATP402      0.0000 
      4 O3G       184.2170  -35.9850  287.9020 O.co2     1 ATP402      0.0000 
      5 PB        187.3990  -35.5080  286.2860 P.3       1 ATP402      0.0000 
      6 O1B       186.5780  -36.2250  285.2410 O.co2     1 ATP402      0.0000 
      7 O2B       188.8390  -35.8990  286.5150 O.co2     1 ATP402      0.0000 
      8 O3B       186.6390  -35.6110  287.6990 O.3       1 ATP402      0.0000 
      9 PA        187.1170  -33.4440  284.4550 P.3       1 ATP402      0.0000 
     10 O1A       188.1280  -34.1190  283.5600 O.co2     1 ATP402      0.0000 
     11 O2A       185.6440  -33.5850  284.1520 O.co2     1 ATP402      0.0000 
     12 O3A       187.3610  -33.9320  285.9690 O.3       1 ATP402      0.0000 
     13 O5'       187.4630  -31.8750  284.5110 O.3       1 ATP402      0.0000 
     14 C5'       187.1380  -31.0610  283.3880 C.3       1 ATP402      0.0000 
     15 C4'       187.9610  -29.7810  283.3950 C.3       1 ATP402      0.0000 
     16 O4'       188.2830  -29.4280  282.0490 O.3       1 ATP402      0.0000 
     17 C3'       187.1980  -28.6180  284.0080 C.3       1 ATP402      0.0000 
     18 O3'       187.8040  -28.2250  285.2420 O.3       1 ATP402      0.0000 
     19 C2'       187.2840  -27.4880  283.0010 C.3       1 ATP402      0.0000 
     20 O2'       187.9950  -26.3840  283.5660 O.3       1 ATP402      0.0000 
     21 C1'       188.0490  -28.0410  281.8090 C.3       1 ATP402      0.0000 
     22 N9        187.2300  -27.8870  280.5810 N.pl3     1 ATP402      0.0000 
     23 C8        186.0830  -28.5420  280.3210 C.2       1 ATP402      0.0000 
     24 N7        185.5730  -28.1800  279.1170 N.2       1 ATP402      0.0000 
     25 C5        186.4070  -27.2680  278.5850 C.ar      1 ATP402      0.0000 
     26 C6        186.4630  -26.4760  277.3340 C.ar      1 ATP402      0.0000 
     27 N6        185.4990  -26.5900  276.3890 N.pl3     1 ATP402      0.0000 
     28 N1        187.5080  -25.6340  277.1690 N.ar      1 ATP402      0.0000 
     29 C2        188.4720  -25.5110  278.1010 C.ar      1 ATP402      0.0000 
     30 N3        188.4840  -26.1980  279.2570 N.ar      1 ATP402      0.0000 
     31 C4        187.4960  -27.0760  279.5550 C.ar      1 ATP402      0.0000 
@<TRIPOS>BOND
     1    1    2 ar   
     2    1    3 ar   
     3    1    4 ar   
     4    1    8 1    
     5    5    6 ar   
     6    5    7 ar   
     7    5    8 1    
     8    5   12 1    
     9    9   10 ar   
    10    9   11 ar   
    11    9   12 1    
    12    9   13 1    
    13   13   14 1    
    14   14   15 1    
    15   15   16 1    
    16   15   17 1    
    17   16   21 1    
    18   17   18 1    
    19   17   19 1    
    20   19   20 1    
    21   19   21 1    
    22   21   22 1    
    23   22   23 1    
    24   22   31 1    
    25   23   24 2    
    26   24   25 1    
    27   25   26 ar   
    28   25   31 ar   
    29   26   27 1    
    30   26   28 ar   
    31   28   29 ar   
    32   29   30 ar   
    33   30   31 ar   
@<TRIPOS>SUBSTRUCTURE
     1 ATP402      1 GROUP   
@<TRIPOS>SET
ATOM$ORANGE STATIC     ATOMS   COLORGROUP SYSTEM 
20 14 14 15 15 17 17 19 19 21 21 23 23 25 25 26 26 29 \
29 31 31 

