#    Name: 5nwl_3_ATP
#    Modification time : Fri May 22 19:14:48 2020

@<TRIPOS>MOLECULE
5nwl_3_ATP
   31    33     1     0     1
SMALL
NO_CHARGES


@<TRIPOS>ATOM
      1 PG        155.4260   43.9910  273.2910 P.3       1 ATP402      0.0000 
      2 O1G       155.6740   44.9140  272.1220 O.co2     1 ATP402      0.0000 
      3 O2G       154.2500   43.0610  273.1180 O.co2     1 ATP402      0.0000 
      4 O3G       156.6600   43.3200  273.8430 O.co2     1 ATP402      0.0000 
      5 PB        155.8270   45.0550  275.8300 P.3       1 ATP402      0.0000 
      6 O1B       157.2090   44.5140  275.5520 O.co2     1 ATP402      0.0000 
      7 O2B       154.9950   44.4590  276.9400 O.co2     1 ATP402      0.0000 
      8 O3B       154.9600   44.9730  274.4780 O.3       1 ATP402      0.0000 
      9 PA        157.2620   47.2250  276.7950 P.3       1 ATP402      0.0000 
     10 O1A       158.3840   47.1730  275.7860 O.co2     1 ATP402      0.0000 
     11 O2A       157.4390   46.5550  278.1360 O.co2     1 ATP402      0.0000 
     12 O3A       155.9380   46.6370  276.0940 O.3       1 ATP402      0.0000 
     13 O5'       156.8990   48.7720  277.0460 O.3       1 ATP402      0.0000 
     14 C5'       157.9570   49.7040  277.2430 C.3       1 ATP402      0.0000 
     15 C4'       157.4770   50.9010  278.0510 C.3       1 ATP402      0.0000 
     16 O4'       158.4370   51.1800  279.0700 O.3       1 ATP402      0.0000 
     17 C3'       157.3350   52.1480  277.1930 C.3       1 ATP402      0.0000 
     18 O3'       155.9670   52.5600  277.1510 O.3       1 ATP402      0.0000 
     19 C2'       158.1720   53.2170  277.8660 C.3       1 ATP402      0.0000 
     20 O2'       157.3360   54.3030  278.2710 O.3       1 ATP402      0.0000 
     21 C1'       158.7900   52.5620  279.0910 C.3       1 ATP402      0.0000 
     22 N9        160.2670   52.6890  279.0340 N.pl3     1 ATP402      0.0000 
     23 C8        161.0680   52.0870  278.1350 C.2       1 ATP402      0.0000 
     24 N7        162.3700   52.4040  278.3480 N.2       1 ATP402      0.0000 
     25 C5        162.4140   53.2310  279.4080 C.ar      1 ATP402      0.0000 
     26 C6        163.4730   53.9400  280.1650 C.ar      1 ATP402      0.0000 
     27 N6        164.7770   53.8260  279.8170 N.pl3     1 ATP402      0.0000 
     28 N1        163.0910   54.7070  281.2100 N.ar      1 ATP402      0.0000 
     29 C2        161.7980   54.8310  281.5640 C.ar      1 ATP402      0.0000 
     30 N3        160.7880   54.2160  280.9230 N.ar      1 ATP402      0.0000 
     31 C4        161.0250   53.4180  279.8550 C.ar      1 ATP402      0.0000 
@<TRIPOS>BOND
     1    1    2 ar   
     2    1    3 ar   
     3    1    4 ar   
     4    1    8 1    
     5    5    6 ar   
     6    5    7 ar   
     7    5    8 1    
     8    5   12 1    
     9    9   10 ar   
    10    9   11 ar   
    11    9   12 1    
    12    9   13 1    
    13   13   14 1    
    14   14   15 1    
    15   15   16 1    
    16   15   17 1    
    17   16   21 1    
    18   17   18 1    
    19   17   19 1    
    20   19   20 1    
    21   19   21 1    
    22   21   22 1    
    23   22   23 1    
    24   22   31 1    
    25   23   24 2    
    26   24   25 1    
    27   25   26 ar   
    28   25   31 ar   
    29   26   27 1    
    30   26   28 ar   
    31   28   29 ar   
    32   29   30 ar   
    33   30   31 ar   
@<TRIPOS>SUBSTRUCTURE
     1 ATP402      1 GROUP   
@<TRIPOS>SET
ATOM$ORANGE STATIC     ATOMS   COLORGROUP SYSTEM 
20 14 14 15 15 17 17 19 19 21 21 23 23 25 25 26 26 29 \
29 31 31 

