#    Name: 5nwl_9_ATP
#    Modification time : Fri May 22 19:16:00 2020

@<TRIPOS>MOLECULE
5nwl_9_ATP
   31    33     1     0     1
SMALL
NO_CHARGES


@<TRIPOS>ATOM
      1 PG        207.6540   34.2130  330.0990 P.3       1 ATP402      0.0000 
      2 O1G       208.3240   35.0530  329.0380 O.co2     1 ATP402      0.0000 
      3 O2G       206.7710   33.1100  329.5720 O.co2     1 ATP402      0.0000 
      4 O3G       208.5550   33.7800  331.2290 O.co2     1 ATP402      0.0000 
      5 PB        206.5990   35.3320  332.4060 P.3       1 ATP402      0.0000 
      6 O1B       205.2900   34.7620  332.8940 O.co2     1 ATP402      0.0000 
      7 O2B       207.9040   34.7850  332.9350 O.co2     1 ATP402      0.0000 
      8 O3B       206.6110   35.2140  330.8030 O.3       1 ATP402      0.0000 
      9 PA        207.3850   37.5320  333.8920 P.3       1 ATP402      0.0000 
     10 O1A       208.8450   37.5650  333.5080 O.co2     1 ATP402      0.0000 
     11 O2A       206.9620   36.8140  335.1510 O.co2     1 ATP402      0.0000 
     12 O3A       206.5640   36.9210  332.6520 O.3       1 ATP402      0.0000 
     13 O5'       206.8650   39.0520  333.9810 O.3       1 ATP402      0.0000 
     14 C5'       207.5940   39.9700  334.7890 C.3       1 ATP402      0.0000 
     15 C4'       206.7350   41.1690  335.1610 C.3       1 ATP402      0.0000 
     16 O4'       207.0140   41.5220  336.5150 O.3       1 ATP402      0.0000 
     17 C3'       207.0380   42.3790  334.2900 C.3       1 ATP402      0.0000 
     18 O3'       205.8830   42.7350  333.5250 O.3       1 ATP402      0.0000 
     19 C2'       207.3900   43.5020  335.2440 C.3       1 ATP402      0.0000 
     20 O2'       206.4470   44.5680  335.1070 O.3       1 ATP402      0.0000 
     21 C1'       207.3030   42.9140  336.6430 C.3       1 ATP402      0.0000 
     22 N9        208.6060   43.0770  337.3330 N.pl3     1 ATP402      0.0000 
     23 C8        209.7660   42.5080  336.9560 C.2       1 ATP402      0.0000 
     24 N7        210.7780   42.8530  337.7930 N.2       1 ATP402      0.0000 
     25 C5        210.2620   43.6660  338.7330 C.ar      1 ATP402      0.0000 
     26 C6        210.7790   44.3900  339.9180 C.ar      1 ATP402      0.0000 
     27 N6        212.0840   44.3120  340.2720 N.pl3     1 ATP402      0.0000 
     28 N1        209.9030   45.1320  340.6320 N.ar      1 ATP402      0.0000 
     29 C2        208.6040   45.2190  340.2900 C.ar      1 ATP402      0.0000 
     30 N3        208.0680   44.5890  339.2300 N.ar      1 ATP402      0.0000 
     31 C4        208.8310   43.8130  338.4240 C.ar      1 ATP402      0.0000 
@<TRIPOS>BOND
     1    1    2 ar   
     2    1    3 ar   
     3    1    4 ar   
     4    1    8 1    
     5    5    6 ar   
     6    5    7 ar   
     7    5    8 1    
     8    5   12 1    
     9    9   10 ar   
    10    9   11 ar   
    11    9   12 1    
    12    9   13 1    
    13   13   14 1    
    14   14   15 1    
    15   15   16 1    
    16   15   17 1    
    17   16   21 1    
    18   17   18 1    
    19   17   19 1    
    20   19   20 1    
    21   19   21 1    
    22   21   22 1    
    23   22   23 1    
    24   22   31 1    
    25   23   24 2    
    26   24   25 1    
    27   25   26 ar   
    28   25   31 ar   
    29   26   27 1    
    30   26   28 ar   
    31   28   29 ar   
    32   29   30 ar   
    33   30   31 ar   
@<TRIPOS>SUBSTRUCTURE
     1 ATP402      1 GROUP   
@<TRIPOS>SET
ATOM$ORANGE STATIC     ATOMS   COLORGROUP SYSTEM 
20 14 14 15 15 17 17 19 19 21 21 23 23 25 25 26 26 29 \
29 31 31 

