#    Name: 5nwl_6_ATP
#    Modification time : Fri May 22 19:15:30 2020

@<TRIPOS>MOLECULE
5nwl_6_ATP
   31    33     1     0     1
SMALL
NO_CHARGES


@<TRIPOS>ATOM
      1 PG        108.9950   -7.4510  265.4790 P.3       1 ATP402      0.0000 
      2 O1G       107.8830   -8.4420  265.2310 O.co2     1 ATP402      0.0000 
      3 O2G       110.3800   -8.0340  265.3350 O.co2     1 ATP402      0.0000 
      4 O3G       108.8070   -6.5800  266.6980 O.co2     1 ATP402      0.0000 
      5 PB        107.5250   -6.3870  263.3710 P.3       1 ATP402      0.0000 
      6 O1B       107.8620   -6.8810  261.9850 O.co2     1 ATP402      0.0000 
      7 O2B       106.4220   -7.0500  264.1610 O.co2     1 ATP402      0.0000 
      8 O3B       108.8750   -6.4240  264.2450 O.3       1 ATP402      0.0000 
      9 PA        105.6700   -4.3310  263.1690 P.3       1 ATP402      0.0000 
     10 O1A       105.0100   -5.0450  262.0140 O.co2     1 ATP402      0.0000 
     11 O2A       105.0650   -4.4320  264.5490 O.co2     1 ATP402      0.0000 
     12 O3A       107.2020   -4.8140  263.2630 O.3       1 ATP402      0.0000 
     13 O5'       105.7920   -2.7720  262.7920 O.3       1 ATP402      0.0000 
     14 C5'       104.6170   -1.9650  262.8070 C.3       1 ATP402      0.0000 
     15 C4'       104.8190   -0.7020  261.9810 C.3       1 ATP402      0.0000 
     16 O4'       103.5770   -0.3360  261.3800 O.3       1 ATP402      0.0000 
     17 C3'       105.2830    0.4680  262.8340 C.3       1 ATP402      0.0000 
     18 O3'       106.6140    0.8450  262.4690 O.3       1 ATP402      0.0000 
     19 C2'       104.3230    1.6040  262.5400 C.3       1 ATP402      0.0000 
     20 O2'       105.0310    2.7120  261.9770 O.3       1 ATP402      0.0000 
     21 C1'       103.3220    1.0600  261.5330 C.3       1 ATP402      0.0000 
     22 N9        101.9420    1.2550  262.0440 N.pl3     1 ATP402      0.0000 
     23 C8        101.4170    0.6470  263.1250 C.2       1 ATP402      0.0000 
     24 N7        100.1340    1.0380  263.3320 N.2       1 ATP402      0.0000 
     25 C5         99.8200    1.9200  262.3650 C.ar      1 ATP402      0.0000 
     26 C6         98.6270    2.7170  261.9950 C.ar      1 ATP402      0.0000 
     27 N6         97.4850    2.6480  262.7220 N.pl3     1 ATP402      0.0000 
     28 N1         98.7180    3.5170  260.9100 N.ar      1 ATP402      0.0000 
     29 C2         99.8470    3.5960  260.1810 C.ar      1 ATP402      0.0000 
     30 N3        100.9660    2.9010  260.4590 N.ar      1 ATP402      0.0000 
     31 C4        101.0160    2.0620  261.5200 C.ar      1 ATP402      0.0000 
@<TRIPOS>BOND
     1    1    2 ar   
     2    1    3 ar   
     3    1    4 ar   
     4    1    8 1    
     5    5    6 ar   
     6    5    7 ar   
     7    5    8 1    
     8    5   12 1    
     9    9   10 ar   
    10    9   11 ar   
    11    9   12 1    
    12    9   13 1    
    13   13   14 1    
    14   14   15 1    
    15   15   16 1    
    16   15   17 1    
    17   16   21 1    
    18   17   18 1    
    19   17   19 1    
    20   19   20 1    
    21   19   21 1    
    22   21   22 1    
    23   22   23 1    
    24   22   31 1    
    25   23   24 2    
    26   24   25 1    
    27   25   26 ar   
    28   25   31 ar   
    29   26   27 1    
    30   26   28 ar   
    31   28   29 ar   
    32   29   30 ar   
    33   30   31 ar   
@<TRIPOS>SUBSTRUCTURE
     1 ATP402      1 GROUP   
@<TRIPOS>SET
ATOM$ORANGE STATIC     ATOMS   COLORGROUP SYSTEM 
20 14 14 15 15 17 17 19 19 21 21 23 23 25 25 26 26 29 \
29 31 31 

