#    Name: 5nwl_7_ATP
#    Modification time : Fri May 22 19:15:45 2020

@<TRIPOS>MOLECULE
5nwl_7_ATP
   31    33     1     0     1
SMALL
NO_CHARGES


@<TRIPOS>ATOM
      1 PG        118.2840  -25.4120  247.2470 P.3       1 ATP402      0.0000 
      2 O1G       117.8110  -26.4020  246.2090 O.co2     1 ATP402      0.0000 
      3 O2G       119.3260  -25.9620  248.1910 O.co2     1 ATP402      0.0000 
      4 O3G       117.1850  -24.6250  247.9200 O.co2     1 ATP402      0.0000 
      5 PB        118.9200  -24.2750  244.7880 P.3       1 ATP402      0.0000 
      6 O1B       120.2480  -24.6660  244.1890 O.co2     1 ATP402      0.0000 
      7 O2B       117.6690  -25.0330  244.4130 O.co2     1 ATP402      0.0000 
      8 O3B       119.0820  -24.3080  246.3890 O.3       1 ATP402      0.0000 
      9 PA        117.7170  -22.2930  243.2620 P.3       1 ATP402      0.0000 
     10 O1A       118.1840  -22.9880  242.0060 O.co2     1 ATP402      0.0000 
     11 O2A       116.2900  -22.4680  243.7230 O.co2     1 ATP402      0.0000 
     12 O3A       118.6850  -22.7150  244.4760 O.3       1 ATP402      0.0000 
     13 O5'       117.9920  -20.7160  243.0950 O.3       1 ATP402      0.0000 
     14 C5'       117.0700  -19.9340  242.3420 C.3       1 ATP402      0.0000 
     15 C4'       117.7380  -18.6760  241.8050 C.3       1 ATP402      0.0000 
     16 O4'       117.2840  -18.4520  240.4700 O.3       1 ATP402      0.0000 
     17 C3'       117.3870  -17.4460  242.6260 C.3       1 ATP402      0.0000 
     18 O3'       118.5510  -16.9460  243.2900 O.3       1 ATP402      0.0000 
     19 C2'       116.8660  -16.4200  241.6390 C.3       1 ATP402      0.0000 
     20 O2'       117.7510  -15.2980  241.5910 O.3       1 ATP402      0.0000 
     21 C1'       116.8410  -17.1080  240.2850 C.3       1 ATP402      0.0000 
     22 N9        115.4530  -17.1300  239.7600 N.pl3     1 ATP402      0.0000 
     23 C8        114.4350  -17.8400  240.2830 C.2       1 ATP402      0.0000 
     24 N7        113.2900  -17.6490  239.5790 N.2       1 ATP402      0.0000 
     25 C5        113.5720  -16.7960  238.5780 C.ar      1 ATP402      0.0000 
     26 C6        112.8180  -16.1720  237.4650 C.ar      1 ATP402      0.0000 
     27 N6        111.5010  -16.4310  237.2790 N.pl3     1 ATP402      0.0000 
     28 N1        113.4900  -15.3380  236.6410 N.ar      1 ATP402      0.0000 
     29 C2        114.7980  -15.0720  236.8150 C.ar      1 ATP402      0.0000 
     30 N3        115.5430  -15.6020  237.8030 N.ar      1 ATP402      0.0000 
     31 C4        114.9980  -16.4550  238.7020 C.ar      1 ATP402      0.0000 
@<TRIPOS>BOND
     1    1    2 ar   
     2    1    3 ar   
     3    1    4 ar   
     4    1    8 1    
     5    5    6 ar   
     6    5    7 ar   
     7    5    8 1    
     8    5   12 1    
     9    9   10 ar   
    10    9   11 ar   
    11    9   12 1    
    12    9   13 1    
    13   13   14 1    
    14   14   15 1    
    15   15   16 1    
    16   15   17 1    
    17   16   21 1    
    18   17   18 1    
    19   17   19 1    
    20   19   20 1    
    21   19   21 1    
    22   21   22 1    
    23   22   23 1    
    24   22   31 1    
    25   23   24 2    
    26   24   25 1    
    27   25   26 ar   
    28   25   31 ar   
    29   26   27 1    
    30   26   28 ar   
    31   28   29 ar   
    32   29   30 ar   
    33   30   31 ar   
@<TRIPOS>SUBSTRUCTURE
     1 ATP402      1 GROUP   
@<TRIPOS>SET
ATOM$ORANGE STATIC     ATOMS   COLORGROUP SYSTEM 
20 14 14 15 15 17 17 19 19 21 21 23 23 25 25 26 26 29 \
29 31 31 

