#    Name: 5nwl_4_ATP
#    Modification time : Fri May 22 19:15:02 2020

@<TRIPOS>MOLECULE
5nwl_4_ATP
   31    33     1     0     1
SMALL
NO_CHARGES


@<TRIPOS>ATOM
      1 PG        140.0770   27.4480  287.8740 P.3       1 ATP402      0.0000 
      2 O1G       139.5110   26.6450  286.7280 O.co2     1 ATP402      0.0000 
      3 O2G       140.2170   26.6650  289.1570 O.co2     1 ATP402      0.0000 
      4 O3G       141.2720   28.2980  287.5160 O.co2     1 ATP402      0.0000 
      5 PB        138.2770   28.5880  289.6670 P.3       1 ATP402      0.0000 
      6 O1B       136.8340   28.1620  289.5560 O.co2     1 ATP402      0.0000 
      7 O2B       139.2010   27.8840  290.6320 O.co2     1 ATP402      0.0000 
      8 O3B       138.9160   28.5150  288.1930 O.3       1 ATP402      0.0000 
      9 PA        138.6000   30.6580  291.4910 P.3       1 ATP402      0.0000 
     10 O1A       140.0870   30.5360  291.7280 O.co2     1 ATP402      0.0000 
     11 O2A       137.6390   29.9750  292.4330 O.co2     1 ATP402      0.0000 
     12 O3A       138.2960   30.1640  289.9910 O.3       1 ATP402      0.0000 
     13 O5'       138.2350   32.2250  291.4450 O.3       1 ATP402      0.0000 
     14 C5'       138.6470   33.0620  292.5210 C.3       1 ATP402      0.0000 
     15 C4'       137.8420   34.3540  292.5390 C.3       1 ATP402      0.0000 
     16 O4'       137.5780   34.7170  293.8950 O.3       1 ATP402      0.0000 
     17 C3'       138.5940   35.5050  291.8900 C.3       1 ATP402      0.0000 
     18 O3'       137.9200   35.9240  290.7000 O.3       1 ATP402      0.0000 
     19 C2'       138.5930   36.6290  292.9060 C.3       1 ATP402      0.0000 
     20 O2'       137.9170   37.7700  292.3710 O.3       1 ATP402      0.0000 
     21 C1'       137.8410   36.1020  294.1180 C.3       1 ATP402      0.0000 
     22 N9        138.6800   36.2570  295.3310 N.pl3     1 ATP402      0.0000 
     23 C8        139.8220   35.5890  295.5830 C.2       1 ATP402      0.0000 
     24 N7        140.3530   35.9590  296.7760 N.2       1 ATP402      0.0000 
     25 C5        139.5390   36.8880  297.3090 C.ar      1 ATP402      0.0000 
     26 C6        139.5100   37.6960  298.5510 C.ar      1 ATP402      0.0000 
     27 N6        140.4850   37.5810  299.4850 N.pl3     1 ATP402      0.0000 
     28 N1        138.4790   38.5530  298.7190 N.ar      1 ATP402      0.0000 
     29 C2        137.5050   38.6780  297.7980 C.ar      1 ATP402      0.0000 
     30 N3        137.4680   37.9780  296.6510 N.ar      1 ATP402      0.0000 
     31 C4        138.4400   37.0840  296.3510 C.ar      1 ATP402      0.0000 
@<TRIPOS>BOND
     1    1    2 ar   
     2    1    3 ar   
     3    1    4 ar   
     4    1    8 1    
     5    5    6 ar   
     6    5    7 ar   
     7    5    8 1    
     8    5   12 1    
     9    9   10 ar   
    10    9   11 ar   
    11    9   12 1    
    12    9   13 1    
    13   13   14 1    
    14   14   15 1    
    15   15   16 1    
    16   15   17 1    
    17   16   21 1    
    18   17   18 1    
    19   17   19 1    
    20   19   20 1    
    21   19   21 1    
    22   21   22 1    
    23   22   23 1    
    24   22   31 1    
    25   23   24 2    
    26   24   25 1    
    27   25   26 ar   
    28   25   31 ar   
    29   26   27 1    
    30   26   28 ar   
    31   28   29 ar   
    32   29   30 ar   
    33   30   31 ar   
@<TRIPOS>SUBSTRUCTURE
     1 ATP402      1 GROUP   
@<TRIPOS>SET
ATOM$ORANGE STATIC     ATOMS   COLORGROUP SYSTEM 
20 14 14 15 15 17 17 19 19 21 21 23 23 25 25 26 26 29 \
29 31 31 

