#    Name: 5nwl_5_ATP
#    Modification time : Fri May 22 19:15:16 2020

@<TRIPOS>MOLECULE
5nwl_5_ATP
   31    33     1     0     1
SMALL
NO_CHARGES


@<TRIPOS>ATOM
      1 PG        119.5410    9.4900  283.2630 P.3       1 ATP402      0.0000 
      2 O1G       120.3110    8.8480  282.1350 O.co2     1 ATP402      0.0000 
      3 O2G       118.5350    8.5760  283.9220 O.co2     1 ATP402      0.0000 
      4 O3G       120.3880   10.2930  284.2210 O.co2     1 ATP402      0.0000 
      5 PB        117.0700   10.7120  282.8840 P.3       1 ATP402      0.0000 
      6 O1B       116.2900   10.2850  281.6650 O.co2     1 ATP402      0.0000 
      7 O2B       116.8280   10.0360  284.2120 O.co2     1 ATP402      0.0000 
      8 O3B       118.6330   10.5950  282.5240 O.3       1 ATP402      0.0000 
      9 PA        115.9320   12.8400  284.2610 P.3       1 ATP402      0.0000 
     10 O1A       114.5880   12.1560  284.1850 O.co2     1 ATP402      0.0000 
     11 O2A       116.7290   12.7700  285.5420 O.co2     1 ATP402      0.0000 
     12 O3A       116.8630   12.2950  283.0680 O.3       1 ATP402      0.0000 
     13 O5'       115.7360   14.3920  283.8860 O.3       1 ATP402      0.0000 
     14 C5'       115.3070   15.3030  284.8930 C.3       1 ATP402      0.0000 
     15 C4'       114.7200   16.5570  284.2620 C.3       1 ATP402      0.0000 
     16 O4'       113.4910   16.8680  284.9200 O.3       1 ATP402      0.0000 
     17 C3'       115.6460   17.7530  284.4110 C.3       1 ATP402      0.0000 
     18 O3'       116.0910   18.1940  283.1250 O.3       1 ATP402      0.0000 
     19 C2'       114.8240   18.8370  285.0820 C.3       1 ATP402      0.0000 
     20 O2'       114.6920   19.9620  284.2090 O.3       1 ATP402      0.0000 
     21 C1'       113.4580   18.2280  285.3510 C.3       1 ATP402      0.0000 
     22 N9        113.1820   18.2610  286.8080 N.pl3     1 ATP402      0.0000 
     23 C8        113.8410   17.5470  287.7410 C.2       1 ATP402      0.0000 
     24 N7        113.3570   17.7970  288.9840 N.2       1 ATP402      0.0000 
     25 C5        112.3630   18.6950  288.8550 C.ar      1 ATP402      0.0000 
     26 C6        111.4280   19.3910  289.7700 C.ar      1 ATP402      0.0000 
     27 N6        111.4640   19.1690  291.1070 N.pl3     1 ATP402      0.0000 
     28 N1        110.5410   20.2530  289.2270 N.ar      1 ATP402      0.0000 
     29 C2        110.4970   20.4820  287.9010 C.ar      1 ATP402      0.0000 
     30 N3        111.3140   19.8870  287.0130 N.ar      1 ATP402      0.0000 
     31 C4        112.2530   19.0000  287.4190 C.ar      1 ATP402      0.0000 
@<TRIPOS>BOND
     1    1    2 ar   
     2    1    3 ar   
     3    1    4 ar   
     4    1    8 1    
     5    5    6 ar   
     6    5    7 ar   
     7    5    8 1    
     8    5   12 1    
     9    9   10 ar   
    10    9   11 ar   
    11    9   12 1    
    12    9   13 1    
    13   13   14 1    
    14   14   15 1    
    15   15   16 1    
    16   15   17 1    
    17   16   21 1    
    18   17   18 1    
    19   17   19 1    
    20   19   20 1    
    21   19   21 1    
    22   21   22 1    
    23   22   23 1    
    24   22   31 1    
    25   23   24 2    
    26   24   25 1    
    27   25   26 ar   
    28   25   31 ar   
    29   26   27 1    
    30   26   28 ar   
    31   28   29 ar   
    32   29   30 ar   
    33   30   31 ar   
@<TRIPOS>SUBSTRUCTURE
     1 ATP402      1 GROUP   
@<TRIPOS>SET
ATOM$ORANGE STATIC     ATOMS   COLORGROUP SYSTEM 
20 14 14 15 15 17 17 19 19 21 21 23 23 25 25 26 26 29 \
29 31 31 

