#    Name: 5nwl_14_ATP
#    Modification time : Fri May 22 19:17:03 2020

@<TRIPOS>MOLECULE
5nwl_14_ATP
   31    33     1     0     1
SMALL
NO_CHARGES


@<TRIPOS>ATOM
      1 PG        205.1610  -54.4140  292.5990 P.3       1 ATP402      0.0000 
      2 O1G       206.0530  -55.3090  291.7730 O.co2     1 ATP402      0.0000 
      3 O2G       204.4260  -55.1330  293.7040 O.co2     1 ATP402      0.0000 
      4 O3G       204.3080  -53.4560  291.8020 O.co2     1 ATP402      0.0000 
      5 PB        207.7400  -53.4220  292.9270 P.3       1 ATP402      0.0000 
      6 O1B       207.8500  -53.9760  291.5270 O.co2     1 ATP402      0.0000 
      7 O2B       208.5530  -54.0290  294.0430 O.co2     1 ATP402      0.0000 
      8 O3B       206.1950  -53.4580  293.3780 O.3       1 ATP402      0.0000 
      9 PA        209.0930  -51.2930  291.7680 P.3       1 ATP402      0.0000 
     10 O1A       208.3830  -51.2970  290.4360 O.co2     1 ATP402      0.0000 
     11 O2A       210.4070  -52.0220  291.9090 O.co2     1 ATP402      0.0000 
     12 O3A       208.0690  -51.8480  292.8790 O.3       1 ATP402      0.0000 
     13 O5'       209.3130  -49.7590  292.2030 O.3       1 ATP402      0.0000 
     14 C5'       209.8190  -48.8340  291.2450 C.3       1 ATP402      0.0000 
     15 C4'       210.4580  -47.6400  291.9380 C.3       1 ATP402      0.0000 
     16 O4'       211.7120  -47.3640  291.3130 O.3       1 ATP402      0.0000 
     17 C3'       209.5970  -46.3920  291.8270 C.3       1 ATP402      0.0000 
     18 O3'       209.1460  -45.9880  293.1230 O.3       1 ATP402      0.0000 
     19 C2'       210.4860  -45.3220  291.2260 C.3       1 ATP402      0.0000 
     20 O2'       210.6530  -44.2480  292.1560 O.3       1 ATP402      0.0000 
     21 C1'       211.8270  -45.9860  290.9560 C.3       1 ATP402      0.0000 
     22 N9        212.1470  -45.8920  289.5100 N.pl3     1 ATP402      0.0000 
     23 C8        211.4710  -46.5090  288.5230 C.2       1 ATP402      0.0000 
     24 N7        212.0080  -46.2250  287.3090 N.2       1 ATP402      0.0000 
     25 C5        213.0540  -45.4040  287.5140 C.ar      1 ATP402      0.0000 
     26 C6        214.0590  -44.7250  286.6630 C.ar      1 ATP402      0.0000 
     27 N6        214.0470  -44.8710  285.3160 N.pl3     1 ATP402      0.0000 
     28 N1        214.9840  -43.9540  287.2760 N.ar      1 ATP402      0.0000 
     29 C2        215.0030  -43.8010  288.6140 C.ar      1 ATP402      0.0000 
     30 N3        214.1240  -44.3870  289.4460 N.ar      1 ATP402      0.0000 
     31 C4        213.1410  -45.1860  288.9660 C.ar      1 ATP402      0.0000 
@<TRIPOS>BOND
     1    1    2 ar   
     2    1    3 ar   
     3    1    4 ar   
     4    1    8 1    
     5    5    6 ar   
     6    5    7 ar   
     7    5    8 1    
     8    5   12 1    
     9    9   10 ar   
    10    9   11 ar   
    11    9   12 1    
    12    9   13 1    
    13   13   14 1    
    14   14   15 1    
    15   15   16 1    
    16   15   17 1    
    17   16   21 1    
    18   17   18 1    
    19   17   19 1    
    20   19   20 1    
    21   19   21 1    
    22   21   22 1    
    23   22   23 1    
    24   22   31 1    
    25   23   24 2    
    26   24   25 1    
    27   25   26 ar   
    28   25   31 ar   
    29   26   27 1    
    30   26   28 ar   
    31   28   29 ar   
    32   29   30 ar   
    33   30   31 ar   
@<TRIPOS>SUBSTRUCTURE
     1 ATP402      1 GROUP   
@<TRIPOS>SET
ATOM$ORANGE STATIC     ATOMS   COLORGROUP SYSTEM 
20 14 14 15 15 17 17 19 19 21 21 23 23 25 25 26 26 29 \
29 31 31 

