#    Name: 5nwl_12_ATP
#    Modification time : Fri May 22 19:16:39 2020

@<TRIPOS>MOLECULE
5nwl_12_ATP
   31    33     1     0     1
SMALL
NO_CHARGES


@<TRIPOS>ATOM
      1 PG        170.2320  -19.6830  301.9970 P.3       1 ATP402      0.0000 
      2 O1G       169.3000  -20.6010  301.2420 O.co2     1 ATP402      0.0000 
      3 O2G       171.4800  -20.3600  302.5080 O.co2     1 ATP402      0.0000 
      4 O3G       169.5580  -18.7800  303.0030 O.co2     1 ATP402      0.0000 
      5 PB        170.0270  -18.5920  299.4460 P.3       1 ATP402      0.0000 
      6 O1B       170.9970  -19.0820  298.3990 O.co2     1 ATP402      0.0000 
      7 O2B       168.6660  -19.2340  299.5740 O.co2     1 ATP402      0.0000 
      8 O3B       170.7720  -18.6710  300.8690 O.3       1 ATP402      0.0000 
      9 PA        168.4460  -16.4760  298.5950 P.3       1 ATP402      0.0000 
     10 O1A       168.1940  -17.1940  297.2910 O.co2     1 ATP402      0.0000 
     11 O2A       167.3940  -16.5190  299.6770 O.co2     1 ATP402      0.0000 
     12 O3A       169.8260  -17.0110  299.2250 O.3       1 ATP402      0.0000 
     13 O5'       168.7560  -14.9300  298.2720 O.3       1 ATP402      0.0000 
     14 C5'       167.6650  -14.0320  298.0950 C.3       1 ATP402      0.0000 
     15 C4'       168.1020  -12.7880  297.3340 C.3       1 ATP402      0.0000 
     16 O4'       167.1550  -12.5310  296.2960 O.3       1 ATP402      0.0000 
     17 C3'       168.1500  -11.5610  298.2310 C.3       1 ATP402      0.0000 
     18 O3'       169.4980  -11.1020  298.3710 O.3       1 ATP402      0.0000 
     19 C2'       167.3060  -10.5060  297.5420 C.3       1 ATP402      0.0000 
     20 O2'       168.1240   -9.3990  297.1550 O.3       1 ATP402      0.0000 
     21 C1'       166.7270  -11.1690  296.3040 C.3       1 ATP402      0.0000 
     22 N9        165.2450  -11.1290  296.3660 N.pl3     1 ATP402      0.0000 
     23 C8        164.4860  -11.7760  297.2690 C.2       1 ATP402      0.0000 
     24 N7        163.1660  -11.5380  297.0630 N.2       1 ATP402      0.0000 
     25 C5        163.0670  -10.7160  296.0020 C.ar      1 ATP402      0.0000 
     26 C6        161.9630  -10.0720  295.2520 C.ar      1 ATP402      0.0000 
     27 N6        160.6700  -10.2660  295.6070 N.pl3     1 ATP402      0.0000 
     28 N1        162.2910   -9.2850  294.2040 N.ar      1 ATP402      0.0000 
     29 C2        163.5730   -9.0850  293.8430 C.ar      1 ATP402      0.0000 
     30 N3        164.6230   -9.6370  294.4770 N.ar      1 ATP402      0.0000 
     31 C4        164.4400  -10.4470  295.5470 C.ar      1 ATP402      0.0000 
@<TRIPOS>BOND
     1    1    2 ar   
     2    1    3 ar   
     3    1    4 ar   
     4    1    8 1    
     5    5    6 ar   
     6    5    7 ar   
     7    5    8 1    
     8    5   12 1    
     9    9   10 ar   
    10    9   11 ar   
    11    9   12 1    
    12    9   13 1    
    13   13   14 1    
    14   14   15 1    
    15   15   16 1    
    16   15   17 1    
    17   16   21 1    
    18   17   18 1    
    19   17   19 1    
    20   19   20 1    
    21   19   21 1    
    22   21   22 1    
    23   22   23 1    
    24   22   31 1    
    25   23   24 2    
    26   24   25 1    
    27   25   26 ar   
    28   25   31 ar   
    29   26   27 1    
    30   26   28 ar   
    31   28   29 ar   
    32   29   30 ar   
    33   30   31 ar   
@<TRIPOS>SUBSTRUCTURE
     1 ATP402      1 GROUP   
@<TRIPOS>SET
ATOM$ORANGE STATIC     ATOMS   COLORGROUP SYSTEM 
20 14 14 15 15 17 17 19 19 21 21 23 23 25 25 26 26 29 \
29 31 31 

