#    Name: 6qfb_3_COA
#    Modification time : Fri May 22 19:29:17 2020

@<TRIPOS>MOLECULE
6qfb_3_COA
   41    43     1     0     1
SMALL
NO_CHARGES


@<TRIPOS>ATOM
      1 N1A        17.2330 -170.4560  -12.3950 N.ar      1 COA1203     0.0000 
      2 C2A        17.4700 -171.7270  -12.7410 C.ar      1 COA1203     0.0000 
      3 N3A        17.6090 -172.2510  -13.9620 N.ar      1 COA1203     0.0000 
      4 C4A        17.4620 -171.3070  -14.9120 C.ar      1 COA1203     0.0000 
      5 C5A        17.2290 -169.9550  -14.7080 C.ar      1 COA1203     0.0000 
      6 C6A        17.1230 -169.5210  -13.3710 C.ar      1 COA1203     0.0000 
      7 N6A        16.9550 -168.2410  -13.0200 N.pl3     1 COA1203     0.0000 
      8 N7A        17.1040 -169.2910  -15.9200 N.2       1 COA1203     0.0000 
      9 C8A        17.2550 -170.2410  -16.8120 C.2       1 COA1203     0.0000 
     10 N9A        17.4810 -171.4820  -16.2760 N.pl3     1 COA1203     0.0000 
     11 C1B        17.7550 -172.7310  -16.9810 C.3       1 COA1203     0.0000 
     12 C2B        16.5780 -173.3190  -17.7460 C.3       1 COA1203     0.0000 
     13 O2B        15.7680 -174.0920  -16.8640 O.3       1 COA1203     0.0000 
     14 C3B        17.3110 -174.2410  -18.7260 C.3       1 COA1203     0.0000 
     15 O3B        17.5130 -175.5410  -18.1330 O.3       1 COA1203     0.0000 
     16 P3B        17.7040 -176.8710  -18.9570 P.3       1 COA1203     0.0000 
     17 O7A        18.8900 -176.6970  -19.8450 O.co2     1 COA1203     0.0000 
     18 O8A        17.9120 -178.0020  -17.9800 O.co2     1 COA1203     0.0000 
     19 O9A        16.3610 -177.0090  -19.7050 O.co2     1 COA1203     0.0000 
     20 C4B        18.7070 -173.6090  -18.8790 C.3       1 COA1203     0.0000 
     21 O4B        18.7590 -172.5150  -17.9450 O.3       1 COA1203     0.0000 
     22 C5B        19.0280 -173.1060  -20.2600 C.3       1 COA1203     0.0000 
     23 O5B        17.9780 -172.1930  -20.6660 O.3       1 COA1203     0.0000 
     24 P1A        17.2020 -172.3210  -22.0920 P.3       1 COA1203     0.0000 
     25 O1A        16.6220 -171.0230  -22.5190 O.co2     1 COA1203     0.0000 
     26 O2A        16.1810 -173.4900  -22.0430 O.co2     1 COA1203     0.0000 
     27 O3A        18.3250 -172.7820  -23.1160 O.3       1 COA1203     0.0000 
     28 P2A        19.3800 -172.0180  -24.0270 P.3       1 COA1203     0.0000 
     29 O4A        18.9860 -170.5910  -24.1690 O.co2     1 COA1203     0.0000 
     30 O5A        20.7900 -172.1460  -23.4170 O.co2     1 COA1203     0.0000 
     31 O6A        19.2600 -173.0790  -25.2610 O.3       1 COA1203     0.0000 
     32 CBP        18.8270 -173.5070  -27.6330 C.3       1 COA1203     0.0000 
     33 CCP        18.3190 -172.8620  -26.3350 C.3       1 COA1203     0.0000 
     34 CDP        18.5720 -175.0210  -27.5880 C.3       1 COA1203     0.0000 
     35 CEP        18.0090 -172.9000  -28.7870 C.3       1 COA1203     0.0000 
     36 CAP        20.3430 -173.2300  -27.8270 C.3       1 COA1203     0.0000 
     37 OAP        21.1550 -173.9300  -26.8900 O.3       1 COA1203     0.0000 
     38 C9P        20.9600 -173.4490  -29.2050 C.2       1 COA1203     0.0000 
     39 O9P        20.9430 -172.5370  -30.0330 O.2       1 COA1203     0.0000 
     40 N8P        21.5880 -174.6230  -29.4080 N.am      1 COA1203     0.0000 
     41 C7P        22.3860 -174.9160  -30.5940 C.3       1 COA1203     0.0000 
@<TRIPOS>BOND
     1    1    2 ar   
     2    1    6 ar   
     3    2    3 ar   
     4    3    4 ar   
     5    4    5 ar   
     6    4   10 1    
     7    5    6 ar   
     8    5    8 1    
     9    6    7 1    
    10    8    9 2    
    11    9   10 1    
    12   10   11 1    
    13   11   12 1    
    14   11   21 1    
    15   12   13 1    
    16   12   14 1    
    17   14   15 1    
    18   14   20 1    
    19   15   16 1    
    20   16   17 ar   
    21   16   18 ar   
    22   16   19 ar   
    23   20   21 1    
    24   20   22 1    
    25   22   23 1    
    26   23   24 1    
    27   24   25 ar   
    28   24   26 ar   
    29   24   27 1    
    30   27   28 1    
    31   28   29 ar   
    32   28   30 ar   
    33   28   31 1    
    34   31   33 1    
    35   32   33 1    
    36   32   34 1    
    37   32   35 1    
    38   32   36 1    
    39   36   37 1    
    40   36   38 1    
    41   38   39 2    
    42   38   40 am   
    43   40   41 1    
@<TRIPOS>SUBSTRUCTURE
     1 COA1203     1 GROUP   
@<TRIPOS>SET
ATOM$ORANGE STATIC     ATOMS   COLORGROUP SYSTEM 
34 2 2 4 4 5 5 6 6 9 9 11 11 12 12 14 14 20 \
20 22 22 32 32 33 33 34 34 35 35 36 36 38 38 41 41 

