#    Name: 6qfb_8_ADP
#    Modification time : Fri May 22 19:29:57 2020

@<TRIPOS>MOLECULE
6qfb_8_ADP
   27    29     1     0     1
SMALL
NO_CHARGES


@<TRIPOS>ATOM
      1 PB       -102.2450  -11.5100   96.8630 P.3       1 ADP1203     0.0000 
      2 O1B      -103.1480  -12.7780   96.6460 O.co2     1 ADP1203     0.0000 
      3 O2B      -100.8710  -11.8240   97.3220 O.co2     1 ADP1203     0.0000 
      4 O3B      -103.0000  -10.5330   97.8000 O.co2     1 ADP1203     0.0000 
      5 PA       -102.9620  -10.8630   94.1150 P.3       1 ADP1203     0.0000 
      6 O1A      -102.0180  -11.0170   92.9390 O.co2     1 ADP1203     0.0000 
      7 O2A      -103.9630  -11.9680   94.1710 O.co2     1 ADP1203     0.0000 
      8 O3A      -102.0900  -10.7980   95.4470 O.3       1 ADP1203     0.0000 
      9 O5'      -103.6090   -9.4080   93.9960 O.3       1 ADP1203     0.0000 
     10 C5'      -104.6640   -8.9770   94.8820 C.3       1 ADP1203     0.0000 
     11 C4'      -105.9240   -8.7210   94.0950 C.3       1 ADP1203     0.0000 
     12 O4'      -105.6850   -7.6490   93.1610 O.3       1 ADP1203     0.0000 
     13 C3'      -106.4390   -9.8860   93.2590 C.3       1 ADP1203     0.0000 
     14 O3'      -107.2400  -10.7660   94.0450 O.3       1 ADP1203     0.0000 
     15 C2'      -107.2070   -9.1780   92.1400 C.3       1 ADP1203     0.0000 
     16 O2'      -108.5570   -8.9430   92.5230 O.3       1 ADP1203     0.0000 
     17 C1'      -106.4270   -7.8620   91.9750 C.3       1 ADP1203     0.0000 
     18 N9       -105.5120   -7.8060   90.8350 N.pl3     1 ADP1203     0.0000 
     19 C8       -104.1840   -8.1420   90.8310 C.2       1 ADP1203     0.0000 
     20 N7       -103.5750   -7.9000   89.6950 N.2       1 ADP1203     0.0000 
     21 C5       -104.5730   -7.3680   88.8920 C.ar      1 ADP1203     0.0000 
     22 C6       -104.5750   -6.8950   87.5600 C.ar      1 ADP1203     0.0000 
     23 N6       -103.4780   -6.7900   86.8050 N.pl3     1 ADP1203     0.0000 
     24 N1       -105.7530   -6.4660   87.0470 N.ar      1 ADP1203     0.0000 
     25 C2       -106.8410   -6.4960   87.8260 C.ar      1 ADP1203     0.0000 
     26 N3       -106.9550   -6.8980   89.0960 N.ar      1 ADP1203     0.0000 
     27 C4       -105.7780   -7.3190   89.5780 C.ar      1 ADP1203     0.0000 
@<TRIPOS>BOND
     1    1    2 ar   
     2    1    3 ar   
     3    1    4 ar   
     4    1    8 1    
     5    5    6 ar   
     6    5    7 ar   
     7    5    8 1    
     8    5    9 1    
     9    9   10 1    
    10   10   11 1    
    11   11   12 1    
    12   11   13 1    
    13   12   17 1    
    14   13   14 1    
    15   13   15 1    
    16   15   16 1    
    17   15   17 1    
    18   17   18 1    
    19   18   19 1    
    20   18   27 1    
    21   19   20 2    
    22   20   21 1    
    23   21   22 ar   
    24   21   27 ar   
    25   22   23 1    
    26   22   24 ar   
    27   24   25 ar   
    28   25   26 ar   
    29   26   27 ar   
@<TRIPOS>SUBSTRUCTURE
     1 ADP1203     1 GROUP   
@<TRIPOS>SET
ATOM$ORANGE STATIC     ATOMS   COLORGROUP SYSTEM 
20 10 10 11 11 13 13 15 15 17 17 19 19 21 21 22 22 25 \
25 27 27 

