#    Name: 6qfb_2_ADP
#    Modification time : Fri May 22 19:28:47 2020

@<TRIPOS>MOLECULE
6qfb_2_ADP
   27    29     1     0     1
SMALL
NO_CHARGES


@<TRIPOS>ATOM
      1 PB         50.0540 -202.0900  -28.3940 P.3       1 ADP1203     0.0000 
      2 O1B        51.2640 -202.6020  -29.1840 O.co2     1 ADP1203     0.0000 
      3 O2B        48.8290 -203.0170  -28.7280 O.co2     1 ADP1203     0.0000 
      4 O3B        49.7240 -200.6500  -28.6330 O.co2     1 ADP1203     0.0000 
      5 PA         50.0030 -203.3900  -25.7990 P.3       1 ADP1203     0.0000 
      6 O1A        48.9620 -204.3140  -26.3440 O.co2     1 ADP1203     0.0000 
      7 O2A        49.5370 -202.7190  -24.5310 O.co2     1 ADP1203     0.0000 
      8 O3A        50.4070 -202.2610  -26.8500 O.3       1 ADP1203     0.0000 
      9 O5'        51.3930 -204.0710  -25.4180 O.3       1 ADP1203     0.0000 
     10 C5'        52.0820 -204.9230  -26.3560 C.3       1 ADP1203     0.0000 
     11 C4'        52.1500 -206.3330  -25.8240 C.3       1 ADP1203     0.0000 
     12 O4'        52.9010 -206.3380  -24.5950 O.3       1 ADP1203     0.0000 
     13 C3'        50.8180 -206.9920  -25.4780 C.3       1 ADP1203     0.0000 
     14 O3'        50.1930 -207.5550  -26.6310 O.3       1 ADP1203     0.0000 
     15 C2'        51.2160 -208.0200  -24.4140 C.3       1 ADP1203     0.0000 
     16 O2'        51.6410 -209.2500  -24.9900 O.3       1 ADP1203     0.0000 
     17 C1'        52.4010 -207.3340  -23.7240 C.3       1 ADP1203     0.0000 
     18 N9         52.0940 -206.7130  -22.4430 N.pl3     1 ADP1203     0.0000 
     19 C8         51.6730 -205.4280  -22.2150 C.2       1 ADP1203     0.0000 
     20 N7         51.5600 -205.1180  -20.9460 N.2       1 ADP1203     0.0000 
     21 C5         51.9390 -206.2820  -20.2900 C.ar      1 ADP1203     0.0000 
     22 C6         52.0570 -206.6100  -18.9190 C.ar      1 ADP1203     0.0000 
     23 N6         51.8600 -205.7380  -17.9280 N.pl3     1 ADP1203     0.0000 
     24 N1         52.4350 -207.8740  -18.6030 N.ar      1 ADP1203     0.0000 
     25 C2         52.6800 -208.7390  -19.5940 C.ar      1 ADP1203     0.0000 
     26 N3         52.6270 -208.5360  -20.9150 N.ar      1 ADP1203     0.0000 
     27 C4         52.2540 -207.2770  -21.2000 C.ar      1 ADP1203     0.0000 
@<TRIPOS>BOND
     1    1    2 ar   
     2    1    3 ar   
     3    1    4 ar   
     4    1    8 1    
     5    5    6 ar   
     6    5    7 ar   
     7    5    8 1    
     8    5    9 1    
     9    9   10 1    
    10   10   11 1    
    11   11   12 1    
    12   11   13 1    
    13   12   17 1    
    14   13   14 1    
    15   13   15 1    
    16   15   16 1    
    17   15   17 1    
    18   17   18 1    
    19   18   19 1    
    20   18   27 1    
    21   19   20 2    
    22   20   21 1    
    23   21   22 ar   
    24   21   27 ar   
    25   22   23 1    
    26   22   24 ar   
    27   24   25 ar   
    28   25   26 ar   
    29   26   27 ar   
@<TRIPOS>SUBSTRUCTURE
     1 ADP1203     1 GROUP   
@<TRIPOS>SET
ATOM$ORANGE STATIC     ATOMS   COLORGROUP SYSTEM 
20 10 10 11 11 13 13 15 15 17 17 19 19 21 21 22 22 25 \
25 27 27 

