#    Name: 6qfb_4_ADP
#    Modification time : Fri May 22 19:29:31 2020

@<TRIPOS>MOLECULE
6qfb_4_ADP
   27    29     1     0     1
SMALL
NO_CHARGES


@<TRIPOS>ATOM
      1 PB         25.8420  -87.6060   50.4160 P.3       1 ADP1204     0.0000 
      2 O1B        24.5770  -86.7140   50.2440 O.co2     1 ADP1204     0.0000 
      3 O2B        25.5180  -89.0750   50.3950 O.co2     1 ADP1204     0.0000 
      4 O3B        26.5780  -87.1260   51.6940 O.co2     1 ADP1204     0.0000 
      5 PA         26.8830  -86.0720   48.1610 P.3       1 ADP1204     0.0000 
      6 O1A        27.0380  -86.6190   46.7620 O.co2     1 ADP1204     0.0000 
      7 O2A        25.6650  -85.2260   48.2620 O.co2     1 ADP1204     0.0000 
      8 O3A        26.8150  -87.2810   49.1980 O.3       1 ADP1204     0.0000 
      9 O5'        28.2590  -85.3460   48.5040 O.3       1 ADP1204     0.0000 
     10 C5'        28.4090  -84.5480   49.6970 C.3       1 ADP1204     0.0000 
     11 C4'        28.6230  -83.0950   49.3430 C.3       1 ADP1204     0.0000 
     12 O4'        29.8790  -82.9570   48.6470 O.3       1 ADP1204     0.0000 
     13 C3'        27.5710  -82.4500   48.4390 C.3       1 ADP1204     0.0000 
     14 O3'        26.4270  -81.9600   49.1430 O.3       1 ADP1204     0.0000 
     15 C2'        28.3640  -81.3460   47.7400 C.3       1 ADP1204     0.0000 
     16 O2'        28.3490  -80.1480   48.5040 O.3       1 ADP1204     0.0000 
     17 C1'        29.7820  -81.9380   47.6710 C.3       1 ADP1204     0.0000 
     18 N9         30.1550  -82.5010   46.3760 N.pl3     1 ADP1204     0.0000 
     19 C8         29.9680  -83.7900   45.9480 C.2       1 ADP1204     0.0000 
     20 N7         30.4000  -84.0180   44.7300 N.2       1 ADP1204     0.0000 
     21 C5         30.9040  -82.7900   44.3250 C.ar      1 ADP1204     0.0000 
     22 C6         31.4780  -82.3520   43.1120 C.ar      1 ADP1204     0.0000 
     23 N6         31.5790  -83.1170   42.0190 N.pl3     1 ADP1204     0.0000 
     24 N1         31.8970  -81.0650   43.0440 N.ar      1 ADP1204     0.0000 
     25 C2         31.7150  -80.2690   44.1070 C.ar      1 ADP1204     0.0000 
     26 N3         31.1550  -80.5580   45.2870 N.ar      1 ADP1204     0.0000 
     27 C4         30.7720  -81.8480   45.3360 C.ar      1 ADP1204     0.0000 
@<TRIPOS>BOND
     1    1    2 ar   
     2    1    3 ar   
     3    1    4 ar   
     4    1    8 1    
     5    5    6 ar   
     6    5    7 ar   
     7    5    8 1    
     8    5    9 1    
     9    9   10 1    
    10   10   11 1    
    11   11   12 1    
    12   11   13 1    
    13   12   17 1    
    14   13   14 1    
    15   13   15 1    
    16   15   16 1    
    17   15   17 1    
    18   17   18 1    
    19   18   19 1    
    20   18   27 1    
    21   19   20 2    
    22   20   21 1    
    23   21   22 ar   
    24   21   27 ar   
    25   22   23 1    
    26   22   24 ar   
    27   24   25 ar   
    28   25   26 ar   
    29   26   27 ar   
@<TRIPOS>SUBSTRUCTURE
     1 ADP1204     1 GROUP   
@<TRIPOS>SET
ATOM$ORANGE STATIC     ATOMS   COLORGROUP SYSTEM 
20 10 10 11 11 13 13 15 15 17 17 19 19 21 21 22 22 25 \
25 27 27 

