#    Name: 6qfb_1_COA
#    Modification time : Fri May 22 19:28:34 2020

@<TRIPOS>MOLECULE
6qfb_1_COA
   48    50     1     0     1
SMALL
NO_CHARGES


@<TRIPOS>ATOM
      1 N1A         7.4380 -120.1350   20.1780 N.ar      1 COA1202     0.0000 
      2 C2A         7.4200 -118.8740   20.6180 C.ar      1 COA1202     0.0000 
      3 N3A         6.8980 -118.3870   21.7510 N.ar      1 COA1202     0.0000 
      4 C4A         6.3150 -119.3570   22.4690 C.ar      1 COA1202     0.0000 
      5 C5A         6.2520 -120.7000   22.1430 C.ar      1 COA1202     0.0000 
      6 C6A         6.8680 -121.0930   20.9370 C.ar      1 COA1202     0.0000 
      7 N6A         6.9440 -122.3580   20.5240 N.pl3     1 COA1202     0.0000 
      8 N7A         5.5200 -121.4020   23.0890 N.2       1 COA1202     0.0000 
      9 C8A         5.1630 -120.4820   23.9520 C.2       1 COA1202     0.0000 
     10 N9A         5.6130 -119.2240   23.6460 N.pl3     1 COA1202     0.0000 
     11 C1B         5.4270 -118.0080   24.4280 C.3       1 COA1202     0.0000 
     12 C2B         3.9950 -117.5030   24.4940 C.3       1 COA1202     0.0000 
     13 O2B         3.6760 -116.7490   23.3310 O.3       1 COA1202     0.0000 
     14 C3B         4.0750 -116.6010   25.7280 C.3       1 COA1202     0.0000 
     15 O3B         4.5010 -115.2800   25.3360 O.3       1 COA1202     0.0000 
     16 P3B         4.1590 -113.9680   26.1460 P.3       1 COA1202     0.0000 
     17 O7A         4.6780 -114.1200   27.5480 O.co2     1 COA1202     0.0000 
     18 O8A         4.8750 -112.8070   25.3780 O.co2     1 COA1202     0.0000 
     19 O9A         2.6060 -113.9100   26.0550 O.co2     1 COA1202     0.0000 
     20 C4B         5.2110 -117.2050   26.5760 C.3       1 COA1202     0.0000 
     21 O4B         5.7910 -118.2500   25.7700 O.3       1 COA1202     0.0000 
     22 C5B         4.8130 -117.7490   27.9260 C.3       1 COA1202     0.0000 
     23 O5B         3.7400 -118.6940   27.7150 O.3       1 COA1202     0.0000 
     24 P1A         2.2930 -118.6270   28.4990 P.3       1 COA1202     0.0000 
     25 O1A         1.5830 -119.9280   28.5000 O.co2     1 COA1202     0.0000 
     26 O2A         1.3960 -117.4830   27.9560 O.co2     1 COA1202     0.0000 
     27 O3A         2.7130 -118.2130   29.9730 O.3       1 COA1202     0.0000 
     28 P2A         3.1270 -119.0370   31.2640 P.3       1 COA1202     0.0000 
     29 O4A         2.7620 -120.4690   31.1080 O.co2     1 COA1202     0.0000 
     30 O5A         4.6300 -118.8580   31.5160 O.co2     1 COA1202     0.0000 
     31 O6A         2.3090 -118.0910   32.3060 O.3       1 COA1202     0.0000 
     32 CBP         0.5240 -117.7740   33.9410 C.3       1 COA1202     0.0000 
     33 CCP         0.8820 -118.1860   32.5100 C.3       1 COA1202     0.0000 
     34 CDP         0.6460 -116.2500   34.1180 C.3       1 COA1202     0.0000 
     35 CEP        -0.9390 -118.1860   34.1330 C.3       1 COA1202     0.0000 
     36 CAP         1.4410 -118.5340   34.9390 C.3       1 COA1202     0.0000 
     37 OAP         2.8050 -118.1110   34.9010 O.3       1 COA1202     0.0000 
     38 C9P         1.0370 -118.5930   36.4080 C.2       1 COA1202     0.0000 
     39 O9P         0.1930 -119.4110   36.7900 O.2       1 COA1202     0.0000 
     40 N8P         1.7130 -117.7910   37.2410 N.am      1 COA1202     0.0000 
     41 C7P         1.5110 -117.7720   38.6820 C.3       1 COA1202     0.0000 
     42 C6P         1.3930 -116.3670   39.1920 C.3       1 COA1202     0.0000 
     43 C5P         0.9190 -116.3130   40.6190 C.2       1 COA1202     0.0000 
     44 O5P         1.6990 -116.5040   41.5480 O.2       1 COA1202     0.0000 
     45 N4P        -0.3670 -116.0120   40.7930 N.am      1 COA1202     0.0000 
     46 C3P        -0.9180 -115.5490   42.0580 C.3       1 COA1202     0.0000 
     47 C2P        -1.3540 -116.6530   43.0000 C.3       1 COA1202     0.0000 
     48 S1P        -0.9670 -115.9270   44.6150 S.3       1 COA1202     0.0000 
@<TRIPOS>BOND
     1    1    2 ar   
     2    1    6 ar   
     3    2    3 ar   
     4    3    4 ar   
     5    4    5 ar   
     6    4   10 1    
     7    5    6 ar   
     8    5    8 1    
     9    6    7 1    
    10    8    9 2    
    11    9   10 1    
    12   10   11 1    
    13   11   12 1    
    14   11   21 1    
    15   12   13 1    
    16   12   14 1    
    17   14   15 1    
    18   14   20 1    
    19   15   16 1    
    20   16   17 ar   
    21   16   18 ar   
    22   16   19 ar   
    23   20   21 1    
    24   20   22 1    
    25   22   23 1    
    26   23   24 1    
    27   24   25 ar   
    28   24   26 ar   
    29   24   27 1    
    30   27   28 1    
    31   28   29 ar   
    32   28   30 ar   
    33   28   31 1    
    34   31   33 1    
    35   32   33 1    
    36   32   34 1    
    37   32   35 1    
    38   32   36 1    
    39   36   37 1    
    40   36   38 1    
    41   38   39 2    
    42   38   40 am   
    43   40   41 1    
    44   41   42 1    
    45   42   43 1    
    46   43   44 2    
    47   43   45 am   
    48   45   46 1    
    49   46   47 1    
    50   47   48 1    
@<TRIPOS>SUBSTRUCTURE
     1 COA1202     1 GROUP   
@<TRIPOS>SET
ATOM$ORANGE STATIC     ATOMS   COLORGROUP SYSTEM 
42 2 2 4 4 5 5 6 6 9 9 11 11 12 12 14 14 20 \
20 22 22 32 32 33 33 34 34 35 35 36 36 38 38 41 41 42 \
42 43 43 46 46 47 47 

