#    Name: 6qfb_6_ADP
#    Modification time : Fri May 22 19:29:44 2020

@<TRIPOS>MOLECULE
6qfb_6_ADP
   27    29     1     0     1
SMALL
NO_CHARGES


@<TRIPOS>ATOM
      1 PB          3.8480  -95.0150  126.9430 P.3       1 ADP1202     0.0000 
      2 O1B         2.4780  -94.6210  126.5840 O.co2     1 ADP1202     0.0000 
      3 O2B         4.7470  -93.8200  127.3800 O.co2     1 ADP1202     0.0000 
      4 O3B         3.8990  -96.0660  128.0670 O.co2     1 ADP1202     0.0000 
      5 PA          6.0460  -95.5840  125.1320 P.3       1 ADP1202     0.0000 
      6 O1A         6.0020  -95.2930  123.6440 O.co2     1 ADP1202     0.0000 
      7 O2A         6.8420  -94.5490  125.8410 O.co2     1 ADP1202     0.0000 
      8 O3A         4.5510  -95.6640  125.6720 O.3       1 ADP1202     0.0000 
      9 O5'         6.6120  -97.0650  125.3030 O.3       1 ADP1202     0.0000 
     10 C5'         6.9670  -97.6090  126.5910 C.3       1 ADP1202     0.0000 
     11 C4'         8.4470  -97.9050  126.6470 C.3       1 ADP1202     0.0000 
     12 O4'         8.7740  -98.9270  125.6790 O.3       1 ADP1202     0.0000 
     13 C3'         9.3700  -96.7380  126.3240 C.3       1 ADP1202     0.0000 
     14 O3'         9.6080  -95.9180  127.4610 O.3       1 ADP1202     0.0000 
     15 C2'        10.6280  -97.4390  125.8060 C.3       1 ADP1202     0.0000 
     16 O2'        11.4980  -97.7940  126.8740 O.3       1 ADP1202     0.0000 
     17 C1'        10.0600  -98.6990  125.1300 C.3       1 ADP1202     0.0000 
     18 N9          9.9450  -98.6470  123.6710 N.pl3     1 ADP1202     0.0000 
     19 C8          8.8420  -98.2680  122.9450 C.2       1 ADP1202     0.0000 
     20 N7          9.0150  -98.3000  121.6460 N.2       1 ADP1202     0.0000 
     21 C5         10.3250  -98.7290  121.4990 C.ar      1 ADP1202     0.0000 
     22 C6         11.1360  -98.9450  120.3600 C.ar      1 ADP1202     0.0000 
     23 N6         10.7270  -98.7330  119.1000 N.pl3     1 ADP1202     0.0000 
     24 N1         12.4000  -99.3870  120.5660 N.ar      1 ADP1202     0.0000 
     25 C2         12.8180  -99.5900  121.8220 C.ar      1 ADP1202     0.0000 
     26 N3         12.1540  -99.4040  122.9710 N.ar      1 ADP1202     0.0000 
     27 C4         10.9080  -98.9630  122.7390 C.ar      1 ADP1202     0.0000 
@<TRIPOS>BOND
     1    1    2 ar   
     2    1    3 ar   
     3    1    4 ar   
     4    1    8 1    
     5    5    6 ar   
     6    5    7 ar   
     7    5    8 1    
     8    5    9 1    
     9    9   10 1    
    10   10   11 1    
    11   11   12 1    
    12   11   13 1    
    13   12   17 1    
    14   13   14 1    
    15   13   15 1    
    16   15   16 1    
    17   15   17 1    
    18   17   18 1    
    19   18   19 1    
    20   18   27 1    
    21   19   20 2    
    22   20   21 1    
    23   21   22 ar   
    24   21   27 ar   
    25   22   23 1    
    26   22   24 ar   
    27   24   25 ar   
    28   25   26 ar   
    29   26   27 ar   
@<TRIPOS>SUBSTRUCTURE
     1 ADP1202     1 GROUP   
@<TRIPOS>SET
ATOM$ORANGE STATIC     ATOMS   COLORGROUP SYSTEM 
20 10 10 11 11 13 13 15 15 17 17 19 19 21 21 22 22 25 \
25 27 27 

