#    Name: 6a88_4_ANP_CAVITY_N1_12
#    Modification time : Fri May 22 19:27:29 2020

@<TRIPOS>MOLECULE
6a88_4_ANP_CAVITY_N1_12
   94     0     7     0     0
SMALL
NO_CHARGES


@<TRIPOS>ATOM
      1 OG          8.6600   -8.3400   21.7600 O.3       1 SER1        0.0000 
      2 OG          7.5200   -7.4400   23.9200 O.3       1 SER1        0.0000 
      3 OG         15.9500   -3.0900   21.3400 O.3       1 SER1        0.0000 
      4 OG         16.6000   -2.2000   22.3500 O.3       1 SER1        0.0000 
      5 O           7.5400  -10.0400   23.9700 O.2       2 ALA2        0.0000 
      6 N           9.8900   -9.2000   21.7300 N.am      2 ALA2        0.0000 
      7 N           9.3300  -10.0500   22.8300 N.am      2 ALA2        0.0000 
      8 N           8.7700  -10.9000   23.9300 N.am      2 ALA2        0.0000 
      9 N          10.5600  -10.9000   22.7900 N.am      2 ALA2        0.0000 
     10 O          10.9800   -4.9000   19.4700 O.2       2 ALA2        0.0000 
     11 N          10.5400   -8.3100   22.7400 N.am      2 ALA2        0.0000 
     12 N          11.2100  -10.0100   23.8100 N.am      2 ALA2        0.0000 
     13 N          13.4200   -4.0200   19.3400 N.am      2 ALA2        0.0000 
     14 N          12.3000   -5.7200   21.5500 N.am      2 ALA2        0.0000 
     15 N          11.7500   -6.5600   22.6500 N.am      2 ALA2        0.0000 
     16 N          11.1900   -7.4100   23.7600 N.am      2 ALA2        0.0000 
     17 N          13.5400   -6.5700   21.5100 N.am      2 ALA2        0.0000 
     18 N          12.9800   -7.4200   22.6200 N.am      2 ALA2        0.0000 
     19 N          12.4200   -8.2700   23.7200 N.am      2 ALA2        0.0000 
     20 N          14.2100   -8.2800   22.5800 N.am      2 ALA2        0.0000 
     21 N          11.0500   -2.2600   21.5400 N.am      2 ALA2        0.0000 
     22 N          17.8400   -3.0500   22.3100 N.am      2 ALA2        0.0000 
     23 N          18.4900   -2.1600   23.3300 N.am      2 ALA2        0.0000 
     24 N          17.9300   -3.0100   24.4300 N.am      2 ALA2        0.0000 
     25 N          18.5800   -2.1200   25.4500 N.am      2 ALA2        0.0000 
     26 OD1        14.0900   -5.7200   20.4100 O.co2     3 ASP3        0.0000 
     27 OD1        14.7700   -7.4300   21.4700 O.co2     3 ASP3        0.0000 
     28 OD1        10.6100   -5.6700   24.8100 O.co2     3 ASP3        0.0000 
     29 OD1        10.0500   -6.5200   25.9100 O.co2     3 ASP3        0.0000 
     30 OD1        11.8400   -6.5200   24.7700 O.co2     3 ASP3        0.0000 
     31 OD1        15.3000   -3.9800   20.3200 O.co2     3 ASP3        0.0000 
     32 OD1        14.7400   -4.8300   21.4200 O.co2     3 ASP3        0.0000 
     33 OD1        14.1900   -5.6800   22.5300 O.co2     3 ASP3        0.0000 
     34 OD1        13.0700   -7.3800   24.7300 O.co2     3 ASP3        0.0000 
     35 OD1        15.4200   -6.5400   22.4900 O.co2     3 ASP3        0.0000 
     36 OD1        14.8600   -7.3900   23.5900 O.co2     3 ASP3        0.0000 
     37 OD1        14.3000   -8.2400   24.7000 O.co2     3 ASP3        0.0000 
     38 OD1        11.8200   -3.9200   24.7200 O.co2     3 ASP3        0.0000 
     39 OD1        13.6100   -3.9300   23.5800 O.co2     3 ASP3        0.0000 
     40 OD1        13.0500   -4.7800   24.6800 O.co2     3 ASP3        0.0000 
     41 OD1        15.4000   -3.9400   22.4400 O.co2     3 ASP3        0.0000 
     42 OD1        14.8400   -4.7900   23.5400 O.co2     3 ASP3        0.0000 
     43 OD1        14.2800   -5.6400   24.6500 O.co2     3 ASP3        0.0000 
     44 OD1        13.7200   -6.4900   25.7500 O.co2     3 ASP3        0.0000 
     45 OD1        16.0700   -5.6400   23.5100 O.co2     3 ASP3        0.0000 
     46 OD1        15.5100   -6.4900   24.6100 O.co2     3 ASP3        0.0000 
     47 OD1        16.0500   -3.0500   23.4500 O.co2     3 ASP3        0.0000 
     48 OD1        17.2800   -3.9000   23.4200 O.co2     3 ASP3        0.0000 
     49 OD1        16.7200   -4.7500   24.5200 O.co2     3 ASP3        0.0000 
     50 NZ         17.3700   -3.8600   25.5400 N.4       4 LYS4        0.0000 
     51 CZ          8.1000   -9.1900   22.8700 C.ar      5 PHE5        0.0000 
     52 CZ          8.7500   -8.3000   23.8800 C.ar      5 PHE5        0.0000 
     53 CZ          8.8400   -8.2600   26.0000 C.ar      5 PHE5        0.0000 
     54 CZ          8.2900   -9.1100   27.1100 C.ar      5 PHE5        0.0000 
     55 CZ          9.5200   -9.9600   27.0700 C.ar      5 PHE5        0.0000 
     56 CZ         10.4900   -3.1100   22.6400 C.ar      5 PHE5        0.0000 
     57 CZ          9.9400   -3.9600   23.7400 C.ar      5 PHE5        0.0000 
     58 CZ         11.1500   -2.2200   23.6600 C.ar      5 PHE5        0.0000 
     59 CZ         10.5900   -3.0700   24.7600 C.ar      5 PHE5        0.0000 
     60 CZ         12.3800   -3.0800   23.6200 C.ar      5 PHE5        0.0000 
     61 CZ         13.0300   -2.1800   24.6300 C.ar      5 PHE5        0.0000 
     62 CZ         14.2600   -3.0400   24.6000 C.ar      5 PHE5        0.0000 
     63 CZ         15.4900   -3.9000   24.5600 C.ar      5 PHE5        0.0000 
     64 CZ         17.2600   -1.3100   23.3700 C.ar      5 PHE5        0.0000 
     65 CZ         16.7000   -2.1600   24.4700 C.ar      5 PHE5        0.0000 
     66 CZ         16.1400   -3.0100   25.5700 C.ar      5 PHE5        0.0000 
     67 CA          6.9600   -8.2900   25.0200 C.3       6 GLY6        0.0000 
     68 CA          9.8700   -6.6000   21.6800 C.3       6 GLY6        0.0000 
     69 CA          9.3100   -7.4500   22.7800 C.3       6 GLY6        0.0000 
     70 CA          8.1900   -9.1500   24.9900 C.3       6 GLY6        0.0000 
     71 CA          7.6400  -10.0000   26.0900 C.3       6 GLY6        0.0000 
     72 CA         11.6300   -4.0100   20.4800 C.3       6 GLY6        0.0000 
     73 CA         11.0700   -4.8600   21.5900 C.3       6 GLY6        0.0000 
     74 CA         10.5200   -5.7100   22.6900 C.3       6 GLY6        0.0000 
     75 CA         12.8400   -2.2700   20.4000 C.3       6 GLY6        0.0000 
     76 CA         12.2800   -3.1200   21.5000 C.3       6 GLY6        0.0000 
     77 CA         14.0700   -3.1200   20.3600 C.3       6 GLY6        0.0000 
     78 CA         12.9300   -2.2300   22.5100 C.3       6 GLY6        0.0000 
     79 CA         14.1600   -3.0800   22.4800 C.3       6 GLY6        0.0000 
     80 CA         14.8200   -2.1900   23.4900 C.3       6 GLY6        0.0000 
     81 CA         19.1600   -3.8700   24.3900 C.3       6 GLY6        0.0000 
     82 DU          9.9800   -9.1500   23.8500 H         7 CUB7        0.0000 
     83 DU          9.4200  -10.0000   24.9500 H         7 CUB7        0.0000 
     84 DU          9.9600   -6.5600   23.7900 H         7 CUB7        0.0000 
     85 DU          9.4000   -7.4100   24.9000 H         7 CUB7        0.0000 
     86 DU         12.8600   -4.8700   20.4500 H         7 CUB7        0.0000 
     87 DU         10.6300   -8.2600   24.8600 H         7 CUB7        0.0000 
     88 DU         10.0800   -9.1100   25.9600 H         7 CUB7        0.0000 
     89 DU         11.7300   -3.9700   22.6000 H         7 CUB7        0.0000 
     90 DU         11.1700   -4.8200   23.7100 H         7 CUB7        0.0000 
     91 DU         13.5100   -3.9700   21.4600 H         7 CUB7        0.0000 
     92 DU         12.9600   -4.8200   22.5700 H         7 CUB7        0.0000 
     93 DU         12.4000   -5.6700   23.6700 H         7 CUB7        0.0000 
     94 DU         13.6300   -6.5300   23.6300 H         7 CUB7        0.0000 
@<TRIPOS>BOND
@<TRIPOS>SUBSTRUCTURE
     1 SER1        1 GROUP   
     2 ALA2        5 GROUP   
     3 ASP3       26 GROUP   
     4 LYS4       50 GROUP   
     5 PHE5       51 GROUP   
     6 GLY6       67 GROUP   
     7 CUB7       82 GROUP   
@<TRIPOS>SET

