#    Name: 6a88_2_ANP
#    Modification time : Fri May 22 19:27:10 2020

@<TRIPOS>MOLECULE
6a88_2_ANP
   31    33     1     0     1
SMALL
NO_CHARGES


@<TRIPOS>ATOM
      1 PG         -9.1490  -29.7570   -5.5310 P.3       1 ANP1001     0.0000 
      2 O1G        -8.1010  -30.2180   -6.4940 O.co2     1 ANP1001     0.0000 
      3 O2G        -9.1180  -30.6870   -4.2570 O.co2     1 ANP1001     0.0000 
      4 O3G        -8.8380  -28.2640   -5.1040 O.co2     1 ANP1001     0.0000 
      5 PB        -11.5650  -28.4600   -6.2420 P.3       1 ANP1001     0.0000 
      6 O1B       -10.8510  -27.3960   -5.4730 O.co2     1 ANP1001     0.0000 
      7 O2B       -12.9400  -28.7440   -5.5720 O.co2     1 ANP1001     0.0000 
      8 N3B       -10.6680  -29.8800   -6.2750 N.3       1 ANP1001     0.0000 
      9 PA        -13.1090  -27.2970   -8.2160 P.3       1 ANP1001     0.0000 
     10 O1A       -14.1880  -28.2970   -8.3960 O.co2     1 ANP1001     0.0000 
     11 O2A       -13.4340  -26.1790   -7.2240 O.co2     1 ANP1001     0.0000 
     12 O3A       -11.7600  -27.9830   -7.7180 O.3       1 ANP1001     0.0000 
     13 O5'       -12.7600  -26.6910   -9.6360 O.3       1 ANP1001     0.0000 
     14 C5'       -13.1830  -27.3090  -10.8690 C.3       1 ANP1001     0.0000 
     15 C4'       -11.9580  -27.8360  -11.5740 C.3       1 ANP1001     0.0000 
     16 O4'       -10.9480  -26.8110  -11.6030 O.3       1 ANP1001     0.0000 
     17 C3'       -11.2860  -29.0230  -10.8980 C.3       1 ANP1001     0.0000 
     18 O3'       -11.8880  -30.2420  -11.3190 O.3       1 ANP1001     0.0000 
     19 C2'        -9.8370  -28.9090  -11.3800 C.3       1 ANP1001     0.0000 
     20 O2'        -9.6370  -29.6100  -12.6030 O.3       1 ANP1001     0.0000 
     21 C1'        -9.6600  -27.3990  -11.5920 C.3       1 ANP1001     0.0000 
     22 N9         -8.8600  -26.7290  -10.5680 N.pl3     1 ANP1001     0.0000 
     23 C8         -9.1540  -26.6190   -9.2320 C.2       1 ANP1001     0.0000 
     24 N7         -8.2590  -25.9530   -8.5480 N.2       1 ANP1001     0.0000 
     25 C5         -7.3090  -25.5910   -9.4920 C.ar      1 ANP1001     0.0000 
     26 C6         -6.1100  -24.8670   -9.4080 C.ar      1 ANP1001     0.0000 
     27 N6         -5.6330  -24.3510   -8.2710 N.pl3     1 ANP1001     0.0000 
     28 N1         -5.4030  -24.6830  -10.5460 N.ar      1 ANP1001     0.0000 
     29 C2         -5.8760  -25.1950  -11.6870 C.ar      1 ANP1001     0.0000 
     30 N3         -6.9930  -25.8990  -11.8890 N.ar      1 ANP1001     0.0000 
     31 C4         -7.6750  -26.0640  -10.7460 C.ar      1 ANP1001     0.0000 
@<TRIPOS>BOND
     1    1    2 ar   
     2    1    3 ar   
     3    1    4 ar   
     4    1    8 1    
     5    5    6 ar   
     6    5    7 ar   
     7    5    8 1    
     8    5   12 1    
     9    9   10 ar   
    10    9   11 ar   
    11    9   12 1    
    12    9   13 1    
    13   13   14 1    
    14   14   15 1    
    15   15   16 1    
    16   15   17 1    
    17   16   21 1    
    18   17   18 1    
    19   17   19 1    
    20   19   20 1    
    21   19   21 1    
    22   21   22 1    
    23   22   23 1    
    24   22   31 1    
    25   23   24 2    
    26   24   25 1    
    27   25   26 ar   
    28   25   31 ar   
    29   26   27 1    
    30   26   28 ar   
    31   28   29 ar   
    32   29   30 ar   
    33   30   31 ar   
@<TRIPOS>SUBSTRUCTURE
     1 ANP1001     1 GROUP   
@<TRIPOS>SET
ATOM$ORANGE STATIC     ATOMS   COLORGROUP SYSTEM 
20 14 14 15 15 17 17 19 19 21 21 23 23 25 25 26 26 29 \
29 31 31 

