#    Name: 6a88_1_ANP
#    Modification time : Fri May 22 19:27:02 2020

@<TRIPOS>MOLECULE
6a88_1_ANP
   31    33     1     0     1
SMALL
NO_CHARGES


@<TRIPOS>ATOM
      1 PG         -9.9340    8.8050  -16.5110 P.3       1 ANP1001     0.0000 
      2 O1G       -11.2870    8.9850  -17.1220 O.co2     1 ANP1001     0.0000 
      3 O2G        -9.4520   10.1890  -15.9310 O.co2     1 ANP1001     0.0000 
      4 O3G       -10.0320    7.7480  -15.3380 O.co2     1 ANP1001     0.0000 
      5 PB         -7.7960    7.0630  -17.2910 P.3       1 ANP1001     0.0000 
      6 O1B        -6.3990    7.5490  -17.4770 O.co2     1 ANP1001     0.0000 
      7 O2B        -7.9880    6.6300  -15.8050 O.co2     1 ANP1001     0.0000 
      8 N3B        -8.8610    8.2930  -17.7250 N.3       1 ANP1001     0.0000 
      9 PA         -6.9650    4.8390  -18.7380 P.3       1 ANP1001     0.0000 
     10 O1A        -6.0960    5.4520  -19.7690 O.co2     1 ANP1001     0.0000 
     11 O2A        -6.2160    4.3170  -17.5100 O.co2     1 ANP1001     0.0000 
     12 O3A        -8.0870    5.8480  -18.2280 O.3       1 ANP1001     0.0000 
     13 O5'        -7.7890    3.6810  -19.4390 O.3       1 ANP1001     0.0000 
     14 C5'        -8.0040    3.6570  -20.8700 C.3       1 ANP1001     0.0000 
     15 C4'        -9.4760    3.8310  -21.1590 C.3       1 ANP1001     0.0000 
     16 O4'       -10.2430    3.0700  -20.2100 O.3       1 ANP1001     0.0000 
     17 C3'       -10.0010    5.2540  -21.0260 C.3       1 ANP1001     0.0000 
     18 O3'        -9.8180    5.9630  -22.2460 O.3       1 ANP1001     0.0000 
     19 C2'       -11.4870    5.0420  -20.7150 C.3       1 ANP1001     0.0000 
     20 O2'       -12.2640    5.0160  -21.9070 O.3       1 ANP1001     0.0000 
     21 C1'       -11.5130    3.6680  -20.0280 C.3       1 ANP1001     0.0000 
     22 N9        -11.7950    3.7040  -18.5920 N.pl3     1 ANP1001     0.0000 
     23 C8        -11.0510    4.3160  -17.6240 C.2       1 ANP1001     0.0000 
     24 N7        -11.5330    4.1720  -16.4090 N.2       1 ANP1001     0.0000 
     25 C5        -12.6630    3.4030  -16.6020 C.ar      1 ANP1001     0.0000 
     26 C6        -13.6310    2.8930  -15.7030 C.ar      1 ANP1001     0.0000 
     27 N6        -13.5950    3.1000  -14.3840 N.pl3     1 ANP1001     0.0000 
     28 N1        -14.6420    2.1580  -16.2170 N.ar      1 ANP1001     0.0000 
     29 C2        -14.6800    1.9500  -17.5370 C.ar      1 ANP1001     0.0000 
     30 N3        -13.8320    2.3770  -18.4760 N.ar      1 ANP1001     0.0000 
     31 C4        -12.8470    3.0950  -17.9410 C.ar      1 ANP1001     0.0000 
@<TRIPOS>BOND
     1    1    2 ar   
     2    1    3 ar   
     3    1    4 ar   
     4    1    8 1    
     5    5    6 ar   
     6    5    7 ar   
     7    5    8 1    
     8    5   12 1    
     9    9   10 ar   
    10    9   11 ar   
    11    9   12 1    
    12    9   13 1    
    13   13   14 1    
    14   14   15 1    
    15   15   16 1    
    16   15   17 1    
    17   16   21 1    
    18   17   18 1    
    19   17   19 1    
    20   19   20 1    
    21   19   21 1    
    22   21   22 1    
    23   22   23 1    
    24   22   31 1    
    25   23   24 2    
    26   24   25 1    
    27   25   26 ar   
    28   25   31 ar   
    29   26   27 1    
    30   26   28 ar   
    31   28   29 ar   
    32   29   30 ar   
    33   30   31 ar   
@<TRIPOS>SUBSTRUCTURE
     1 ANP1001     1 GROUP   
@<TRIPOS>SET
ATOM$ORANGE STATIC     ATOMS   COLORGROUP SYSTEM 
20 14 14 15 15 17 17 19 19 21 21 23 23 25 25 26 26 29 \
29 31 31 

