#    Name: 6a88_1_ANP_CAVITY_N1_4
#    Modification time : Fri May 22 19:27:04 2020

@<TRIPOS>MOLECULE
6a88_1_ANP_CAVITY_N1_4
  115     0     7     0     0
SMALL
NO_CHARGES


@<TRIPOS>ATOM
      1 OG         -5.6000    7.1700  -20.3900 O.3       1 SER1        0.0000 
      2 N         -10.0000    3.6100  -23.3100 N.am      2 ALA2        0.0000 
      3 N          -9.3200    1.9100  -22.2400 N.am      2 ALA2        0.0000 
      4 N         -14.0400    2.8200  -17.8000 N.am      2 ALA2        0.0000 
      5 N         -10.5800    5.3600  -22.2500 N.am      2 ALA2        0.0000 
      6 N          -8.6700    2.8000  -21.2300 N.am      2 ALA2        0.0000 
      7 N          -9.9200    6.2500  -21.2400 N.am      2 ALA2        0.0000 
      8 N          -9.2700    7.1400  -20.2200 N.am      2 ALA2        0.0000 
      9 N          -7.4800    7.1400  -21.3700 N.am      2 ALA2        0.0000 
     10 N          -8.0400    6.2900  -20.2600 N.am      2 ALA2        0.0000 
     11 N         -12.3100   10.6100  -19.1000 N.am      2 ALA2        0.0000 
     12 N         -11.0800    9.7500  -19.1300 N.am      2 ALA2        0.0000 
     13 N          -9.8500    8.8900  -19.1700 N.am      2 ALA2        0.0000 
     14 N          -8.6200    8.0400  -19.2100 N.am      2 ALA2        0.0000 
     15 O          -6.2800    8.8800  -21.4500 O.2       2 ALA2        0.0000 
     16 N          -6.8300    8.0300  -20.3500 N.am      2 ALA2        0.0000 
     17 N          -7.3900    7.1800  -19.2500 N.am      2 ALA2        0.0000 
     18 N         -11.6600   11.5000  -18.0800 N.am      2 ALA2        0.0000 
     19 N          -9.8700   11.4900  -19.2200 N.am      2 ALA2        0.0000 
     20 N          -8.6400   10.6300  -19.2600 N.am      2 ALA2        0.0000 
     21 N          -9.2000    9.7800  -18.1600 N.am      2 ALA2        0.0000 
     22 N          -7.4100    9.7800  -19.3000 N.am      2 ALA2        0.0000 
     23 N          -7.9700    8.9300  -18.1900 N.am      2 ALA2        0.0000 
     24 N          -5.6200    9.7700  -20.4400 N.am      2 ALA2        0.0000 
     25 N          -6.1800    8.9200  -19.3400 N.am      2 ALA2        0.0000 
     26 N          -4.9700   10.6600  -19.4200 N.am      2 ALA2        0.0000 
     27 OD1       -12.3600    5.3700  -21.1100 O.co2     3 ASP3        0.0000 
     28 OD1       -12.9200    4.5200  -20.0100 O.co2     3 ASP3        0.0000 
     29 OD1       -13.4800    3.6700  -18.9100 O.co2     3 ASP3        0.0000 
     30 OD1       -11.1300    4.5100  -21.1500 O.co2     3 ASP3        0.0000 
     31 OD1       -11.1500    7.1100  -21.2000 O.co2     3 ASP3        0.0000 
     32 OD1       -12.2700    5.4100  -18.9900 O.co2     3 ASP3        0.0000 
     33 OD1       -12.8300    4.5600  -17.8900 O.co2     3 ASP3        0.0000 
     34 OD1       -13.3800    3.7100  -16.7900 O.co2     3 ASP3        0.0000 
     35 OD1       -10.4800    5.4000  -20.1400 O.co2     3 ASP3        0.0000 
     36 OD1       -11.0600    7.1500  -19.0800 O.co2     3 ASP3        0.0000 
     37 OD1       -11.6200    6.3000  -17.9800 O.co2     3 ASP3        0.0000 
     38 OD1       -12.1700    5.4500  -16.8800 O.co2     3 ASP3        0.0000 
     39 OD1       -12.7300    4.6000  -15.7700 O.co2     3 ASP3        0.0000 
     40 OD1       -10.9400    4.6000  -16.9100 O.co2     3 ASP3        0.0000 
     41 OD1        -9.1600    4.5900  -18.0500 O.co2     3 ASP3        0.0000 
     42 OD1        -7.3700    4.5800  -19.2000 O.co2     3 ASP3        0.0000 
     43 OD1        -7.9300    3.7300  -18.0900 O.co2     3 ASP3        0.0000 
     44 OD1        -6.1400    3.7300  -19.2300 O.co2     3 ASP3        0.0000 
     45 OD1       -11.6400    8.9000  -18.0300 O.co2     3 ASP3        0.0000 
     46 OD1       -10.4100    8.0400  -18.0700 O.co2     3 ASP3        0.0000 
     47 OD1       -10.9700    7.1900  -16.9600 O.co2     3 ASP3        0.0000 
     48 OD1        -9.7400    6.3400  -17.0000 O.co2     3 ASP3        0.0000 
     49 OD1        -7.9500    6.3300  -18.1400 O.co2     3 ASP3        0.0000 
     50 OD1        -8.5000    5.4800  -17.0400 O.co2     3 ASP3        0.0000 
     51 OD1       -11.1000   12.3500  -19.1800 O.co2     3 ASP3        0.0000 
     52 OD1       -12.2200   10.6500  -16.9800 O.co2     3 ASP3        0.0000 
     53 OD1       -10.9900    9.7900  -17.0200 O.co2     3 ASP3        0.0000 
     54 OD1        -9.7600    8.9300  -17.0500 O.co2     3 ASP3        0.0000 
     55 OD1        -8.5300    8.0800  -17.0900 O.co2     3 ASP3        0.0000 
     56 OD1        -7.3000    7.2200  -17.1300 O.co2     3 ASP3        0.0000 
     57 OD1        -7.8500    6.3700  -16.0200 O.co2     3 ASP3        0.0000 
     58 OD1        -6.0600    6.3600  -17.1700 O.co2     3 ASP3        0.0000 
     59 OD1       -11.0100   12.3900  -17.0700 O.co2     3 ASP3        0.0000 
     60 OD1       -11.5700   11.5400  -15.9600 O.co2     3 ASP3        0.0000 
     61 OD1        -9.2200   12.3800  -18.2100 O.co2     3 ASP3        0.0000 
     62 OD1        -9.7800   11.5300  -17.1000 O.co2     3 ASP3        0.0000 
     63 OD1       -10.3400   10.6800  -16.0000 O.co2     3 ASP3        0.0000 
     64 OD1        -9.1100    9.8300  -16.0400 O.co2     3 ASP3        0.0000 
     65 OD1        -8.5700   13.2700  -17.1900 O.co2     3 ASP3        0.0000 
     66 OD1        -9.1300   12.4200  -16.0900 O.co2     3 ASP3        0.0000 
     67 NZ        -11.5000    3.7500  -15.8100 N.4       4 LYS4        0.0000 
     68 NZ         -7.3400   12.4200  -17.2300 N.4       4 LYS4        0.0000 
     69 CZ        -12.8000    1.9600  -17.8400 C.ar      5 PHE5        0.0000 
     70 CZ        -13.9400    2.8600  -15.6800 C.ar      5 PHE5        0.0000 
     71 CZ        -12.1500    2.8500  -16.8200 C.ar      5 PHE5        0.0000 
     72 CZ        -10.3600    2.8500  -17.9700 C.ar      5 PHE5        0.0000 
     73 CZ         -8.5800    2.8400  -19.1100 C.ar      5 PHE5        0.0000 
     74 CZ         -5.0400    8.0200  -21.4900 C.ar      5 PHE5        0.0000 
     75 CZ         -4.3900    8.9100  -20.4800 C.ar      5 PHE5        0.0000 
     76 CZ         -5.4100    7.2600  -16.1500 C.ar      5 PHE5        0.0000 
     77 CZ         -4.2000    9.0000  -16.2400 C.ar      5 PHE5        0.0000 
     78 CA        -11.6900    3.6600  -20.0500 C.3       6 GLY6        0.0000 
     79 CA        -12.2500    2.8100  -18.9400 C.3       6 GLY6        0.0000 
     80 CA         -9.3400    4.5000  -22.2900 C.3       6 GLY6        0.0000 
     81 CA         -9.9000    3.6500  -21.1900 C.3       6 GLY6        0.0000 
     82 CA        -10.4600    2.8100  -20.0900 C.3       6 GLY6        0.0000 
     83 CA         -8.1100    3.6500  -22.3300 C.3       6 GLY6        0.0000 
     84 CA         -9.2300    1.9500  -20.1200 C.3       6 GLY6        0.0000 
     85 CA         -8.1400    6.2500  -22.3800 C.3       6 GLY6        0.0000 
     86 CA         -8.6900    5.4000  -21.2800 C.3       6 GLY6        0.0000 
     87 CA         -7.4600    4.5400  -21.3100 C.3       6 GLY6        0.0000 
     88 CA         -6.2500    6.2800  -21.4000 C.3       6 GLY6        0.0000 
     89 CA         -6.8100    5.4300  -20.3000 C.3       6 GLY6        0.0000 
     90 CA        -11.7600   11.4500  -20.2000 C.3       6 GLY6        0.0000 
     91 CA         -3.1600    8.0600  -20.5100 C.3       6 GLY6        0.0000 
     92 DU        -11.0400    4.5500  -19.0300 H         7 CUB7        0.0000 
     93 DU        -11.6000    3.7000  -17.9300 H         7 CUB7        0.0000 
     94 DU         -9.2500    4.5500  -20.1700 H         7 CUB7        0.0000 
     95 DU         -9.8100    3.7000  -19.0700 H         7 CUB7        0.0000 
     96 DU         -8.0200    3.6900  -20.2100 H         7 CUB7        0.0000 
     97 DU         -9.8300    6.2900  -19.1200 H         7 CUB7        0.0000 
     98 DU        -10.3900    5.4500  -18.0200 H         7 CUB7        0.0000 
     99 DU         -8.6000    5.4400  -19.1600 H         7 CUB7        0.0000 
    100 DU         -9.1800    7.1900  -18.1100 H         7 CUB7        0.0000 
    101 DU         -6.1600    6.3200  -19.2800 H         7 CUB7        0.0000 
    102 DU        -10.4300   10.6400  -18.1200 H         7 CUB7        0.0000 
    103 DU         -6.7400    8.0700  -18.2300 H         7 CUB7        0.0000 
    104 DU         -4.9500    8.0600  -19.3700 H         7 CUB7        0.0000 
    105 DU         -7.9900   11.5200  -18.2400 H         7 CUB7        0.0000 
    106 DU         -8.5500   10.6800  -17.1400 H         7 CUB7        0.0000 
    107 DU         -6.7600   10.6700  -18.2800 H         7 CUB7        0.0000 
    108 DU         -7.3200    9.8200  -17.1800 H         7 CUB7        0.0000 
    109 DU         -5.5300    9.8100  -18.3200 H         7 CUB7        0.0000 
    110 DU         -6.0900    8.9600  -17.2200 H         7 CUB7        0.0000 
    111 DU         -4.3000    8.9600  -18.3600 H         7 CUB7        0.0000 
    112 DU         -7.9000   11.5700  -16.1300 H         7 CUB7        0.0000 
    113 DU         -6.1100   11.5600  -17.2700 H         7 CUB7        0.0000 
    114 DU         -4.8800   10.7000  -17.3000 H         7 CUB7        0.0000 
    115 DU         -3.6500    9.8500  -17.3400 H         7 CUB7        0.0000 
@<TRIPOS>BOND
@<TRIPOS>SUBSTRUCTURE
     1 SER1        1 GROUP   
     2 ALA2        2 GROUP   
     3 ASP3       27 GROUP   
     4 LYS4       67 GROUP   
     5 PHE5       69 GROUP   
     6 GLY6       78 GROUP   
     7 CUB7       92 GROUP   
@<TRIPOS>SET

