#    Name: 6a88_3_ANP
#    Modification time : Fri May 22 19:27:19 2020

@<TRIPOS>MOLECULE
6a88_3_ANP
   31    33     1     0     1
SMALL
NO_CHARGES


@<TRIPOS>ATOM
      1 PG         14.8570   28.2700   39.9110 P.3       1 ANP1001     0.0000 
      2 O1G        13.6800   29.0530   39.4200 O.co2     1 ANP1001     0.0000 
      3 O2G        15.0910   28.6120   41.4310 O.co2     1 ANP1001     0.0000 
      4 O3G        14.5610   26.7240   39.7560 O.co2     1 ANP1001     0.0000 
      5 PB         17.0930   27.4350   38.3550 P.3       1 ANP1001     0.0000 
      6 O1B        18.5550   27.7350   38.4430 O.co2     1 ANP1001     0.0000 
      7 O2B        16.7970   26.1040   39.1110 O.co2     1 ANP1001     0.0000 
      8 N3B        16.2360   28.7180   39.0260 N.3       1 ANP1001     0.0000 
      9 PA         17.6420   26.5730   35.8080 P.3       1 ANP1001     0.0000 
     10 O1A        18.6570   27.5150   35.2820 O.co2     1 ANP1001     0.0000 
     11 O2A        18.2270   25.3410   36.5000 O.co2     1 ANP1001     0.0000 
     12 O3A        16.6840   27.2880   36.8560 O.3       1 ANP1001     0.0000 
     13 O5'        16.6910   26.1370   34.6150 O.3       1 ANP1001     0.0000 
     14 C5'        16.6710   26.7990   33.3300 C.3       1 ANP1001     0.0000 
     15 C4'        15.2530   27.2330   33.0620 C.3       1 ANP1001     0.0000 
     16 O4'        14.3720   26.1730   33.4650 O.3       1 ANP1001     0.0000 
     17 C3'        14.8330   28.4900   33.8210 C.3       1 ANP1001     0.0000 
     18 O3'        14.7290   29.5950   32.9300 O.3       1 ANP1001     0.0000 
     19 C2'        13.4750   28.1440   34.4590 C.3       1 ANP1001     0.0000 
     20 O2'        12.4470   28.9890   33.9540 O.3       1 ANP1001     0.0000 
     21 C1'        13.2120   26.6810   34.0830 C.3       1 ANP1001     0.0000 
     22 N9         12.9190   25.8210   35.2270 N.pl3     1 ANP1001     0.0000 
     23 C8         13.6350   25.7310   36.3910 C.2       1 ANP1001     0.0000 
     24 N7         13.1580   24.8580   37.2470 N.2       1 ANP1001     0.0000 
     25 C5         12.0570   24.3280   36.5930 C.ar      1 ANP1001     0.0000 
     26 C6         11.1160   23.3470   36.9640 C.ar      1 ANP1001     0.0000 
     27 N6         11.1380   22.7000   38.1310 N.pl3     1 ANP1001     0.0000 
     28 N1         10.1370   23.0500   36.0780 N.ar      1 ANP1001     0.0000 
     29 C2         10.1120   23.6930   34.9070 C.ar      1 ANP1001     0.0000 
     30 N3         10.9420   24.6340   34.4500 N.ar      1 ANP1001     0.0000 
     31 C4         11.8990   24.9060   35.3450 C.ar      1 ANP1001     0.0000 
@<TRIPOS>BOND
     1    1    2 ar   
     2    1    3 ar   
     3    1    4 ar   
     4    1    8 1    
     5    5    6 ar   
     6    5    7 ar   
     7    5    8 1    
     8    5   12 1    
     9    9   10 ar   
    10    9   11 ar   
    11    9   12 1    
    12    9   13 1    
    13   13   14 1    
    14   14   15 1    
    15   15   16 1    
    16   15   17 1    
    17   16   21 1    
    18   17   18 1    
    19   17   19 1    
    20   19   20 1    
    21   19   21 1    
    22   21   22 1    
    23   22   23 1    
    24   22   31 1    
    25   23   24 2    
    26   24   25 1    
    27   25   26 ar   
    28   25   31 ar   
    29   26   27 1    
    30   26   28 ar   
    31   28   29 ar   
    32   29   30 ar   
    33   30   31 ar   
@<TRIPOS>SUBSTRUCTURE
     1 ANP1001     1 GROUP   
@<TRIPOS>SET
ATOM$ORANGE STATIC     ATOMS   COLORGROUP SYSTEM 
20 14 14 15 15 17 17 19 19 21 21 23 23 25 25 26 26 29 \
29 31 31 

