#    Name: 6a88_4_ANP
#    Modification time : Fri May 22 19:27:27 2020

@<TRIPOS>MOLECULE
6a88_4_ANP
   31    33     1     0     1
SMALL
NO_CHARGES


@<TRIPOS>ATOM
      1 PG         14.8200   -8.9050   24.8720 P.3       1 ANP1001     0.0000 
      2 O1G        15.8010   -9.0800   23.7560 O.co2     1 ANP1001     0.0000 
      3 O2G        14.5580  -10.3130   25.5330 O.co2     1 ANP1001     0.0000 
      4 O3G        15.4260   -7.9130   25.9460 O.co2     1 ANP1001     0.0000 
      5 PB         12.4740   -7.3140   25.2310 P.3       1 ANP1001     0.0000 
      6 O1B        11.1430   -7.9370   25.4910 O.co2     1 ANP1001     0.0000 
      7 O2B        13.2020   -7.0670   26.5870 O.co2     1 ANP1001     0.0000 
      8 N3B        13.3690   -8.3150   24.2210 N.3       1 ANP1001     0.0000 
      9 PA         10.9360   -5.1660   24.3800 P.3       1 ANP1001     0.0000 
     10 O1A         9.9660   -5.8450   23.4870 O.co2     1 ANP1001     0.0000 
     11 O2A        10.4430   -4.9230   25.8080 O.co2     1 ANP1001     0.0000 
     12 O3A        12.3080   -5.9560   24.4830 O.3       1 ANP1001     0.0000 
     13 O5'        11.3560   -3.8100   23.6810 O.3       1 ANP1001     0.0000 
     14 C5'        10.9640   -3.4970   22.3270 C.3       1 ANP1001     0.0000 
     15 C4'        12.1700   -3.6040   21.4270 C.3       1 ANP1001     0.0000 
     16 O4'        13.2390   -2.7930   21.9510 O.3       1 ANP1001     0.0000 
     17 C3'        12.7760   -4.9950   21.3000 C.3       1 ANP1001     0.0000 
     18 O3'        12.0880   -5.7620   20.3180 O.3       1 ANP1001     0.0000 
     19 C2'        14.2140   -4.6830   20.8810 C.3       1 ANP1001     0.0000 
     20 O2'        14.3060   -4.4790   19.4750 O.3       1 ANP1001     0.0000 
     21 C1'        14.4910   -3.3660   21.6170 C.3       1 ANP1001     0.0000 
     22 N9         15.2680   -3.5100   22.8480 N.pl3     1 ANP1001     0.0000 
     23 C8         14.9620   -4.2900   23.9280 C.2       1 ANP1001     0.0000 
     24 N7         15.8400   -4.2170   24.9040 N.2       1 ANP1001     0.0000 
     25 C5         16.7770   -3.3200   24.4280 C.ar      1 ANP1001     0.0000 
     26 C6         17.9690   -2.8030   24.9880 C.ar      1 ANP1001     0.0000 
     27 N6         18.4260   -3.1380   26.1970 N.pl3     1 ANP1001     0.0000 
     28 N1         18.6780   -1.9190   24.2520 N.ar      1 ANP1001     0.0000 
     29 C2         18.2250   -1.5800   23.0420 C.ar      1 ANP1001     0.0000 
     30 N3         17.1240   -1.9980   22.4120 N.ar      1 ANP1001     0.0000 
     31 C4         16.4440   -2.8650   23.1620 C.ar      1 ANP1001     0.0000 
@<TRIPOS>BOND
     1    1    2 ar   
     2    1    3 ar   
     3    1    4 ar   
     4    1    8 1    
     5    5    6 ar   
     6    5    7 ar   
     7    5    8 1    
     8    5   12 1    
     9    9   10 ar   
    10    9   11 ar   
    11    9   12 1    
    12    9   13 1    
    13   13   14 1    
    14   14   15 1    
    15   15   16 1    
    16   15   17 1    
    17   16   21 1    
    18   17   18 1    
    19   17   19 1    
    20   19   20 1    
    21   19   21 1    
    22   21   22 1    
    23   22   23 1    
    24   22   31 1    
    25   23   24 2    
    26   24   25 1    
    27   25   26 ar   
    28   25   31 ar   
    29   26   27 1    
    30   26   28 ar   
    31   28   29 ar   
    32   29   30 ar   
    33   30   31 ar   
@<TRIPOS>SUBSTRUCTURE
     1 ANP1001     1 GROUP   
@<TRIPOS>SET
ATOM$ORANGE STATIC     ATOMS   COLORGROUP SYSTEM 
20 14 14 15 15 17 17 19 19 21 21 23 23 25 25 26 26 29 \
29 31 31 

