#    Name: 6a88_3_ANP_CAVITY_N1_6
#    Modification time : Fri May 22 19:27:20 2020

@<TRIPOS>MOLECULE
6a88_3_ANP_CAVITY_N1_6
  151     0     7     0     0
SMALL
NO_CHARGES


@<TRIPOS>ATOM
      1 OG         11.9300   27.4100   32.5900 O.3       1 SER1        0.0000 
      2 OG         11.3700   26.5600   33.6900 O.3       1 SER1        0.0000 
      3 OG         12.0500   24.8600   34.7600 O.3       1 SER1        0.0000 
      4 OG         12.8200   33.6300   39.8600 O.3       1 SER1        0.0000 
      5 N          12.4900   28.2600   31.4800 N.am      2 ALA2        0.0000 
      6 N          10.2600   24.8700   35.9000 N.am      2 ALA2        0.0000 
      7 N          13.1400   29.1500   32.5000 N.am      2 ALA2        0.0000 
      8 N          15.6000   27.4400   32.4200 N.am      2 ALA2        0.0000 
      9 N          13.7900   30.0500   33.5100 N.am      2 ALA2        0.0000 
     10 O          15.0200   29.1900   33.4800 O.2       2 ALA2        0.0000 
     11 O          14.4700   28.3400   34.5800 O.2       2 ALA2        0.0000 
     12 O          15.1200   29.2300   35.6000 O.2       2 ALA2        0.0000 
     13 O          14.5600   28.3800   36.7000 O.2       2 ALA2        0.0000 
     14 O          16.3500   28.3800   35.5600 O.2       2 ALA2        0.0000 
     15 O          13.9800   30.1300   37.7500 O.2       2 ALA2        0.0000 
     16 O          15.2100   29.2700   37.7100 O.2       2 ALA2        0.0000 
     17 O          17.5600   30.1200   35.4700 O.2       2 ALA2        0.0000 
     18 O          17.0000   29.2700   36.5700 O.2       2 ALA2        0.0000 
     19 N          12.1700   32.7400   38.8400 N.am      2 ALA2        0.0000 
     20 O          13.9600   32.7300   37.7000 O.2       2 ALA2        0.0000 
     21 O          13.4000   31.8800   38.8000 O.2       2 ALA2        0.0000 
     22 N          12.8400   31.0300   39.9100 N.am      2 ALA2        0.0000 
     23 O          14.6300   31.0200   38.7700 O.2       2 ALA2        0.0000 
     24 O          15.8600   30.1700   38.7300 O.2       2 ALA2        0.0000 
     25 N          18.7700   31.8600   35.3800 N.am      2 ALA2        0.0000 
     26 O          18.2100   31.0100   36.4800 O.2       2 ALA2        0.0000 
     27 O          17.6500   30.1600   37.5900 O.2       2 ALA2        0.0000 
     28 N          12.2600   32.7800   40.9600 N.am      2 ALA2        0.0000 
     29 N          13.4900   31.9200   40.9200 N.am      2 ALA2        0.0000 
     30 N          12.9400   31.0700   42.0300 N.am      2 ALA2        0.0000 
     31 O          15.8400   32.7600   38.6800 O.2       2 ALA2        0.0000 
     32 O          15.2800   31.9100   39.7800 O.2       2 ALA2        0.0000 
     33 O          17.6300   32.7600   37.5400 O.2       2 ALA2        0.0000 
     34 N          18.8600   31.9000   37.5000 N.am      2 ALA2        0.0000 
     35 N          18.3000   31.0500   38.6000 N.am      2 ALA2        0.0000 
     36 O          20.0900   31.0400   37.4600 O.2       2 ALA2        0.0000 
     37 N          18.9500   31.9400   39.6200 N.am      2 ALA2        0.0000 
     38 N          20.7400   31.9400   38.4800 N.am      2 ALA2        0.0000 
     39 N          20.1800   31.0900   39.5800 N.am      2 ALA2        0.0000 
     40 N          21.4200   30.2300   39.5400 N.am      2 ALA2        0.0000 
     41 O          22.7400   29.4200   41.6200 O.2       2 ALA2        0.0000 
     42 OD1        10.8200   25.7200   34.7900 O.co2     3 ASP3        0.0000 
     43 OD1        12.5800   28.3100   33.6000 O.co2     3 ASP3        0.0000 
     44 OD1        12.0300   27.4600   34.7100 O.co2     3 ASP3        0.0000 
     45 OD1        10.9100   25.7600   36.9100 O.co2     3 ASP3        0.0000 
     46 OD1        12.7000   25.7500   35.7700 O.co2     3 ASP3        0.0000 
     47 OD1        12.1400   24.9000   36.8800 O.co2     3 ASP3        0.0000 
     48 OD1        11.5800   24.0500   37.9800 O.co2     3 ASP3        0.0000 
     49 OD1        13.9300   24.8900   35.7300 O.co2     3 ASP3        0.0000 
     50 OD1        13.3700   24.0400   36.8400 O.co2     3 ASP3        0.0000 
     51 OD1        15.7200   24.8900   34.5900 O.co2     3 ASP3        0.0000 
     52 OD1        15.1600   24.0400   35.7000 O.co2     3 ASP3        0.0000 
     53 OD1        13.2300   29.2000   34.6200 O.co2     3 ASP3        0.0000 
     54 OD1        12.6800   28.3500   35.7200 O.co2     3 ASP3        0.0000 
     55 OD1        13.3500   26.6400   36.7900 O.co2     3 ASP3        0.0000 
     56 OD1        12.7900   25.7900   37.8900 O.co2     3 ASP3        0.0000 
     57 OD1        14.5800   25.7900   36.7500 O.co2     3 ASP3        0.0000 
     58 OD1        16.3700   25.7800   35.6100 O.co2     3 ASP3        0.0000 
     59 OD1        17.6000   24.9200   35.5700 O.co2     3 ASP3        0.0000 
     60 OD1        13.3300   29.2400   36.7400 O.co2     3 ASP3        0.0000 
     61 OD1        12.7700   28.3900   37.8400 O.co2     3 ASP3        0.0000 
     62 OD1        14.0000   27.5300   37.8000 O.co2     3 ASP3        0.0000 
     63 OD1        13.4400   26.6800   38.9100 O.co2     3 ASP3        0.0000 
     64 OD1        15.2300   26.6800   37.7600 O.co2     3 ASP3        0.0000 
     65 OD1        17.0200   26.6700   36.6200 O.co2     3 ASP3        0.0000 
     66 OD1        18.2500   25.8100   36.5900 O.co2     3 ASP3        0.0000 
     67 OD1        11.5200   31.8400   37.8300 O.co2     3 ASP3        0.0000 
     68 OD1        12.7500   30.9900   37.7900 O.co2     3 ASP3        0.0000 
     69 OD1        12.1900   30.1400   38.8900 O.co2     3 ASP3        0.0000 
     70 OD1        13.4200   29.2800   38.8600 O.co2     3 ASP3        0.0000 
     71 OD1        14.6500   28.4300   38.8200 O.co2     3 ASP3        0.0000 
     72 OD1        15.8800   27.5700   38.7800 O.co2     3 ASP3        0.0000 
     73 OD1        17.1200   26.7100   38.7400 O.co2     3 ASP3        0.0000 
     74 OD1        12.2900   30.1800   41.0100 O.co2     3 ASP3        0.0000 
     75 OD1        14.0700   30.1700   39.8700 O.co2     3 ASP3        0.0000 
     76 OD1        13.5200   29.3200   40.9700 O.co2     3 ASP3        0.0000 
     77 OD1        14.7500   28.4700   40.9400 O.co2     3 ASP3        0.0000 
     78 OD1        16.5400   28.4600   39.8000 O.co2     3 ASP3        0.0000 
     79 OD1        13.3800   34.4800   38.7500 O.co2     3 ASP3        0.0000 
     80 OD1        14.6100   33.6200   38.7200 O.co2     3 ASP3        0.0000 
     81 OD1        14.1700   30.2200   41.9900 O.co2     3 ASP3        0.0000 
     82 OD1        12.3600   32.8200   43.0800 O.co2     3 ASP3        0.0000 
     83 OD1        13.5900   31.9600   43.0400 O.co2     3 ASP3        0.0000 
     84 NZ         15.2600   34.5100   39.7300 N.4       4 LYS4        0.0000 
     85 NZ         14.7000   33.6600   40.8300 N.4       4 LYS4        0.0000 
     86 NZ         16.4900   33.6600   39.6900 N.4       4 LYS4        0.0000 
     87 NZ         15.9300   32.8100   40.8000 N.4       4 LYS4        0.0000 
     88 NZ         15.3800   31.9600   41.9000 N.4       4 LYS4        0.0000 
     89 CZ         11.4900   24.0100   35.8600 C.ar      5 PHE5        0.0000 
     90 CZ         10.9300   23.1600   36.9600 C.ar      5 PHE5        0.0000 
     91 CZ         13.2800   24.0000   34.7200 C.ar      5 PHE5        0.0000 
     92 CZ         15.6200   24.8400   32.4700 C.ar      5 PHE5        0.0000 
     93 CZ         16.2800   25.7400   33.4900 C.ar      5 PHE5        0.0000 
     94 CZ         16.9500   24.0300   34.5600 C.ar      5 PHE5        0.0000 
     95 CZ         18.1600   25.7700   34.4700 C.ar      5 PHE5        0.0000 
     96 CZ         19.4400   30.1500   36.4500 C.ar      5 PHE5        0.0000 
     97 CZ         20.6700   29.3000   36.4100 C.ar      5 PHE5        0.0000 
     98 CZ         19.0000   26.7500   39.7200 C.ar      5 PHE5        0.0000 
     99 CZ         20.6500   31.8900   36.3600 C.ar      5 PHE5        0.0000 
    100 CZ         20.7600   29.3400   38.5300 C.ar      5 PHE5        0.0000 
    101 CZ         20.2100   28.4900   39.6300 C.ar      5 PHE5        0.0000 
    102 CZ         21.9900   28.4800   38.4900 C.ar      5 PHE5        0.0000 
    103 CZ         21.4400   27.6300   39.5900 C.ar      5 PHE5        0.0000 
    104 CZ         20.8600   29.3800   40.6500 C.ar      5 PHE5        0.0000 
    105 CZ         22.6500   29.3700   39.5100 C.ar      5 PHE5        0.0000 
    106 CZ         22.0900   28.5200   40.6100 C.ar      5 PHE5        0.0000 
    107 CA         13.7200   27.4100   31.4500 C.3       6 GLY6        0.0000 
    108 CA         13.1600   26.5600   32.5500 C.3       6 GLY6        0.0000 
    109 CA         12.6000   25.7100   33.6500 C.3       6 GLY6        0.0000 
    110 CA         14.9500   26.5500   31.4100 C.3       6 GLY6        0.0000 
    111 CA         14.9300   29.1500   31.3600 C.3       6 GLY6        0.0000 
    112 CA         15.0400   26.5900   33.5300 C.3       6 GLY6        0.0000 
    113 CA         14.4900   25.7400   34.6300 C.3       6 GLY6        0.0000 
    114 CA         16.8300   26.5900   32.3900 C.3       6 GLY6        0.0000 
    115 CA         16.2500   28.3300   33.4400 C.3       6 GLY6        0.0000 
    116 CA         17.4800   27.4800   33.4000 C.3       6 GLY6        0.0000 
    117 CA         16.9000   29.2300   34.4500 C.3       6 GLY6        0.0000 
    118 CA         18.7900   29.2600   35.4300 C.3       6 GLY6        0.0000 
    119 CA         12.7300   33.5900   37.7400 C.3       6 GLY6        0.0000 
    120 CA         19.4200   32.7500   36.4000 C.3       6 GLY6        0.0000 
    121 CA         21.3200   30.1900   37.4200 C.3       6 GLY6        0.0000 
    122 CA         13.4700   34.5200   40.8700 C.3       6 GLY6        0.0000 
    123 CA         12.9200   33.6700   41.9800 C.3       6 GLY6        0.0000 
    124 CA         14.1500   32.8100   41.9400 C.3       6 GLY6        0.0000 
    125 DU         14.3700   28.3000   32.4600 H         7 CUB7        0.0000 
    126 DU         13.8100   27.4500   33.5600 H         7 CUB7        0.0000 
    127 DU         13.2600   26.6000   34.6700 H         7 CUB7        0.0000 
    128 DU         13.9100   27.4900   35.6800 H         7 CUB7        0.0000 
    129 DU         15.7000   27.4800   34.5400 H         7 CUB7        0.0000 
    130 DU         15.1400   26.6300   35.6500 H         7 CUB7        0.0000 
    131 DU         16.9300   26.6300   34.5000 H         7 CUB7        0.0000 
    132 DU         15.7900   27.5300   36.6600 H         7 CUB7        0.0000 
    133 DU         17.5800   27.5200   35.5200 H         7 CUB7        0.0000 
    134 DU         18.8100   26.6600   35.4800 H         7 CUB7        0.0000 
    135 DU         16.4400   28.4200   37.6800 H         7 CUB7        0.0000 
    136 DU         18.2300   28.4100   36.5400 H         7 CUB7        0.0000 
    137 DU         17.6700   27.5600   37.6400 H         7 CUB7        0.0000 
    138 DU         19.4600   27.5500   36.5000 H         7 CUB7        0.0000 
    139 DU         15.3000   29.3200   39.8300 H         7 CUB7        0.0000 
    140 DU         17.0900   29.3100   38.6900 H         7 CUB7        0.0000 
    141 DU         18.8800   29.3000   37.5500 H         7 CUB7        0.0000 
    142 DU         18.3200   28.4500   38.6500 H         7 CUB7        0.0000 
    143 DU         20.1100   28.4500   37.5100 H         7 CUB7        0.0000 
    144 DU         19.5500   27.6000   38.6200 H         7 CUB7        0.0000 
    145 DU         14.0500   32.7700   39.8200 H         7 CUB7        0.0000 
    146 DU         14.7300   31.0600   40.8900 H         7 CUB7        0.0000 
    147 DU         16.5100   31.0600   39.7400 H         7 CUB7        0.0000 
    148 DU         15.9600   30.2100   40.8500 H         7 CUB7        0.0000 
    149 DU         17.7400   30.2000   39.7100 H         7 CUB7        0.0000 
    150 DU         19.5300   30.1900   38.5700 H         7 CUB7        0.0000 
    151 DU         18.9800   29.3400   39.6700 H         7 CUB7        0.0000 
@<TRIPOS>BOND
@<TRIPOS>SUBSTRUCTURE
     1 SER1        1 GROUP   
     2 ALA2        5 GROUP   
     3 ASP3       42 GROUP   
     4 LYS4       84 GROUP   
     5 PHE5       89 GROUP   
     6 GLY6      107 GROUP   
     7 CUB7      125 GROUP   
@<TRIPOS>SET

