#    Name: 6a88_2_ANP_CAVITY_N1_4
#    Modification time : Fri May 22 19:27:12 2020

@<TRIPOS>MOLECULE
6a88_2_ANP_CAVITY_N1_4
  118     0     7     0     0
SMALL
NO_CHARGES


@<TRIPOS>ATOM
      1 OG        -15.8100  -31.6600   -8.5400 O.3       1 SER1        0.0000 
      2 OG         -9.9100  -28.2400  -13.1200 O.3       1 SER1        0.0000 
      3 OG         -9.2600  -27.3500  -12.1000 O.3       1 SER1        0.0000 
      4 OG         -8.6100  -26.4500  -11.0900 O.3       1 SER1        0.0000 
      5 O         -11.1200  -29.9800  -13.0300 O.2       2 ALA2        0.0000 
      6 N         -11.6800  -30.8300  -11.9300 N.am      2 ALA2        0.0000 
      7 N         -12.9300  -27.3700  -11.9400 N.am      2 ALA2        0.0000 
      8 N         -12.2600  -29.0800  -10.8700 N.am      2 ALA2        0.0000 
      9 N         -12.8100  -29.9300   -9.7700 N.am      2 ALA2        0.0000 
     10 N         -13.9300  -31.6300   -7.5600 N.am      2 ALA2        0.0000 
     11 N         -10.4700  -29.0900  -12.0200 N.am      2 ALA2        0.0000 
     12 N         -11.0300  -29.9400  -10.9100 N.am      2 ALA2        0.0000 
     13 N         -12.1600  -29.0400   -8.7600 N.am      2 ALA2        0.0000 
     14 N         -12.7200  -29.8900   -7.6500 N.am      2 ALA2        0.0000 
     15 N         -13.2800  -30.7400   -6.5500 N.am      2 ALA2        0.0000 
     16 N         -13.8300  -31.5900   -5.4400 N.am      2 ALA2        0.0000 
     17 N         -10.3700  -29.0400   -9.9000 N.am      2 ALA2        0.0000 
     18 N         -10.9300  -29.8900   -8.7900 N.am      2 ALA2        0.0000 
     19 N         -12.6000  -32.4400   -5.4800 N.am      2 ALA2        0.0000 
     20 N          -9.7000  -30.7500   -8.8300 N.am      2 ALA2        0.0000 
     21 N         -10.8200  -32.4500   -6.6200 N.am      2 ALA2        0.0000 
     22 N          -9.0300  -32.4600   -7.7600 N.am      2 ALA2        0.0000 
     23 N          -9.5900  -33.3100   -6.6600 N.am      2 ALA2        0.0000 
     24 N         -13.7400  -31.5400   -3.3300 N.am      2 ALA2        0.0000 
     25 N         -10.8400  -29.8500   -6.6700 N.am      2 ALA2        0.0000 
     26 N         -12.5100  -32.4000   -3.3600 N.am      2 ALA2        0.0000 
     27 N          -9.6100  -30.7100   -6.7100 N.am      2 ALA2        0.0000 
     28 N          -6.1700  -25.5700  -11.2100 N.am      2 ALA2        0.0000 
     29 OD1        -9.8000  -30.7900  -10.9500 O.co2     3 ASP3        0.0000 
     30 OD1        -9.8200  -28.2000  -11.0000 O.co2     3 ASP3        0.0000 
     31 OD1        -8.4700  -31.6100   -8.8700 O.co2     3 ASP3        0.0000 
     32 OD1       -13.4200  -25.5800   -8.7700 O.co2     3 ASP3        0.0000 
     33 OD1       -13.9700  -26.4300   -7.6600 O.co2     3 ASP3        0.0000 
     34 OD1       -11.6300  -25.5900   -9.9100 O.co2     3 ASP3        0.0000 
     35 OD1       -12.1900  -26.4400   -8.8100 O.co2     3 ASP3        0.0000 
     36 OD1       -12.7400  -27.2900   -7.7000 O.co2     3 ASP3        0.0000 
     37 OD1       -10.4000  -26.4500   -9.9500 O.co2     3 ASP3        0.0000 
     38 OD1       -10.9500  -27.3000   -8.8400 O.co2     3 ASP3        0.0000 
     39 OD1       -11.5100  -28.1500   -7.7400 O.co2     3 ASP3        0.0000 
     40 OD1        -9.1700  -27.3000   -9.9800 O.co2     3 ASP3        0.0000 
     41 OD1        -7.3800  -27.3100  -11.1300 O.co2     3 ASP3        0.0000 
     42 OD1        -8.4900  -29.0100   -8.9200 O.co2     3 ASP3        0.0000 
     43 OD1        -9.0500  -29.8600   -7.8200 O.co2     3 ASP3        0.0000 
     44 OD1        -7.8200  -30.7200   -7.8500 O.co2     3 ASP3        0.0000 
     45 OD1        -8.3800  -31.5600   -6.7500 O.co2     3 ASP3        0.0000 
     46 OD1        -9.4900  -33.2600   -4.5400 O.co2     3 ASP3        0.0000 
     47 OD1        -8.2600  -34.1200   -4.5800 O.co2     3 ASP3        0.0000 
     48 OD1       -12.6500  -27.2500   -5.5800 O.co2     3 ASP3        0.0000 
     49 OD1        -9.7500  -25.5600   -8.9300 O.co2     3 ASP3        0.0000 
     50 OD1       -10.8600  -27.2500   -6.7200 O.co2     3 ASP3        0.0000 
     51 OD1       -11.9700  -28.9500   -4.5200 O.co2     3 ASP3        0.0000 
     52 OD1        -8.5100  -26.4100   -8.9700 O.co2     3 ASP3        0.0000 
     53 OD1        -9.0700  -27.2600   -7.8700 O.co2     3 ASP3        0.0000 
     54 OD1        -9.6300  -28.1100   -6.7600 O.co2     3 ASP3        0.0000 
     55 OD1       -10.1900  -28.9600   -5.6600 O.co2     3 ASP3        0.0000 
     56 OD1        -6.7300  -26.4200  -10.1100 O.co2     3 ASP3        0.0000 
     57 OD1        -7.2800  -27.2700   -9.0100 O.co2     3 ASP3        0.0000 
     58 OD1        -7.8400  -28.1200   -7.9000 O.co2     3 ASP3        0.0000 
     59 OD1        -8.4000  -28.9700   -6.8000 O.co2     3 ASP3        0.0000 
     60 OD1        -8.9600  -29.8200   -5.7000 O.co2     3 ASP3        0.0000 
     61 OD1        -7.7200  -30.6700   -5.7300 O.co2     3 ASP3        0.0000 
     62 OD1        -8.2800  -31.5200   -4.6300 O.co2     3 ASP3        0.0000 
     63 OD1        -7.0500  -32.3800   -4.6700 O.co2     3 ASP3        0.0000 
     64 OD1        -7.6100  -33.2300   -3.5600 O.co2     3 ASP3        0.0000 
     65 OD1        -6.6300  -26.3800   -7.9900 O.co2     3 ASP3        0.0000 
     66 NZ        -11.3700  -33.3000   -5.5200 N.4       4 LYS4        0.0000 
     67 NZ        -10.1400  -34.1600   -5.5600 N.4       4 LYS4        0.0000 
     68 NZ         -8.3500  -34.1600   -6.7000 N.4       4 LYS4        0.0000 
     69 NZ        -11.2800  -33.2600   -3.4000 N.4       4 LYS4        0.0000 
     70 NZ         -7.1500  -32.4200   -6.7900 N.4       4 LYS4        0.0000 
     71 NZ         -7.7000  -33.2700   -5.6800 N.4       4 LYS4        0.0000 
     72 CZ        -16.3900  -29.9100   -7.4900 C.ar      5 PHE5        0.0000 
     73 CZ        -15.1600  -30.7700   -7.5300 C.ar      5 PHE5        0.0000 
     74 CZ        -13.5100  -25.6300  -10.8900 C.ar      5 PHE5        0.0000 
     75 CZ        -14.0700  -26.4800   -9.7800 C.ar      5 PHE5        0.0000 
     76 CZ        -15.7400  -29.0200   -6.4700 C.ar      5 PHE5        0.0000 
     77 CZ        -12.2800  -26.4800  -10.9200 C.ar      5 PHE5        0.0000 
     78 CZ        -13.2100  -28.1000   -4.4800 C.ar      5 PHE5        0.0000 
     79 CZ        -13.7600  -28.9500   -3.3800 C.ar      5 PHE5        0.0000 
     80 CZ         -7.4000  -24.7100  -11.1800 C.ar      5 PHE5        0.0000 
     81 CZ         -7.9600  -25.5600  -10.0700 C.ar      5 PHE5        0.0000 
     82 CZ         -7.3100  -24.6700   -9.0600 C.ar      5 PHE5        0.0000 
     83 CA        -11.7900  -28.2700  -14.1000 C.3       6 GLY6        0.0000 
     84 CA        -12.3500  -29.1200  -12.9900 C.3       6 GLY6        0.0000 
     85 CA        -12.9100  -29.9700  -11.8900 C.3       6 GLY6        0.0000 
     86 CA        -12.3700  -26.5200  -13.0400 C.3       6 GLY6        0.0000 
     87 CA        -13.4900  -28.2200  -10.8400 C.3       6 GLY6        0.0000 
     88 CA        -14.0500  -29.0700   -9.7300 C.3       6 GLY6        0.0000 
     89 CA        -14.6000  -29.9200   -8.6300 C.3       6 GLY6        0.0000 
     90 CA        -11.1400  -27.3800  -13.0800 C.3       6 GLY6        0.0000 
     91 CA        -16.3000  -29.8700   -5.3700 C.3       6 GLY6        0.0000 
     92 CA        -11.7200  -25.6300  -12.0300 C.3       6 GLY6        0.0000 
     93 CA        -10.4900  -26.4900  -12.0700 C.3       6 GLY6        0.0000 
     94 CA        -11.0500  -27.3400  -10.9600 C.3       6 GLY6        0.0000 
     95 CA         -9.8400  -25.6000  -11.0500 C.3       6 GLY6        0.0000 
     96 CA         -6.0700  -25.5300   -9.1000 C.3       6 GLY6        0.0000 
     97 DU        -11.7000  -28.2300  -11.9800 H         7 CUB7        0.0000 
     98 DU        -12.8400  -27.3300   -9.8200 H         7 CUB7        0.0000 
     99 DU        -13.3900  -28.1800   -8.7200 H         7 CUB7        0.0000 
    100 DU        -13.9500  -29.0300   -7.6100 H         7 CUB7        0.0000 
    101 DU        -14.5100  -29.8800   -6.5100 H         7 CUB7        0.0000 
    102 DU        -15.0700  -30.7300   -5.4100 H         7 CUB7        0.0000 
    103 DU        -11.6100  -28.1900   -9.8600 H         7 CUB7        0.0000 
    104 DU        -13.3000  -28.1400   -6.6000 H         7 CUB7        0.0000 
    105 DU        -13.8600  -28.9900   -5.5000 H         7 CUB7        0.0000 
    106 DU        -14.4100  -29.8400   -4.3900 H         7 CUB7        0.0000 
    107 DU        -12.0700  -29.0000   -6.6400 H         7 CUB7        0.0000 
    108 DU        -12.6300  -29.8400   -5.5300 H         7 CUB7        0.0000 
    109 DU        -13.1800  -30.6900   -4.4300 H         7 CUB7        0.0000 
    110 DU         -9.7200  -28.1500   -8.8800 H         7 CUB7        0.0000 
    111 DU        -10.2800  -29.0000   -7.7800 H         7 CUB7        0.0000 
    112 DU        -11.4000  -30.7000   -5.5700 H         7 CUB7        0.0000 
    113 DU        -11.9500  -31.5500   -4.4700 H         7 CUB7        0.0000 
    114 DU        -10.1600  -31.5600   -5.6100 H         7 CUB7        0.0000 
    115 DU        -10.7200  -32.4100   -4.5000 H         7 CUB7        0.0000 
    116 DU         -8.9300  -32.4100   -5.6500 H         7 CUB7        0.0000 
    117 DU        -11.3000  -30.6600   -3.4500 H         7 CUB7        0.0000 
    118 DU         -9.5100  -30.6700   -4.5900 H         7 CUB7        0.0000 
@<TRIPOS>BOND
@<TRIPOS>SUBSTRUCTURE
     1 SER1        1 GROUP   
     2 ALA2        5 GROUP   
     3 ASP3       29 GROUP   
     4 LYS4       66 GROUP   
     5 PHE5       72 GROUP   
     6 GLY6       83 GROUP   
     7 CUB7       97 GROUP   
@<TRIPOS>SET

