#    Name: 6u0u_4_GTP
#    Modification time : Fri May 22 19:30:02 2020

@<TRIPOS>MOLECULE
6u0u_4_GTP
   32    34     1     0     1
SMALL
NO_CHARGES


@<TRIPOS>ATOM
      1 PG        364.5220  356.1100  343.9220 P.3       1 GTP501      0.0000 
      2 O1G       365.7380  356.6480  344.6460 O.co2     1 GTP501      0.0000 
      3 O2G       364.0620  354.8360  344.5920 O.co2     1 GTP501      0.0000 
      4 O3G       363.4170  357.1450  343.9660 O.co2     1 GTP501      0.0000 
      5 O3B       364.9290  355.7810  342.3500 O.3       1 GTP501      0.0000 
      6 PB        364.8690  356.9120  341.1430 P.3       1 GTP501      0.0000 
      7 O1B       363.6740  356.6130  340.2520 O.co2     1 GTP501      0.0000 
      8 O2B       366.1320  356.8640  340.3230 O.co2     1 GTP501      0.0000 
      9 O3A       364.6880  358.4100  341.8220 O.3       1 GTP501      0.0000 
     10 PA        363.5430  359.4880  341.2870 P.3       1 GTP501      0.0000 
     11 O1A       362.2490  359.2430  342.0600 O.co2     1 GTP501      0.0000 
     12 O2A       363.3270  359.2900  339.8070 O.co2     1 GTP501      0.0000 
     13 O5'       364.0380  361.0330  341.5450 O.3       1 GTP501      0.0000 
     14 C5'       363.1700  362.0390  341.1810 C.3       1 GTP501      0.0000 
     15 C4'       363.6140  362.6460  339.8060 C.3       1 GTP501      0.0000 
     16 O4'       362.8130  362.2340  338.8570 O.3       1 GTP501      0.0000 
     17 C3'       363.4680  364.1590  339.8470 C.3       1 GTP501      0.0000 
     18 O3'       364.4120  364.7530  339.0640 O.3       1 GTP501      0.0000 
     19 C2'       362.0650  364.4170  339.2570 C.3       1 GTP501      0.0000 
     20 O2'       362.0540  365.7490  338.5900 O.3       1 GTP501      0.0000 
     21 C1'       361.9060  363.4830  338.3850 C.3       1 GTP501      0.0000 
     22 N9        360.5050  363.0690  338.3390 N.pl3     1 GTP501      0.0000 
     23 C8        359.8730  362.5580  339.4340 C.2       1 GTP501      0.0000 
     24 N7        358.5900  362.2670  339.0810 N.2       1 GTP501      0.0000 
     25 C5        358.4320  362.5910  337.7990 C.2       1 GTP501      0.0000 
     26 C6        357.2180  362.4870  336.8520 C.2       1 GTP501      0.0000 
     27 O6        356.1850  362.0600  337.2560 O.2       1 GTP501      0.0000 
     28 N1        357.3310  362.9270  335.4810 N.am      1 GTP501      0.0000 
     29 C2        358.5910  363.4490  335.0070 C.2       1 GTP501      0.0000 
     30 N2        358.7250  363.8900  333.6310 N.pl3     1 GTP501      0.0000 
     31 N3        359.7550  363.5390  335.9240 N.2       1 GTP501      0.0000 
     32 C4        359.6320  363.0920  337.3360 C.2       1 GTP501      0.0000 
@<TRIPOS>BOND
     1    1    2 ar   
     2    1    3 ar   
     3    1    4 ar   
     4    1    5 1    
     5    5    6 1    
     6    6    7 ar   
     7    6    8 ar   
     8    6    9 1    
     9    9   10 1    
    10   10   11 ar   
    11   10   12 ar   
    12   10   13 1    
    13   13   14 1    
    14   14   15 1    
    15   15   16 1    
    16   15   17 1    
    17   16   21 1    
    18   17   18 1    
    19   17   19 1    
    20   19   20 1    
    21   19   21 1    
    22   21   22 1    
    23   22   23 1    
    24   22   32 1    
    25   23   24 2    
    26   24   25 1    
    27   25   26 1    
    28   25   32 2    
    29   26   27 2    
    30   26   28 am   
    31   28   29 1    
    32   29   30 1    
    33   29   31 2    
    34   31   32 1    
@<TRIPOS>SUBSTRUCTURE
     1 GTP501      1 GROUP   
@<TRIPOS>SET
ATOM$ORANGE STATIC     ATOMS   COLORGROUP SYSTEM 
20 14 14 15 15 17 17 19 19 21 21 23 23 25 25 26 26 29 \
29 32 32 

