#    Name: 6u0u_10_GDP
#    Modification time : Fri May 22 19:30:48 2020

@<TRIPOS>MOLECULE
6u0u_10_GDP
   28    30     1     0     1
SMALL
NO_CHARGES


@<TRIPOS>ATOM
      1 PB        346.5600  407.0320  539.2490 P.3       1 GDP501      0.0000 
      2 O1B       345.6660  405.9680  538.6830 O.co2     1 GDP501      0.0000 
      3 O2B       346.5310  406.9550  540.7360 O.co2     1 GDP501      0.0000 
      4 O3B       347.9590  406.8210  538.7570 O.co2     1 GDP501      0.0000 
      5 O3A       346.0330  408.5290  538.7650 O.3       1 GDP501      0.0000 
      6 PA        344.9080  408.7780  537.5550 P.3       1 GDP501      0.0000 
      7 O1A       344.9290  407.6080  536.5700 O.co2     1 GDP501      0.0000 
      8 O2A       343.5070  408.9280  538.1910 O.co2     1 GDP501      0.0000 
      9 O5'       345.2670  410.1780  536.7330 O.3       1 GDP501      0.0000 
     10 C5'       345.1850  411.3670  537.4290 C.3       1 GDP501      0.0000 
     11 C4'       343.9930  412.1690  536.9440 C.3       1 GDP501      0.0000 
     12 O4'       342.9650  411.3020  536.0430 O.3       1 GDP501      0.0000 
     13 C3'       343.2630  412.5200  537.9470 C.3       1 GDP501      0.0000 
     14 O3'       343.8420  413.7050  538.5950 O.3       1 GDP501      0.0000 
     15 C2'       341.8860  412.8780  537.2670 C.3       1 GDP501      0.0000 
     16 O2'       341.8150  414.2020  537.0240 O.3       1 GDP501      0.0000 
     17 C1'       341.8970  412.1060  535.9580 C.3       1 GDP501      0.0000 
     18 N9        340.6130  411.3490  535.8180 N.pl3     1 GDP501      0.0000 
     19 C8        340.5000  410.4830  536.8300 C.2       1 GDP501      0.0000 
     20 N7        339.3240  409.8410  536.6510 N.2       1 GDP501      0.0000 
     21 C5        338.7410  410.3170  535.5520 C.2       1 GDP501      0.0000 
     22 C6        337.4290  409.9810  534.8720 C.2       1 GDP501      0.0000 
     23 O6        336.7300  409.1580  535.3230 O.2       1 GDP501      0.0000 
     24 N1        337.0410  410.6730  533.6620 N.am      1 GDP501      0.0000 
     25 C2        337.9020  411.6750  533.1180 C.2       1 GDP501      0.0000 
     26 N2        337.5120  412.4050  531.8650 N.pl3     1 GDP501      0.0000 
     27 N3        339.1530  411.9930  533.7760 N.2       1 GDP501      0.0000 
     28 C4        339.5450  411.2670  535.0290 C.2       1 GDP501      0.0000 
@<TRIPOS>BOND
     1    1    2 ar   
     2    1    3 ar   
     3    1    4 ar   
     4    1    5 1    
     5    5    6 1    
     6    6    7 ar   
     7    6    8 ar   
     8    6    9 1    
     9    9   10 1    
    10   10   11 1    
    11   11   12 1    
    12   11   13 1    
    13   12   17 1    
    14   13   14 1    
    15   13   15 1    
    16   15   16 1    
    17   15   17 1    
    18   17   18 1    
    19   18   19 1    
    20   18   28 1    
    21   19   20 2    
    22   20   21 1    
    23   21   22 1    
    24   21   28 2    
    25   22   23 2    
    26   22   24 am   
    27   24   25 1    
    28   25   26 1    
    29   25   27 2    
    30   27   28 1    
@<TRIPOS>SUBSTRUCTURE
     1 GDP501      1 GROUP   
@<TRIPOS>SET
ATOM$ORANGE STATIC     ATOMS   COLORGROUP SYSTEM 
20 10 10 11 11 13 13 15 15 17 17 19 19 21 21 22 22 25 \
25 28 28 

