#    Name: 6u0u_5_GTP
#    Modification time : Fri May 22 19:30:12 2020

@<TRIPOS>MOLECULE
6u0u_5_GTP
   32    34     1     0     1
SMALL
NO_CHARGES


@<TRIPOS>ATOM
      1 PG        346.7140  406.8420  499.6700 P.3       1 GTP501      0.0000 
      2 O1G       347.3250  407.9610  500.4860 O.co2     1 GTP501      0.0000 
      3 O2G       346.7610  405.5530  500.4590 O.co2     1 GTP501      0.0000 
      4 O3G       345.2790  407.1880  499.3350 O.co2     1 GTP501      0.0000 
      5 O3B       347.5690  406.6690  498.2640 O.3       1 GTP501      0.0000 
      6 PB        347.2920  407.6440  496.9560 P.3       1 GTP501      0.0000 
      7 O1B       346.3470  406.9380  495.9970 O.co2     1 GTP501      0.0000 
      8 O2B       348.5990  407.9370  496.2640 O.co2     1 GTP501      0.0000 
      9 O3A       346.6000  409.0540  497.4810 O.3       1 GTP501      0.0000 
     10 PA        345.2580  409.7360  496.7680 P.3       1 GTP501      0.0000 
     11 O1A       344.0120  409.2640  497.5120 O.co2     1 GTP501      0.0000 
     12 O2A       345.1870  409.3310  495.3150 O.co2     1 GTP501      0.0000 
     13 O5'       345.3370  411.3750  496.8570 O.3       1 GTP501      0.0000 
     14 C5'       344.1480  412.0670  496.8790 C.3       1 GTP501      0.0000 
     15 C4'       343.7760  412.5190  495.4240 C.3       1 GTP501      0.0000 
     16 O4'       343.0370  411.6060  494.8470 O.3       1 GTP501      0.0000 
     17 C3'       342.9180  413.7800  495.4890 C.3       1 GTP501      0.0000 
     18 O3'       343.4940  414.7900  494.7760 O.3       1 GTP501      0.0000 
     19 C2'       341.5770  413.3870  494.8290 C.3       1 GTP501      0.0000 
     20 O2'       341.0670  414.5320  494.0290 O.3       1 GTP501      0.0000 
     21 C1'       341.8830  412.4070  494.0550 C.3       1 GTP501      0.0000 
     22 N9        340.7040  411.5680  493.8520 N.pl3     1 GTP501      0.0000 
     23 C8        340.2740  410.6980  494.8080 C.2       1 GTP501      0.0000 
     24 N7        339.1630  410.0720  494.3320 N.2       1 GTP501      0.0000 
     25 C5        338.9100  410.5440  493.1120 C.2       1 GTP501      0.0000 
     26 C6        337.7940  410.2200  492.0880 C.2       1 GTP501      0.0000 
     27 O6        336.9600  409.4100  492.3440 O.2       1 GTP501      0.0000 
     28 N1        337.7670  410.9010  490.8160 N.am      1 GTP501      0.0000 
     29 C2        338.7830  411.8820  490.5130 C.2       1 GTP501      0.0000 
     30 N2        338.7610  412.5720  489.2370 N.pl3     1 GTP501      0.0000 
     31 N3        339.8490  412.1860  491.5030 N.2       1 GTP501      0.0000 
     32 C4        339.8760  411.4830  492.8130 C.2       1 GTP501      0.0000 
@<TRIPOS>BOND
     1    1    2 ar   
     2    1    3 ar   
     3    1    4 ar   
     4    1    5 1    
     5    5    6 1    
     6    6    7 ar   
     7    6    8 ar   
     8    6    9 1    
     9    9   10 1    
    10   10   11 ar   
    11   10   12 ar   
    12   10   13 1    
    13   13   14 1    
    14   14   15 1    
    15   15   16 1    
    16   15   17 1    
    17   16   21 1    
    18   17   18 1    
    19   17   19 1    
    20   19   20 1    
    21   19   21 1    
    22   21   22 1    
    23   22   23 1    
    24   22   32 1    
    25   23   24 2    
    26   24   25 1    
    27   25   26 1    
    28   25   32 2    
    29   26   27 2    
    30   26   28 am   
    31   28   29 1    
    32   29   30 1    
    33   29   31 2    
    34   31   32 1    
@<TRIPOS>SUBSTRUCTURE
     1 GTP501      1 GROUP   
@<TRIPOS>SET
ATOM$ORANGE STATIC     ATOMS   COLORGROUP SYSTEM 
20 14 14 15 15 17 17 19 19 21 21 23 23 25 25 26 26 29 \
29 32 32 

