#    Name: 6u0u_2_GTP
#    Modification time : Fri May 22 19:29:42 2020

@<TRIPOS>MOLECULE
6u0u_2_GTP
   32    34     1     0     1
SMALL
NO_CHARGES


@<TRIPOS>ATOM
      1 PG        363.7080  356.1720  509.1850 P.3       1 GTP501      0.0000 
      2 O1G       364.3470  355.5340  510.4030 O.co2     1 GTP501      0.0000 
      3 O2G       363.0210  355.1110  508.3540 O.co2     1 GTP501      0.0000 
      4 O3G       362.7000  357.2150  509.6210 O.co2     1 GTP501      0.0000 
      5 O3B       364.8660  356.9000  508.2530 O.3       1 GTP501      0.0000 
      6 PB        364.4720  357.7200  506.8710 P.3       1 GTP501      0.0000 
      7 O1B       363.1850  357.1430  506.3030 O.co2     1 GTP501      0.0000 
      8 O2B       365.5810  357.5800  505.8600 O.co2     1 GTP501      0.0000 
      9 O3A       364.2100  359.3100  507.2430 O.3       1 GTP501      0.0000 
     10 PA        363.0080  360.1900  506.5040 P.3       1 GTP501      0.0000 
     11 O1A       361.7130  360.0020  507.2890 O.co2     1 GTP501      0.0000 
     12 O2A       362.8390  359.6900  505.0910 O.co2     1 GTP501      0.0000 
     13 O5'       363.3900  361.7890  506.4640 O.3       1 GTP501      0.0000 
     14 C5'       362.3700  362.6780  506.2050 C.3       1 GTP501      0.0000 
     15 C4'       362.6810  363.4600  504.8830 C.3       1 GTP501      0.0000 
     16 O4'       361.8820  363.0540  503.9300 O.3       1 GTP501      0.0000 
     17 C3'       362.3800  364.9380  505.0820 C.3       1 GTP501      0.0000 
     18 O3'       363.2320  365.6910  504.3320 O.3       1 GTP501      0.0000 
     19 C2'       360.9390  365.0970  504.5510 C.3       1 GTP501      0.0000 
     20 O2'       360.7360  366.4860  504.0520 O.3       1 GTP501      0.0000 
     21 C1'       360.8700  364.2620  503.5750 C.3       1 GTP501      0.0000 
     22 N9        359.5040  363.7550  503.4740 N.pl3     1 GTP501      0.0000 
     23 C8        358.9170  363.0850  504.5060 C.2       1 GTP501      0.0000 
     24 N7        357.6570  362.7420  504.1220 N.2       1 GTP501      0.0000 
     25 C5        357.4700  363.1880  502.8820 C.2       1 GTP501      0.0000 
     26 C6        356.2570  363.1000  501.9310 C.2       1 GTP501      0.0000 
     27 O6        355.2630  362.5560  502.2890 O.2       1 GTP501      0.0000 
     28 N1        356.3230  363.6860  500.6120 N.am      1 GTP501      0.0000 
     29 C2        357.5380  364.3470  500.1990 C.2       1 GTP501      0.0000 
     30 N2        357.6230  364.9370  498.8760 N.pl3     1 GTP501      0.0000 
     31 N3        358.7020  364.4250  501.1190 N.2       1 GTP501      0.0000 
     32 C4        358.6260  363.8230  502.4760 C.2       1 GTP501      0.0000 
@<TRIPOS>BOND
     1    1    2 ar   
     2    1    3 ar   
     3    1    4 ar   
     4    1    5 1    
     5    5    6 1    
     6    6    7 ar   
     7    6    8 ar   
     8    6    9 1    
     9    9   10 1    
    10   10   11 ar   
    11   10   12 ar   
    12   10   13 1    
    13   13   14 1    
    14   14   15 1    
    15   15   16 1    
    16   15   17 1    
    17   16   21 1    
    18   17   18 1    
    19   17   19 1    
    20   19   20 1    
    21   19   21 1    
    22   21   22 1    
    23   22   23 1    
    24   22   32 1    
    25   23   24 2    
    26   24   25 1    
    27   25   26 1    
    28   25   32 2    
    29   26   27 2    
    30   26   28 am   
    31   28   29 1    
    32   29   30 1    
    33   29   31 2    
    34   31   32 1    
@<TRIPOS>SUBSTRUCTURE
     1 GTP501      1 GROUP   
@<TRIPOS>SET
ATOM$ORANGE STATIC     ATOMS   COLORGROUP SYSTEM 
20 14 14 15 15 17 17 19 19 21 21 23 23 25 25 26 26 29 \
29 32 32 

