#    Name: 6u0u_12_GDP
#    Modification time : Fri May 22 19:31:08 2020

@<TRIPOS>MOLECULE
6u0u_12_GDP
   28    30     1     0     1
SMALL
NO_CHARGES


@<TRIPOS>ATOM
      1 PB        346.4720  405.9880  373.9840 P.3       1 GDP501      0.0000 
      2 O1B       345.9560  404.7380  373.3380 O.co2     1 GDP501      0.0000 
      3 O2B       346.4790  405.8170  375.4760 O.co2     1 GDP501      0.0000 
      4 O3B       347.8530  406.2630  373.5000 O.co2     1 GDP501      0.0000 
      5 O3A       345.4930  407.2590  373.5700 O.3       1 GDP501      0.0000 
      6 PA        345.3210  407.7830  371.9950 P.3       1 GDP501      0.0000 
      7 O1A       346.5490  407.3650  371.1900 O.co2     1 GDP501      0.0000 
      8 O2A       344.0680  407.1420  371.3580 O.co2     1 GDP501      0.0000 
      9 O5'       345.1790  409.4410  371.9930 O.3       1 GDP501      0.0000 
     10 C5'       344.1380  410.0120  372.7080 C.3       1 GDP501      0.0000 
     11 C4'       343.5010  411.1060  371.8700 C.3       1 GDP501      0.0000 
     12 O4'       342.4650  410.4660  370.7970 O.3       1 GDP501      0.0000 
     13 C3'       342.8230  411.9090  372.6300 C.3       1 GDP501      0.0000 
     14 O3'       343.1630  413.2980  372.2920 O.3       1 GDP501      0.0000 
     15 C2'       341.3120  411.6530  372.2780 C.3       1 GDP501      0.0000 
     16 O2'       340.6000  412.7870  372.4120 O.3       1 GDP501      0.0000 
     17 C1'       341.4030  411.2680  370.8210 C.3       1 GDP501      0.0000 
     18 N9        340.1720  410.5520  370.3720 N.pl3     1 GDP501      0.0000 
     19 C8        339.9340  409.5220  371.1860 C.2       1 GDP501      0.0000 
     20 N7        338.8150  408.9250  370.7170 N.2       1 GDP501      0.0000 
     21 C5        338.3920  409.5900  369.6420 C.2       1 GDP501      0.0000 
     22 C6        337.2100  409.3880  368.7120 C.2       1 GDP501      0.0000 
     23 O6        336.4610  408.5060  368.8940 O.2       1 GDP501      0.0000 
     24 N1        336.9990  410.2930  367.6040 N.am      1 GDP501      0.0000 
     25 C2        337.9090  411.3740  367.3860 C.2       1 GDP501      0.0000 
     26 N2        337.7040  412.3210  366.2390 N.pl3     1 GDP501      0.0000 
     27 N3        339.0370  411.5560  368.2770 N.2       1 GDP501      0.0000 
     28 C4        339.2430  410.6150  369.4280 C.2       1 GDP501      0.0000 
@<TRIPOS>BOND
     1    1    2 ar   
     2    1    3 ar   
     3    1    4 ar   
     4    1    5 1    
     5    5    6 1    
     6    6    7 ar   
     7    6    8 ar   
     8    6    9 1    
     9    9   10 1    
    10   10   11 1    
    11   11   12 1    
    12   11   13 1    
    13   12   17 1    
    14   13   14 1    
    15   13   15 1    
    16   15   16 1    
    17   15   17 1    
    18   17   18 1    
    19   18   19 1    
    20   18   28 1    
    21   19   20 2    
    22   20   21 1    
    23   21   22 1    
    24   21   28 2    
    25   22   23 2    
    26   22   24 am   
    27   24   25 1    
    28   25   26 1    
    29   25   27 2    
    30   27   28 1    
@<TRIPOS>SUBSTRUCTURE
     1 GDP501      1 GROUP   
@<TRIPOS>SET
ATOM$ORANGE STATIC     ATOMS   COLORGROUP SYSTEM 
20 10 10 11 11 13 13 15 15 17 17 19 19 21 21 22 22 25 \
25 28 28 

