#    Name: 6u0u_3_GTP
#    Modification time : Fri May 22 19:29:52 2020

@<TRIPOS>MOLECULE
6u0u_3_GTP
   32    34     1     0     1
SMALL
NO_CHARGES


@<TRIPOS>ATOM
      1 PG        363.3770  356.4110  426.7000 P.3       1 GTP501      0.0000 
      2 O1G       363.6350  355.5150  427.8930 O.co2     1 GTP501      0.0000 
      3 O2G       362.5410  355.6710  425.6810 O.co2     1 GTP501      0.0000 
      4 O3G       362.6510  357.6650  427.1420 O.co2     1 GTP501      0.0000 
      5 O3B       364.8160  356.8360  426.0010 O.3       1 GTP501      0.0000 
      6 PB        364.8600  357.8310  424.6830 P.3       1 GTP501      0.0000 
      7 O1B       363.7270  357.4590  423.7410 O.co2     1 GTP501      0.0000 
      8 O2B       366.1760  357.6900  423.9610 O.co2     1 GTP501      0.0000 
      9 O3A       364.6320  359.3810  425.2030 O.3       1 GTP501      0.0000 
     10 PA        363.3480  360.3000  424.6830 P.3       1 GTP501      0.0000 
     11 O1A       362.0800  359.8220  425.3850 O.co2     1 GTP501      0.0000 
     12 O2A       363.1920  360.1440  423.1900 O.co2     1 GTP501      0.0000 
     13 O5'       363.6400  361.8730  425.0590 O.3       1 GTP501      0.0000 
     14 C5'       362.6630  362.8020  424.7840 C.3       1 GTP501      0.0000 
     15 C4'       362.7930  363.2640  423.2930 C.3       1 GTP501      0.0000 
     16 O4'       361.9660  362.5710  422.5540 O.3       1 GTP501      0.0000 
     17 C3'       362.3640  364.7210  423.1780 C.3       1 GTP501      0.0000 
     18 O3'       363.3110  365.4460  422.5170 O.3       1 GTP501      0.0000 
     19 C2'       361.0630  364.7040  422.3460 C.3       1 GTP501      0.0000 
     20 O2'       361.0640  365.8770  421.4310 O.3       1 GTP501      0.0000 
     21 C1'       361.1320  363.6190  421.6590 C.3       1 GTP501      0.0000 
     22 N9        359.7900  363.0960  421.4230 N.pl3     1 GTP501      0.0000 
     23 C8        359.2250  362.1620  422.2400 C.2       1 GTP501      0.0000 
     24 N7        357.9830  361.8830  421.7570 N.2       1 GTP501      0.0000 
     25 C5        357.7850  362.6260  420.6690 C.2       1 GTP501      0.0000 
     26 C6        356.5860  362.7460  419.6990 C.2       1 GTP501      0.0000 
     27 O6        355.6050  362.0960  419.8750 O.2       1 GTP501      0.0000 
     28 N1        356.6550  363.6590  418.5800 N.am      1 GTP501      0.0000 
     29 C2        357.8500  364.4500  418.3760 C.2       1 GTP501      0.0000 
     30 N2        357.9370  365.3710  417.2560 N.pl3     1 GTP501      0.0000 
     31 N3        358.9960  364.3240  419.3130 N.2       1 GTP501      0.0000 
     32 C4        358.9190  363.3840  420.4630 C.2       1 GTP501      0.0000 
@<TRIPOS>BOND
     1    1    2 ar   
     2    1    3 ar   
     3    1    4 ar   
     4    1    5 1    
     5    5    6 1    
     6    6    7 ar   
     7    6    8 ar   
     8    6    9 1    
     9    9   10 1    
    10   10   11 ar   
    11   10   12 ar   
    12   10   13 1    
    13   13   14 1    
    14   14   15 1    
    15   15   16 1    
    16   15   17 1    
    17   16   21 1    
    18   17   18 1    
    19   17   19 1    
    20   19   20 1    
    21   19   21 1    
    22   21   22 1    
    23   22   23 1    
    24   22   32 1    
    25   23   24 2    
    26   24   25 1    
    27   25   26 1    
    28   25   32 2    
    29   26   27 2    
    30   26   28 am   
    31   28   29 1    
    32   29   30 1    
    33   29   31 2    
    34   31   32 1    
@<TRIPOS>SUBSTRUCTURE
     1 GTP501      1 GROUP   
@<TRIPOS>SET
ATOM$ORANGE STATIC     ATOMS   COLORGROUP SYSTEM 
20 14 14 15 15 17 17 19 19 21 21 23 23 25 25 26 26 29 \
29 32 32 

