#    Name: 6u0u_11_GDP
#    Modification time : Fri May 22 19:30:58 2020

@<TRIPOS>MOLECULE
6u0u_11_GDP
   28    30     1     0     1
SMALL
NO_CHARGES


@<TRIPOS>ATOM
      1 PB        346.5550  407.2140  458.4200 P.3       1 GDP501      0.0000 
      2 O1B       346.3860  405.7930  457.9800 O.co2     1 GDP501      0.0000 
      3 O2B       345.9700  407.3780  459.7920 O.co2     1 GDP501      0.0000 
      4 O3B       348.0040  407.5500  458.4510 O.co2     1 GDP501      0.0000 
      5 O3A       345.7820  408.2250  457.3550 O.3       1 GDP501      0.0000 
      6 PA        346.1890  408.3350  455.7380 P.3       1 GDP501      0.0000 
      7 O1A       345.3070  407.3780  454.9060 O.co2     1 GDP501      0.0000 
      8 O2A       347.6550  407.9430  455.5540 O.co2     1 GDP501      0.0000 
      9 O5'       345.9580  409.9010  455.2250 O.3       1 GDP501      0.0000 
     10 C5'       344.9970  410.6790  455.8530 C.3       1 GDP501      0.0000 
     11 C4'       344.4500  411.6900  454.8560 C.3       1 GDP501      0.0000 
     12 O4'       343.3190  410.9940  453.9270 O.3       1 GDP501      0.0000 
     13 C3'       343.8860  412.6850  455.4730 C.3       1 GDP501      0.0000 
     14 O3'       344.5870  413.9300  455.1270 O.3       1 GDP501      0.0000 
     15 C2'       342.4000  412.7630  454.9480 C.3       1 GDP501      0.0000 
     16 O2'       342.0710  414.0400  454.6680 O.3       1 GDP501      0.0000 
     17 C1'       342.4250  411.9470  453.6760 C.3       1 GDP501      0.0000 
     18 N9        341.0960  411.3210  453.4130 N.pl3     1 GDP501      0.0000 
     19 C8        340.8820  410.3820  454.3360 C.2       1 GDP501      0.0000 
     20 N7        339.6760  409.8440  454.0520 N.2       1 GDP501      0.0000 
     21 C5        339.1840  410.4520  452.9740 C.2       1 GDP501      0.0000 
     22 C6        337.8890  410.2660  452.2080 C.2       1 GDP501      0.0000 
     23 O6        337.1090  409.4640  452.5560 O.2       1 GDP501      0.0000 
     24 N1        337.6100  411.0850  451.0480 N.am      1 GDP501      0.0000 
     25 C2        338.5620  412.0650  450.6290 C.2       1 GDP501      0.0000 
     26 N2        338.2790  412.9180  449.4260 N.pl3     1 GDP501      0.0000 
     27 N3        339.7980  412.2350  451.3670 N.2       1 GDP501      0.0000 
     28 C4        340.0740  411.3820  452.5710 C.2       1 GDP501      0.0000 
@<TRIPOS>BOND
     1    1    2 ar   
     2    1    3 ar   
     3    1    4 ar   
     4    1    5 1    
     5    5    6 1    
     6    6    7 ar   
     7    6    8 ar   
     8    6    9 1    
     9    9   10 1    
    10   10   11 1    
    11   11   12 1    
    12   11   13 1    
    13   12   17 1    
    14   13   14 1    
    15   13   15 1    
    16   15   16 1    
    17   15   17 1    
    18   17   18 1    
    19   18   19 1    
    20   18   28 1    
    21   19   20 2    
    22   20   21 1    
    23   21   22 1    
    24   21   28 2    
    25   22   23 2    
    26   22   24 am   
    27   24   25 1    
    28   25   26 1    
    29   25   27 2    
    30   27   28 1    
@<TRIPOS>SUBSTRUCTURE
     1 GDP501      1 GROUP   
@<TRIPOS>SET
ATOM$ORANGE STATIC     ATOMS   COLORGROUP SYSTEM 
20 10 10 11 11 13 13 15 15 17 17 19 19 21 21 22 22 25 \
25 28 28 

