#    Name: 6u0u_1_GDP
#    Modification time : Fri May 22 19:29:32 2020

@<TRIPOS>MOLECULE
6u0u_1_GDP
   28    30     1     0     1
SMALL
NO_CHARGES


@<TRIPOS>ATOM
      1 PB        363.2170  358.1020  547.9300 P.3       1 GDP501      0.0000 
      2 O1B       362.5500  357.5490  546.7080 O.co2     1 GDP501      0.0000 
      3 O2B       362.4260  357.7230  549.1480 O.co2     1 GDP501      0.0000 
      4 O3B       364.5970  357.5510  548.0270 O.co2     1 GDP501      0.0000 
      5 O3A       363.2790  359.7510  547.8130 O.3       1 GDP501      0.0000 
      6 PA        361.9840  360.6850  547.3370 P.3       1 GDP501      0.0000 
      7 O1A       361.1070  359.8850  546.3730 O.co2     1 GDP501      0.0000 
      8 O2A       361.1700  361.0810  548.5880 O.co2     1 GDP501      0.0000 
      9 O5'       362.5430  362.0530  546.5690 O.3       1 GDP501      0.0000 
     10 C5'       362.9160  363.1370  547.3480 C.3       1 GDP501      0.0000 
     11 C4'       362.8030  364.4100  546.5280 C.3       1 GDP501      0.0000 
     12 O4'       361.7190  364.1990  545.3400 O.3       1 GDP501      0.0000 
     13 C3'       362.3590  365.3770  547.2620 C.3       1 GDP501      0.0000 
     14 O3'       362.8190  366.6610  546.7160 O.3       1 GDP501      0.0000 
     15 C2'       360.7990  365.2920  547.1000 C.3       1 GDP501      0.0000 
     16 O2'       360.2450  366.4920  547.3500 O.3       1 GDP501      0.0000 
     17 C1'       360.6540  364.9500  545.6360 C.3       1 GDP501      0.0000 
     18 N9        359.4000  364.1770  545.3850 N.pl3     1 GDP501      0.0000 
     19 C8        359.2320  363.2680  546.3500 C.2       1 GDP501      0.0000 
     20 N7        358.0870  362.6120  546.0550 N.2       1 GDP501      0.0000 
     21 C5        357.5840  363.1220  544.9300 C.2       1 GDP501      0.0000 
     22 C6        356.3420  362.7900  544.1300 C.2       1 GDP501      0.0000 
     23 O6        355.6240  361.9390  544.4960 O.2       1 GDP501      0.0000 
     24 N1        356.0390  363.5260  542.9200 N.am      1 GDP501      0.0000 
     25 C2        356.9200  364.5630  542.4840 C.2       1 GDP501      0.0000 
     26 N2        356.6200  365.3340  541.2340 N.pl3     1 GDP501      0.0000 
     27 N3        358.1070  364.8740  543.2530 N.2       1 GDP501      0.0000 
     28 C4        358.4060  364.1050  544.5080 C.2       1 GDP501      0.0000 
@<TRIPOS>BOND
     1    1    2 ar   
     2    1    3 ar   
     3    1    4 ar   
     4    1    5 1    
     5    5    6 1    
     6    6    7 ar   
     7    6    8 ar   
     8    6    9 1    
     9    9   10 1    
    10   10   11 1    
    11   11   12 1    
    12   11   13 1    
    13   12   17 1    
    14   13   14 1    
    15   13   15 1    
    16   15   16 1    
    17   15   17 1    
    18   17   18 1    
    19   18   19 1    
    20   18   28 1    
    21   19   20 2    
    22   20   21 1    
    23   21   22 1    
    24   21   28 2    
    25   22   23 2    
    26   22   24 am   
    27   24   25 1    
    28   25   26 1    
    29   25   27 2    
    30   27   28 1    
@<TRIPOS>SUBSTRUCTURE
     1 GDP501      1 GROUP   
@<TRIPOS>SET
ATOM$ORANGE STATIC     ATOMS   COLORGROUP SYSTEM 
20 10 10 11 11 13 13 15 15 17 17 19 19 21 21 22 22 25 \
25 28 28 

