#    Name: 6u0u_6_GTP
#    Modification time : Fri May 22 19:30:23 2020

@<TRIPOS>MOLECULE
6u0u_6_GTP
   32    34     1     0     1
SMALL
NO_CHARGES


@<TRIPOS>ATOM
      1 PG        348.6220  407.0880  418.0850 P.3       1 GTP501      0.0000 
      2 O1G       350.0680  407.5410  418.0980 O.co2     1 GTP501      0.0000 
      3 O2G       348.5520  405.5970  418.3350 O.co2     1 GTP501      0.0000 
      4 O3G       347.8680  407.8190  419.1770 O.co2     1 GTP501      0.0000 
      5 O3B       347.9300  407.4260  416.6170 O.3       1 GTP501      0.0000 
      6 PB        346.3040  407.2490  416.3620 P.3       1 GTP501      0.0000 
      7 O1B       345.6830  406.6340  417.6050 O.co2     1 GTP501      0.0000 
      8 O2B       346.0690  406.3460  415.1790 O.co2     1 GTP501      0.0000 
      9 O3A       345.6270  408.7310  416.0760 O.3       1 GTP501      0.0000 
     10 PA        345.0500  409.2010  414.5860 P.3       1 GTP501      0.0000 
     11 O1A       343.5320  409.0440  414.5460 O.co2     1 GTP501      0.0000 
     12 O2A       345.6890  408.3810  413.4900 O.co2     1 GTP501      0.0000 
     13 O5'       345.4190  410.7810  414.3650 O.3       1 GTP501      0.0000 
     14 C5'       344.4060  411.6830  414.5660 C.3       1 GTP501      0.0000 
     15 C4'       343.8760  412.1320  413.1680 C.3       1 GTP501      0.0000 
     16 O4'       343.0950  411.2110  412.6650 O.3       1 GTP501      0.0000 
     17 C3'       343.0010  413.3620  413.3630 C.3       1 GTP501      0.0000 
     18 O3'       343.4480  414.3900  412.5870 O.3       1 GTP501      0.0000 
     19 C2'       341.6000  412.9070  412.9000 C.3       1 GTP501      0.0000 
     20 O2'       340.8470  414.0470  412.3090 O.3       1 GTP501      0.0000 
     21 C1'       341.8810  412.0330  412.0040 C.3       1 GTP501      0.0000 
     22 N9        340.7170  411.1910  411.7690 N.pl3     1 GTP501      0.0000 
     23 C8        340.3710  410.1720  412.6060 C.2       1 GTP501      0.0000 
     24 N7        339.2440  409.5930  412.1100 N.2       1 GTP501      0.0000 
     25 C5        338.9010  410.2400  410.9960 C.2       1 GTP501      0.0000 
     26 C6        337.7320  410.0500  410.0020 C.2       1 GTP501      0.0000 
     27 O6        336.9340  409.1850  410.1820 O.2       1 GTP501      0.0000 
     28 N1        337.6100  410.9190  408.8540 N.am      1 GTP501      0.0000 
     29 C2        338.5870  411.9680  408.6470 C.2       1 GTP501      0.0000 
     30 N2        338.4820  412.8550  407.5020 N.pl3     1 GTP501      0.0000 
     31 N3        339.7060  412.1410  409.6080 N.2       1 GTP501      0.0000 
     32 C4        339.8250  411.2420  410.7870 C.2       1 GTP501      0.0000 
@<TRIPOS>BOND
     1    1    2 ar   
     2    1    3 ar   
     3    1    4 ar   
     4    1    5 1    
     5    5    6 1    
     6    6    7 ar   
     7    6    8 ar   
     8    6    9 1    
     9    9   10 1    
    10   10   11 ar   
    11   10   12 ar   
    12   10   13 1    
    13   13   14 1    
    14   14   15 1    
    15   15   16 1    
    16   15   17 1    
    17   16   21 1    
    18   17   18 1    
    19   17   19 1    
    20   19   20 1    
    21   19   21 1    
    22   21   22 1    
    23   22   23 1    
    24   22   32 1    
    25   23   24 2    
    26   24   25 1    
    27   25   26 1    
    28   25   32 2    
    29   26   27 2    
    30   26   28 am   
    31   28   29 1    
    32   29   30 1    
    33   29   31 2    
    34   31   32 1    
@<TRIPOS>SUBSTRUCTURE
     1 GTP501      1 GROUP   
@<TRIPOS>SET
ATOM$ORANGE STATIC     ATOMS   COLORGROUP SYSTEM 
20 14 14 15 15 17 17 19 19 21 21 23 23 25 25 26 26 29 \
29 32 32 

