#    Name: 6u0u_9_GDP
#    Modification time : Fri May 22 19:30:42 2020

@<TRIPOS>MOLECULE
6u0u_9_GDP
   28    30     1     0     1
SMALL
NO_CHARGES


@<TRIPOS>ATOM
      1 PB        363.9840  357.5040  383.0200 P.3       1 GDP501      0.0000 
      2 O1B       365.3650  356.9560  383.0170 O.co2     1 GDP501      0.0000 
      3 O2B       363.9360  358.7830  383.8020 O.co2     1 GDP501      0.0000 
      4 O3B       363.0460  356.5120  383.6330 O.co2     1 GDP501      0.0000 
      5 O3A       363.5230  357.8210  381.4640 O.3       1 GDP501      0.0000 
      6 PA        362.2690  358.8650  381.1290 P.3       1 GDP501      0.0000 
      7 O1A       361.4700  358.3370  379.9390 O.co2     1 GDP501      0.0000 
      8 O2A       361.3610  358.9540  382.3760 O.co2     1 GDP501      0.0000 
      9 O5'       362.8800  360.3720  380.7830 O.3       1 GDP501      0.0000 
     10 C5'       362.7590  361.3630  381.7440 C.3       1 GDP501      0.0000 
     11 C4'       362.7070  362.7170  381.0590 C.3       1 GDP501      0.0000 
     12 O4'       361.5830  362.6920  379.8880 O.3       1 GDP501      0.0000 
     13 C3'       362.3570  363.6350  381.9040 C.3       1 GDP501      0.0000 
     14 O3'       363.0920  364.8720  381.6060 O.3       1 GDP501      0.0000 
     15 C2'       360.8200  363.8600  381.6470 C.3       1 GDP501      0.0000 
     16 O2'       360.4650  365.1160  381.9820 O.3       1 GDP501      0.0000 
     17 C1'       360.7310  363.6870  380.1500 C.3       1 GDP501      0.0000 
     18 N9        359.3500  363.3170  379.7060 N.pl3     1 GDP501      0.0000 
     19 C8        358.8500  362.3750  380.5100 C.2       1 GDP501      0.0000 
     20 N7        357.6130  362.0940  380.0400 N.2       1 GDP501      0.0000 
     21 C5        357.3850  362.8550  378.9700 C.2       1 GDP501      0.0000 
     22 C6        356.1910  362.9750  378.0430 C.2       1 GDP501      0.0000 
     23 O6        355.2420  362.3120  378.2230 O.2       1 GDP501      0.0000 
     24 N1        356.2230  363.9090  376.9380 N.am      1 GDP501      0.0000 
     25 C2        357.3840  364.7170  376.7250 C.2       1 GDP501      0.0000 
     26 N2        357.4300  365.6900  375.5840 N.pl3     1 GDP501      0.0000 
     27 N3        358.5210  364.5940  377.6150 N.2       1 GDP501      0.0000 
     28 C4        358.4720  363.6250  378.7610 C.2       1 GDP501      0.0000 
@<TRIPOS>BOND
     1    1    2 ar   
     2    1    3 ar   
     3    1    4 ar   
     4    1    5 1    
     5    5    6 1    
     6    6    7 ar   
     7    6    8 ar   
     8    6    9 1    
     9    9   10 1    
    10   10   11 1    
    11   11   12 1    
    12   11   13 1    
    13   12   17 1    
    14   13   14 1    
    15   13   15 1    
    16   15   16 1    
    17   15   17 1    
    18   17   18 1    
    19   18   19 1    
    20   18   28 1    
    21   19   20 2    
    22   20   21 1    
    23   21   22 1    
    24   21   28 2    
    25   22   23 2    
    26   22   24 am   
    27   24   25 1    
    28   25   26 1    
    29   25   27 2    
    30   27   28 1    
@<TRIPOS>SUBSTRUCTURE
     1 GDP501      1 GROUP   
@<TRIPOS>SET
ATOM$ORANGE STATIC     ATOMS   COLORGROUP SYSTEM 
20 10 10 11 11 13 13 15 15 17 17 19 19 21 21 22 22 25 \
25 28 28 

