#    Name: 6u0u_8_GDP
#    Modification time : Fri May 22 19:30:33 2020

@<TRIPOS>MOLECULE
6u0u_8_GDP
   28    30     1     0     1
SMALL
NO_CHARGES


@<TRIPOS>ATOM
      1 PB        364.1020  357.7600  466.7580 P.3       1 GDP501      0.0000 
      2 O1B       363.0020  357.3100  465.8470 O.co2     1 GDP501      0.0000 
      3 O2B       363.8580  357.2390  468.1430 O.co2     1 GDP501      0.0000 
      4 O3B       365.4080  357.2540  466.2530 O.co2     1 GDP501      0.0000 
      5 O3A       364.1170  359.4150  466.7770 O.3       1 GDP501      0.0000 
      6 PA        363.4950  360.3090  465.5150 P.3       1 GDP501      0.0000 
      7 O1A       363.7450  359.5560  464.2100 O.co2     1 GDP501      0.0000 
      8 O2A       361.9760  360.4940  465.7210 O.co2     1 GDP501      0.0000 
      9 O5'       364.2370  361.7970  465.4510 O.3       1 GDP501      0.0000 
     10 C5'       363.5060  362.9160  465.8150 C.3       1 GDP501      0.0000 
     11 C4'       363.0110  363.6150  464.5630 C.3       1 GDP501      0.0000 
     12 O4'       361.7970  362.7710  463.9060 O.3       1 GDP501      0.0000 
     13 C3'       362.5300  364.7810  464.8670 C.3       1 GDP501      0.0000 
     14 O3'       363.4100  365.8300  464.3360 O.3       1 GDP501      0.0000 
     15 C2'       361.1230  364.8800  464.1640 C.3       1 GDP501      0.0000 
     16 O2'       361.0470  366.0150  463.4430 O.3       1 GDP501      0.0000 
     17 C1'       361.0920  363.6840  463.2430 C.3       1 GDP501      0.0000 
     18 N9        359.6890  363.2210  463.0150 N.pl3     1 GDP501      0.0000 
     19 C8        359.4390  362.1670  463.7970 C.2       1 GDP501      0.0000 
     20 N7        358.1640  361.7990  463.5400 N.2       1 GDP501      0.0000 
     21 C5        357.6630  362.6200  462.6170 C.2       1 GDP501      0.0000 
     22 C6        356.3040  362.6910  461.9470 C.2       1 GDP501      0.0000 
     23 O6        355.4690  361.9210  462.2330 O.2       1 GDP501      0.0000 
     24 N1        356.0390  363.7130  460.9570 N.am      1 GDP501      0.0000 
     25 C2        357.0620  364.6540  460.6170 C.2       1 GDP501      0.0000 
     26 N2        356.7980  365.7190  459.5910 N.pl3     1 GDP501      0.0000 
     27 N3        358.3580  364.5780  461.2610 N.2       1 GDP501      0.0000 
     28 C4        358.6190  363.5140  462.2890 C.2       1 GDP501      0.0000 
@<TRIPOS>BOND
     1    1    2 ar   
     2    1    3 ar   
     3    1    4 ar   
     4    1    5 1    
     5    5    6 1    
     6    6    7 ar   
     7    6    8 ar   
     8    6    9 1    
     9    9   10 1    
    10   10   11 1    
    11   11   12 1    
    12   11   13 1    
    13   12   17 1    
    14   13   14 1    
    15   13   15 1    
    16   15   16 1    
    17   15   17 1    
    18   17   18 1    
    19   18   19 1    
    20   18   28 1    
    21   19   20 2    
    22   20   21 1    
    23   21   22 1    
    24   21   28 2    
    25   22   23 2    
    26   22   24 am   
    27   24   25 1    
    28   25   26 1    
    29   25   27 2    
    30   27   28 1    
@<TRIPOS>SUBSTRUCTURE
     1 GDP501      1 GROUP   
@<TRIPOS>SET
ATOM$ORANGE STATIC     ATOMS   COLORGROUP SYSTEM 
20 10 10 11 11 13 13 15 15 17 17 19 19 21 21 22 22 25 \
25 28 28 

