#    Name: 6ddp_2_NDP
#    Modification time : Fri May 22 19:25:25 2020

@<TRIPOS>MOLECULE
6ddp_2_NDP
   48    52     1     0     1
SMALL
NO_CHARGES


@<TRIPOS>ATOM
      1 PA        -23.1290   25.2530   -8.7890 P.3       1 NDP201      0.0000 
      2 O1A       -21.9590   24.4380   -8.4350 O.co2     1 NDP201      0.0000 
      3 O2A       -22.9970   26.3490   -9.8210 O.co2     1 NDP201      0.0000 
      4 O5B       -24.3200   24.2810   -9.3610 O.3       1 NDP201      0.0000 
      5 C5B       -24.7080   23.3640   -8.3570 C.3       1 NDP201      0.0000 
      6 C4B       -25.6810   22.4070   -9.1020 C.3       1 NDP201      0.0000 
      7 O4B       -24.9460   21.5040   -9.9200 O.3       1 NDP201      0.0000 
      8 C3B       -26.5720   21.5530   -8.1760 C.3       1 NDP201      0.0000 
      9 O3B       -27.6580   22.2860   -7.7220 O.3       1 NDP201      0.0000 
     10 C2B       -27.0570   20.5440   -9.2460 C.3       1 NDP201      0.0000 
     11 O2B       -27.8680   21.0850  -10.1570 O.3       1 NDP201      0.0000 
     12 C1B       -25.6970   20.2940   -9.9940 C.3       1 NDP201      0.0000 
     13 N9A       -24.8910   19.2480   -9.4050 N.pl3     1 NDP201      0.0000 
     14 C8A       -24.0660   19.3180   -8.2620 C.2       1 NDP201      0.0000 
     15 N7A       -23.4480   18.1560   -7.9920 N.2       1 NDP201      0.0000 
     16 C5A       -23.8960   17.2970   -9.0000 C.ar      1 NDP201      0.0000 
     17 C6A       -23.6220   15.9540   -9.2650 C.ar      1 NDP201      0.0000 
     18 N6A       -22.7640   15.2490   -8.4570 N.pl3     1 NDP201      0.0000 
     19 N1A       -24.1810   15.3170  -10.3310 N.ar      1 NDP201      0.0000 
     20 C2A       -25.0300   16.0880  -11.0900 C.ar      1 NDP201      0.0000 
     21 N3A       -25.3920   17.3720  -10.9730 N.ar      1 NDP201      0.0000 
     22 C4A       -24.7950   17.9700   -9.8870 C.ar      1 NDP201      0.0000 
     23 O3        -23.9240   25.8380   -7.3970 O.3       1 NDP201      0.0000 
     24 PN        -23.1290   26.6910   -6.2450 P.3       1 NDP201      0.0000 
     25 O1N       -24.2080   27.3860   -5.5140 O.co2     1 NDP201      0.0000 
     26 O2N       -22.0180   25.9280   -5.5650 O.co2     1 NDP201      0.0000 
     27 O5D       -22.2480   27.9730   -6.9970 O.3       1 NDP201      0.0000 
     28 C5D       -23.0850   29.0020   -7.4780 C.3       1 NDP201      0.0000 
     29 C4D       -22.4310   30.3390   -7.0740 C.3       1 NDP201      0.0000 
     30 O4D       -21.0790   30.4130   -7.5730 O.3       1 NDP201      0.0000 
     31 C3D       -23.1870   31.5760   -7.6330 C.3       1 NDP201      0.0000 
     32 O3D       -23.1730   32.5570   -6.6110 O.3       1 NDP201      0.0000 
     33 C2D       -22.2690   32.0000   -8.7840 C.3       1 NDP201      0.0000 
     34 O2D       -22.3230   33.3690   -9.0480 O.3       1 NDP201      0.0000 
     35 C1D       -20.8850   31.6810   -8.1510 C.3       1 NDP201      0.0000 
     36 N1N       -19.8120   31.5770   -9.1700 N.pl3     1 NDP201      0.0000 
     37 C2N       -18.6310   32.2950   -9.0100 C.2       1 NDP201      0.0000 
     38 C3N       -17.5740   32.0750   -9.8450 C.2       1 NDP201      0.0000 
     39 C7N       -16.3490   32.8090   -9.6360 C.2       1 NDP201      0.0000 
     40 O7N       -15.2960   32.5230  -10.2310 O.2       1 NDP201      0.0000 
     41 N7N       -16.3480   33.8440   -8.7060 N.am      1 NDP201      0.0000 
     42 C4N       -17.6210   31.0930  -10.9380 C.3       1 NDP201      0.0000 
     43 C5N       -18.9520   30.4860  -11.0970 C.2       1 NDP201      0.0000 
     44 C6N       -19.9670   30.7260  -10.2690 C.2       1 NDP201      0.0000 
     45 P2B       -29.6130   20.6070   -9.9890 P.3       1 NDP201      0.0000 
     46 O1X       -29.8740   21.3220   -8.7000 O.co2     1 NDP201      0.0000 
     47 O2X       -30.2350   21.1910  -11.2630 O.co2     1 NDP201      0.0000 
     48 O3X       -29.4400   19.1230   -9.9220 O.co2     1 NDP201      0.0000 
@<TRIPOS>BOND
     1    1    2 ar   
     2    1    3 ar   
     3    1    4 1    
     4    1   23 1    
     5    4    5 1    
     6    5    6 1    
     7    6    7 1    
     8    6    8 1    
     9    7   12 1    
    10    8    9 1    
    11    8   10 1    
    12   10   11 1    
    13   10   12 1    
    14   11   45 1    
    15   12   13 1    
    16   13   14 1    
    17   13   22 1    
    18   14   15 2    
    19   15   16 1    
    20   16   17 ar   
    21   16   22 ar   
    22   17   18 1    
    23   17   19 ar   
    24   19   20 ar   
    25   20   21 ar   
    26   21   22 ar   
    27   23   24 1    
    28   24   25 ar   
    29   24   26 ar   
    30   24   27 1    
    31   27   28 1    
    32   28   29 1    
    33   29   30 1    
    34   29   31 1    
    35   30   35 1    
    36   31   32 1    
    37   31   33 1    
    38   33   34 1    
    39   33   35 1    
    40   35   36 1    
    41   36   37 1    
    42   36   44 1    
    43   37   38 2    
    44   38   39 1    
    45   38   42 1    
    46   39   40 2    
    47   39   41 am   
    48   42   43 1    
    49   43   44 2    
    50   45   46 ar   
    51   45   47 ar   
    52   45   48 ar   
@<TRIPOS>SUBSTRUCTURE
     1 NDP201      1 GROUP   
@<TRIPOS>SET
ATOM$ORANGE STATIC     ATOMS   COLORGROUP SYSTEM 
42 5 5 6 6 8 8 10 10 12 12 14 14 16 16 17 17 20 \
20 22 22 28 28 29 29 31 31 33 33 35 35 37 37 38 38 39 \
39 42 42 43 43 44 44 

