#    Name: 6ddp_3_NDP
#    Modification time : Fri May 22 19:25:30 2020

@<TRIPOS>MOLECULE
6ddp_3_NDP
   48    52     1     0     1
SMALL
NO_CHARGES


@<TRIPOS>ATOM
      1 PA          5.7800   -8.9230  -31.8990 P.3       1 NDP202      0.0000 
      2 O1A         6.9530   -8.1320  -32.2580 O.co2     1 NDP202      0.0000 
      3 O2A         5.9080  -10.0230  -30.8760 O.co2     1 NDP202      0.0000 
      4 O5B         4.6220   -7.9180  -31.3310 O.3       1 NDP202      0.0000 
      5 C5B         4.1730   -7.0630  -32.3570 C.3       1 NDP202      0.0000 
      6 C4B         3.2100   -6.0970  -31.6150 C.3       1 NDP202      0.0000 
      7 O4B         3.9510   -5.2400  -30.7720 O.3       1 NDP202      0.0000 
      8 C3B         2.3550   -5.2020  -32.5310 C.3       1 NDP202      0.0000 
      9 O3B         1.2590   -5.9050  -33.0040 O.3       1 NDP202      0.0000 
     10 C2B         1.8870   -4.1850  -31.4440 C.3       1 NDP202      0.0000 
     11 O2B         1.0670   -4.7060  -30.5470 O.3       1 NDP202      0.0000 
     12 C1B         3.2400   -3.9900  -30.6880 C.3       1 NDP202      0.0000 
     13 N9A         4.0640   -2.9560  -31.2740 N.pl3     1 NDP202      0.0000 
     14 C8A         4.8850   -3.0430  -32.4170 C.2       1 NDP202      0.0000 
     15 N7A         5.5220   -1.9010  -32.6910 N.2       1 NDP202      0.0000 
     16 C5A         5.0910   -1.0250  -31.6910 C.ar      1 NDP202      0.0000 
     17 C6A         5.3950    0.3110  -31.4330 C.ar      1 NDP202      0.0000 
     18 N6A         6.2670    0.9910  -32.2560 N.pl3     1 NDP202      0.0000 
     19 N1A         4.8410    0.9700  -30.3710 N.ar      1 NDP202      0.0000 
     20 C2A         3.9850    0.2190  -29.6050 C.ar      1 NDP202      0.0000 
     21 N3A         3.5950   -1.0580  -29.7210 N.ar      1 NDP202      0.0000 
     22 C4A         4.1810   -1.6750  -30.7980 C.ar      1 NDP202      0.0000 
     23 O3          5.0030   -9.5080  -33.2850 O.3       1 NDP202      0.0000 
     24 PN          5.8110  -10.3940  -34.4150 P.3       1 NDP202      0.0000 
     25 O1N         4.7150  -11.0490  -35.1550 O.co2     1 NDP202      0.0000 
     26 O2N         6.9190   -9.6540  -35.1200 O.co2     1 NDP202      0.0000 
     27 O5D         6.6960  -11.7020  -33.6660 O.3       1 NDP202      0.0000 
     28 C5D         5.8600  -12.7070  -33.2000 C.3       1 NDP202      0.0000 
     29 C4D         6.5020  -14.0270  -33.6370 C.3       1 NDP202      0.0000 
     30 O4D         7.8550  -14.1070  -33.1370 O.3       1 NDP202      0.0000 
     31 C3D         5.7450  -15.2530  -33.0890 C.3       1 NDP202      0.0000 
     32 O3D         5.7780  -16.2220  -34.1130 O.3       1 NDP202      0.0000 
     33 C2D         6.6490  -15.6710  -31.9330 C.3       1 NDP202      0.0000 
     34 O2D         6.5780  -17.0330  -31.6670 O.3       1 NDP202      0.0000 
     35 C1D         8.0320  -15.3780  -32.5500 C.3       1 NDP202      0.0000 
     36 N1N         9.0910  -15.2620  -31.5190 N.pl3     1 NDP202      0.0000 
     37 C2N        10.2690  -15.9650  -31.6800 C.2       1 NDP202      0.0000 
     38 C3N        11.3190  -15.7630  -30.8410 C.2       1 NDP202      0.0000 
     39 C7N        12.5510  -16.5040  -31.0560 C.2       1 NDP202      0.0000 
     40 O7N        13.6070  -16.2240  -30.4600 O.2       1 NDP202      0.0000 
     41 N7N        12.5520  -17.5500  -31.9830 N.am      1 NDP202      0.0000 
     42 C4N        11.2680  -14.7910  -29.7460 C.3       1 NDP202      0.0000 
     43 C5N         9.9450  -14.1680  -29.5860 C.2       1 NDP202      0.0000 
     44 C6N         8.9310  -14.3960  -30.4150 C.2       1 NDP202      0.0000 
     45 P2B        -0.6780   -4.2010  -30.7100 P.3       1 NDP202      0.0000 
     46 O1X        -0.9230   -4.8450  -32.0400 O.co2     1 NDP202      0.0000 
     47 O2X        -1.3260   -4.8520  -29.4830 O.co2     1 NDP202      0.0000 
     48 O3X        -0.5000   -2.7150  -30.6930 O.co2     1 NDP202      0.0000 
@<TRIPOS>BOND
     1    1    2 ar   
     2    1    3 ar   
     3    1    4 1    
     4    1   23 1    
     5    4    5 1    
     6    5    6 1    
     7    6    7 1    
     8    6    8 1    
     9    7   12 1    
    10    8    9 1    
    11    8   10 1    
    12   10   11 1    
    13   10   12 1    
    14   11   45 1    
    15   12   13 1    
    16   13   14 1    
    17   13   22 1    
    18   14   15 2    
    19   15   16 1    
    20   16   17 ar   
    21   16   22 ar   
    22   17   18 1    
    23   17   19 ar   
    24   19   20 ar   
    25   20   21 ar   
    26   21   22 ar   
    27   23   24 1    
    28   24   25 ar   
    29   24   26 ar   
    30   24   27 1    
    31   27   28 1    
    32   28   29 1    
    33   29   30 1    
    34   29   31 1    
    35   30   35 1    
    36   31   32 1    
    37   31   33 1    
    38   33   34 1    
    39   33   35 1    
    40   35   36 1    
    41   36   37 1    
    42   36   44 1    
    43   37   38 2    
    44   38   39 1    
    45   38   42 1    
    46   39   40 2    
    47   39   41 am   
    48   42   43 1    
    49   43   44 2    
    50   45   46 ar   
    51   45   47 ar   
    52   45   48 ar   
@<TRIPOS>SUBSTRUCTURE
     1 NDP202      1 GROUP   
@<TRIPOS>SET
ATOM$ORANGE STATIC     ATOMS   COLORGROUP SYSTEM 
42 5 5 6 6 8 8 10 10 12 12 14 14 16 16 17 17 20 \
20 22 22 28 28 29 29 31 31 33 33 35 35 37 37 38 38 39 \
39 42 42 43 43 44 44 

