#    Name: 6ddp_2_NDP_CAVITY_N1_ALL
#    Modification time : Fri May 22 19:25:28 2020

@<TRIPOS>MOLECULE
6ddp_2_NDP_CAVITY_N1_ALL
   71     0     5     0     0
SMALL
NO_CHARGES


@<TRIPOS>ATOM
      1 OG        -23.1500   26.0600   -9.0400 O.3       1 SER1        0.0000 
      2 N         -23.6100   13.9900   -9.7600 N.am      2 ALA2        0.0000 
      3 N         -23.7700   15.5700  -11.1600 N.am      2 ALA2        0.0000 
      4 O         -26.3900   17.4900  -10.3200 O.2       2 ALA2        0.0000 
      5 O         -25.6200   17.9000  -11.5300 O.2       2 ALA2        0.0000 
      6 O         -29.0100   19.4100   -9.4700 O.2       2 ALA2        0.0000 
      7 N         -24.7300   18.7500  -10.6800 N.am      2 ALA2        0.0000 
      8 N         -26.4200   19.5000   -9.6500 N.am      2 ALA2        0.0000 
      9 N         -25.6500   19.9200  -10.8700 N.am      2 ALA2        0.0000 
     10 N         -27.3500   20.6700   -9.8300 N.am      2 ALA2        0.0000 
     11 N         -24.6000   19.1800   -8.6100 N.am      2 ALA2        0.0000 
     12 N         -26.2900   19.9400   -7.5800 N.am      2 ALA2        0.0000 
     13 N         -25.5200   20.3500   -8.7900 N.am      2 ALA2        0.0000 
     14 N         -24.7500   20.7700  -10.0100 N.am      2 ALA2        0.0000 
     15 N         -23.9900   21.1800  -11.2300 N.am      2 ALA2        0.0000 
     16 N         -27.2200   21.1000   -7.7600 N.am      2 ALA2        0.0000 
     17 O         -25.6800   21.9300  -10.2000 O.2       2 ALA2        0.0000 
     18 O         -26.6100   23.1000  -10.3900 O.2       2 ALA2        0.0000 
     19 N         -22.7800   18.8700   -7.5700 N.am      2 ALA2        0.0000 
     20 N         -23.7000   20.0300   -7.7500 N.am      2 ALA2        0.0000 
     21 N         -26.3200   21.9500   -6.9100 N.am      2 ALA2        0.0000 
     22 N         -25.5500   22.3600   -8.1300 N.am      2 ALA2        0.0000 
     23 O         -24.7800   22.7800   -9.3500 O.2       2 ALA2        0.0000 
     24 O         -25.7100   23.9500   -9.5300 O.2       2 ALA2        0.0000 
     25 N         -24.6600   23.2100   -7.2700 N.am      2 ALA2        0.0000 
     26 O         -24.0400   25.2100   -9.9000 O.2       2 ALA2        0.0000 
     27 O         -22.2200   24.8900   -8.8600 O.2       2 ALA2        0.0000 
     28 O         -24.6900   25.2200   -6.6100 O.2       2 ALA2        0.0000 
     29 O         -22.1000   25.3200   -6.7800 O.2       2 ALA2        0.0000 
     30 O         -23.7900   26.0700   -5.7500 O.2       2 ALA2        0.0000 
     31 O         -23.0200   26.4900   -6.9700 O.2       2 ALA2        0.0000 
     32 OD1       -25.2800   12.7300   -9.3900 O.co2     3 ASP3        0.0000 
     33 OD1       -24.3800   13.5800   -8.5400 O.co2     3 ASP3        0.0000 
     34 OD1       -24.5400   15.1600   -9.9400 O.co2     3 ASP3        0.0000 
     35 OD1       -29.9400   20.5700   -9.6600 O.co2     3 ASP3        0.0000 
     36 OD1       -23.6400   16.0100   -9.0900 O.co2     3 ASP3        0.0000 
     37 OD1       -24.5700   17.1700   -9.2800 O.co2     3 ASP3        0.0000 
     38 OD1       -25.4900   18.3400   -9.4600 O.co2     3 ASP3        0.0000 
     39 OD1       -29.0400   21.4200   -8.8000 O.co2     3 ASP3        0.0000 
     40 OD1       -23.6700   18.0200   -8.4200 O.co2     3 ASP3        0.0000 
     41 OD1       -28.1400   22.2700   -7.9500 O.co2     3 ASP3        0.0000 
     42 OD1       -29.8400   23.0200   -6.9200 O.co2     3 ASP3        0.0000 
     43 OD1       -28.0200   22.7000   -5.8800 O.co2     3 ASP3        0.0000 
     44 OD1       -27.2500   23.1100   -7.0900 O.co2     3 ASP3        0.0000 
     45 CA        -23.4600   12.4100   -8.3500 C.3       4 GLY6        0.0000 
     46 CA        -25.4700   16.3200  -10.1300 C.3       4 GLY6        0.0000 
     47 CA        -24.7000   16.7400  -11.3500 C.3       4 GLY6        0.0000 
     48 CA        -28.2400   19.8200  -10.6900 C.3       4 GLY6        0.0000 
     49 CA        -22.7200   14.8400   -8.9000 C.3       4 GLY6        0.0000 
     50 CA        -22.8800   16.4200  -10.3100 C.3       4 GLY6        0.0000 
     51 CA        -23.8000   17.5900  -10.4900 C.3       4 GLY6        0.0000 
     52 CA        -28.2700   21.8300  -10.0200 C.3       4 GLY6        0.0000 
     53 CA        -22.7500   16.8500   -8.2300 C.3       4 GLY6        0.0000 
     54 CA        -22.9000   18.4300   -9.6400 C.3       4 GLY6        0.0000 
     55 CA        -23.8300   19.6000   -9.8300 C.3       4 GLY6        0.0000 
     56 CA        -23.0600   20.0200  -11.0500 C.3       4 GLY6        0.0000 
     57 CA        -27.3700   22.6800   -9.1700 C.3       4 GLY6        0.0000 
     58 CA        -22.0100   19.2800   -8.7900 C.3       4 GLY6        0.0000 
     59 CA        -22.9300   20.4500   -8.9700 C.3       4 GLY6        0.0000 
     60 CA        -23.8600   21.6100   -9.1600 C.3       4 GLY6        0.0000 
     61 CA        -26.4800   23.5300   -8.3100 C.3       4 GLY6        0.0000 
     62 CA        -22.9600   22.4600   -8.3100 C.3       4 GLY6        0.0000 
     63 CA        -23.8900   23.6300   -8.4900 C.3       4 GLY6        0.0000 
     64 CA        -23.1200   24.0400   -9.7100 C.3       4 GLY6        0.0000 
     65 CA        -25.5800   24.3800   -7.4600 C.3       4 GLY6        0.0000 
     66 CA        -24.8100   24.7900   -8.6800 C.3       4 GLY6        0.0000 
     67 CA        -22.9900   24.4700   -7.6400 C.3       4 GLY6        0.0000 
     68 CA        -23.9200   25.6400   -7.8200 C.3       4 GLY6        0.0000 
     69 CA        -22.2500   26.9000   -8.1900 C.3       4 GLY6        0.0000 
     70 DU        -28.1100   20.2500   -8.6200 H         5 CUB7        0.0000 
     71 DU        -26.4500   21.5200   -8.9800 H         5 CUB7        0.0000 
@<TRIPOS>BOND
@<TRIPOS>SUBSTRUCTURE
     1 SER1        1 GROUP   
     2 ALA2        2 GROUP   
     3 ASP3       32 GROUP   
     4 GLY6       45 GROUP   
     5 CUB7       70 GROUP   
@<TRIPOS>SET

