#    Name: 6ddp_1_NDP
#    Modification time : Fri May 22 19:25:18 2020

@<TRIPOS>MOLECULE
6ddp_1_NDP
   48    52     1     0     1
SMALL
NO_CHARGES


@<TRIPOS>ATOM
      1 PA         -8.6340   -3.4200   -3.2580 P.3       1 NDP201      0.0000 
      2 O1A        -7.4510   -3.7620   -4.0500 O.co2     1 NDP201      0.0000 
      3 O2A        -8.5000   -2.4160   -2.1530 O.co2     1 NDP201      0.0000 
      4 O5B        -9.7970   -2.7890   -4.2240 O.3       1 NDP201      0.0000 
      5 C5B       -10.2820   -3.8010   -5.0830 C.3       1 NDP201      0.0000 
      6 C4B       -11.2220   -3.0480   -6.0570 C.3       1 NDP201      0.0000 
      7 O4B       -10.4580   -2.2960   -6.9740 O.3       1 NDP201      0.0000 
      8 C3B       -12.1370   -3.9720   -6.8930 C.3       1 NDP201      0.0000 
      9 O3B       -13.2470   -4.3710   -6.1550 O.3       1 NDP201      0.0000 
     10 C2B       -12.5670   -2.9300   -7.9660 C.3       1 NDP201      0.0000 
     11 O2B       -13.3550   -1.9820   -7.4930 O.3       1 NDP201      0.0000 
     12 C1B       -11.1990   -2.2030   -8.2000 C.3       1 NDP201      0.0000 
     13 N9A       -10.3930   -2.7940   -9.2350 N.pl3     1 NDP201      0.0000 
     14 C8A        -9.5630   -3.9330   -9.1520 C.2       1 NDP201      0.0000 
     15 N7A        -8.9340   -4.2160  -10.3070 N.2       1 NDP201      0.0000 
     16 C5A        -9.3780   -3.2150  -11.1810 C.ar      1 NDP201      0.0000 
     17 C6A        -9.0880   -2.9590  -12.5230 C.ar      1 NDP201      0.0000 
     18 N6A        -8.2230   -3.7770  -13.2140 N.pl3     1 NDP201      0.0000 
     19 N1A        -9.6470   -1.9070  -13.1730 N.ar      1 NDP201      0.0000 
     20 C2A       -10.5060   -1.1410  -12.4160 C.ar      1 NDP201      0.0000 
     21 N3A       -10.8830   -1.2400  -11.1280 N.ar      1 NDP201      0.0000 
     22 C4A       -10.2860   -2.3160  -10.5180 C.ar      1 NDP201      0.0000 
     23 O3         -9.4220   -4.8080   -2.6840 O.3       1 NDP201      0.0000 
     24 PN         -8.6230   -5.8970   -1.7930 P.3       1 NDP201      0.0000 
     25 O1N        -9.6790   -6.6430   -1.0800 O.co2     1 NDP201      0.0000 
     26 O2N        -7.5070   -6.6190   -2.5090 O.co2     1 NDP201      0.0000 
     27 O5D        -7.7370   -5.0720   -0.5250 O.3       1 NDP201      0.0000 
     28 C5D        -8.5720   -4.6540    0.5200 C.3       1 NDP201      0.0000 
     29 C4D        -7.9380   -5.1360    1.8510 C.3       1 NDP201      0.0000 
     30 O4D        -6.5710   -4.6590    1.9600 O.3       1 NDP201      0.0000 
     31 C3D        -8.7040   -4.5710    3.0860 C.3       1 NDP201      0.0000 
     32 O3D        -8.7210   -5.5680    4.0790 O.3       1 NDP201      0.0000 
     33 C2D        -7.7930   -3.4150    3.5170 C.3       1 NDP201      0.0000 
     34 O2D        -7.8890   -3.1390    4.8890 O.3       1 NDP201      0.0000 
     35 C1D        -6.4050   -4.0480    3.2360 C.3       1 NDP201      0.0000 
     36 N1N        -5.3360   -3.0280    3.1190 N.pl3     1 NDP201      0.0000 
     37 C2N        -4.1540   -3.1820    3.8230 C.2       1 NDP201      0.0000 
     38 C3N        -3.1070   -2.3420    3.5970 C.2       1 NDP201      0.0000 
     39 C7N        -1.8850   -2.5410    4.3330 C.2       1 NDP201      0.0000 
     40 O7N        -0.8350   -1.9520    4.0510 O.2       1 NDP201      0.0000 
     41 N7N        -1.8930   -3.4410    5.3850 N.am      1 NDP201      0.0000 
     42 C4N        -3.1550   -1.2530    2.6120 C.3       1 NDP201      0.0000 
     43 C5N        -4.4780   -1.1060    1.9860 C.2       1 NDP201      0.0000 
     44 C6N        -5.4910   -1.9390    2.2350 C.2       1 NDP201      0.0000 
     45 P2B       -15.1120   -2.1610   -7.8990 P.3       1 NDP201      0.0000 
     46 O1X       -15.2990   -3.4750   -7.2030 O.co2     1 NDP201      0.0000 
     47 O2X       -15.7250   -0.9220   -7.2410 O.co2     1 NDP201      0.0000 
     48 O3X       -15.0170   -2.1790   -9.3960 O.co2     1 NDP201      0.0000 
@<TRIPOS>BOND
     1    1    2 ar   
     2    1    3 ar   
     3    1    4 1    
     4    1   23 1    
     5    4    5 1    
     6    5    6 1    
     7    6    7 1    
     8    6    8 1    
     9    7   12 1    
    10    8    9 1    
    11    8   10 1    
    12   10   11 1    
    13   10   12 1    
    14   11   45 1    
    15   12   13 1    
    16   13   14 1    
    17   13   22 1    
    18   14   15 2    
    19   15   16 1    
    20   16   17 ar   
    21   16   22 ar   
    22   17   18 1    
    23   17   19 ar   
    24   19   20 ar   
    25   20   21 ar   
    26   21   22 ar   
    27   23   24 1    
    28   24   25 ar   
    29   24   26 ar   
    30   24   27 1    
    31   27   28 1    
    32   28   29 1    
    33   29   30 1    
    34   29   31 1    
    35   30   35 1    
    36   31   32 1    
    37   31   33 1    
    38   33   34 1    
    39   33   35 1    
    40   35   36 1    
    41   36   37 1    
    42   36   44 1    
    43   37   38 2    
    44   38   39 1    
    45   38   42 1    
    46   39   40 2    
    47   39   41 am   
    48   42   43 1    
    49   43   44 2    
    50   45   46 ar   
    51   45   47 ar   
    52   45   48 ar   
@<TRIPOS>SUBSTRUCTURE
     1 NDP201      1 GROUP   
@<TRIPOS>SET
ATOM$ORANGE STATIC     ATOMS   COLORGROUP SYSTEM 
42 5 5 6 6 8 8 10 10 12 12 14 14 16 16 17 17 20 \
20 22 22 28 28 29 29 31 31 33 33 35 35 37 37 38 38 39 \
39 42 42 43 43 44 44 

