#    Name: 6ddp_4_NDP
#    Modification time : Fri May 22 19:25:37 2020

@<TRIPOS>MOLECULE
6ddp_4_NDP
   48    52     1     0     1
SMALL
NO_CHARGES


@<TRIPOS>ATOM
      1 PA        -37.5060   19.7300  -37.4250 P.3       1 NDP201      0.0000 
      2 O1A       -36.3210   20.1130  -36.6430 O.co2     1 NDP201      0.0000 
      3 O2A       -37.3850   18.7170  -38.5340 O.co2     1 NDP201      0.0000 
      4 O5B       -38.6290   19.0970  -36.4150 O.3       1 NDP201      0.0000 
      5 C5B       -39.1790   20.1400  -35.6100 C.3       1 NDP201      0.0000 
      6 C4B       -40.1280   19.4000  -34.6260 C.3       1 NDP201      0.0000 
      7 O4B       -39.3710   18.6070  -33.7340 O.3       1 NDP201      0.0000 
      8 C3B       -40.9910   20.3310  -33.7500 C.3       1 NDP201      0.0000 
      9 O3B       -42.0840   20.8050  -34.4570 O.3       1 NDP201      0.0000 
     10 C2B       -41.4600   19.2670  -32.7220 C.3       1 NDP201      0.0000 
     11 O2B       -42.2530   18.3360  -33.2440 O.3       1 NDP201      0.0000 
     12 C1B       -40.1080   18.5240  -32.4980 C.3       1 NDP201      0.0000 
     13 N9A       -39.3100   19.1160  -31.4690 N.pl3     1 NDP201      0.0000 
     14 C8A       -38.5380   20.2860  -31.5400 C.2       1 NDP201      0.0000 
     15 N7A       -37.9050   20.5610  -30.3930 N.2       1 NDP201      0.0000 
     16 C5A       -38.2870   19.5250  -29.5370 C.ar      1 NDP201      0.0000 
     17 C6A       -37.9610   19.2530  -28.2080 C.ar      1 NDP201      0.0000 
     18 N6A       -37.1160   20.0980  -27.5220 N.pl3     1 NDP201      0.0000 
     19 N1A       -38.4610   18.1540  -27.5650 N.ar      1 NDP201      0.0000 
     20 C2A       -39.2960   17.3690  -28.3320 C.ar      1 NDP201      0.0000 
     21 N3A       -39.7000   17.4960  -29.6080 N.ar      1 NDP201      0.0000 
     22 C4A       -39.1620   18.6110  -30.2010 C.ar      1 NDP201      0.0000 
     23 O3        -38.3090   21.1030  -38.0120 O.3       1 NDP201      0.0000 
     24 PN        -37.5170   22.2230  -38.8960 P.3       1 NDP201      0.0000 
     25 O1N       -38.5930   22.9290  -39.6180 O.co2     1 NDP201      0.0000 
     26 O2N       -36.4140   22.9680  -38.1820 O.co2     1 NDP201      0.0000 
     27 O5D       -36.6100   21.4370  -40.1580 O.3       1 NDP201      0.0000 
     28 C5D       -37.4340   20.9510  -41.1950 C.3       1 NDP201      0.0000 
     29 C4D       -36.8180   21.4290  -42.5370 C.3       1 NDP201      0.0000 
     30 O4D       -35.4580   20.9550  -42.6460 O.3       1 NDP201      0.0000 
     31 C3D       -37.5820   20.8780  -43.7820 C.3       1 NDP201      0.0000 
     32 O3D       -37.6030   21.9020  -44.7540 O.3       1 NDP201      0.0000 
     33 C2D       -36.6650   19.7460  -44.2320 C.3       1 NDP201      0.0000 
     34 O2D       -36.7460   19.5060  -45.6120 O.3       1 NDP201      0.0000 
     35 C1D       -35.2810   20.3790  -43.9230 C.3       1 NDP201      0.0000 
     36 N1N       -34.2190   19.3550  -43.8010 N.pl3     1 NDP201      0.0000 
     37 C2N       -33.0420   19.4910  -44.4990 C.2       1 NDP201      0.0000 
     38 C3N       -31.9930   18.6580  -44.2770 C.2       1 NDP201      0.0000 
     39 C7N       -30.7710   18.8570  -45.0300 C.2       1 NDP201      0.0000 
     40 O7N       -29.7160   18.2690  -44.7510 O.2       1 NDP201      0.0000 
     41 N7N       -30.7840   19.7510  -46.0970 N.am      1 NDP201      0.0000 
     42 C4N       -32.0510   17.5710  -43.2900 C.3       1 NDP201      0.0000 
     43 C5N       -33.3810   17.4380  -42.6650 C.2       1 NDP201      0.0000 
     44 C6N       -34.3850   18.2740  -42.9160 C.2       1 NDP201      0.0000 
     45 P2B       -44.0170   18.5060  -32.8480 P.3       1 NDP201      0.0000 
     46 O1X       -44.2620   19.7340  -33.6680 O.co2     1 NDP201      0.0000 
     47 O2X       -44.5790   17.1800  -33.3710 O.co2     1 NDP201      0.0000 
     48 O3X       -43.9160   18.6740  -31.3620 O.co2     1 NDP201      0.0000 
@<TRIPOS>BOND
     1    1    2 ar   
     2    1    3 ar   
     3    1    4 1    
     4    1   23 1    
     5    4    5 1    
     6    5    6 1    
     7    6    7 1    
     8    6    8 1    
     9    7   12 1    
    10    8    9 1    
    11    8   10 1    
    12   10   11 1    
    13   10   12 1    
    14   11   45 1    
    15   12   13 1    
    16   13   14 1    
    17   13   22 1    
    18   14   15 2    
    19   15   16 1    
    20   16   17 ar   
    21   16   22 ar   
    22   17   18 1    
    23   17   19 ar   
    24   19   20 ar   
    25   20   21 ar   
    26   21   22 ar   
    27   23   24 1    
    28   24   25 ar   
    29   24   26 ar   
    30   24   27 1    
    31   27   28 1    
    32   28   29 1    
    33   29   30 1    
    34   29   31 1    
    35   30   35 1    
    36   31   32 1    
    37   31   33 1    
    38   33   34 1    
    39   33   35 1    
    40   35   36 1    
    41   36   37 1    
    42   36   44 1    
    43   37   38 2    
    44   38   39 1    
    45   38   42 1    
    46   39   40 2    
    47   39   41 am   
    48   42   43 1    
    49   43   44 2    
    50   45   46 ar   
    51   45   47 ar   
    52   45   48 ar   
@<TRIPOS>SUBSTRUCTURE
     1 NDP201      1 GROUP   
@<TRIPOS>SET
ATOM$ORANGE STATIC     ATOMS   COLORGROUP SYSTEM 
42 5 5 6 6 8 8 10 10 12 12 14 14 16 16 17 17 20 \
20 22 22 28 28 29 29 31 31 33 33 35 35 37 37 38 38 39 \
39 42 42 43 43 44 44 

