#    Name: 5xz6_1_ANP
#    Modification time : Fri May 22 19:20:46 2020

@<TRIPOS>MOLECULE
5xz6_1_ANP
   31    33     1     0     1
SMALL
NO_CHARGES


@<TRIPOS>ATOM
      1 PG         -0.0920  -16.1040   20.4410 P.3       1 ANP402      0.0000 
      2 O1G         0.1880  -15.3410   21.7180 O.co2     1 ANP402      0.0000 
      3 O2G         0.7030  -17.3920   20.2910 O.co2     1 ANP402      0.0000 
      4 O3G        -0.2000  -15.2650   19.1930 O.co2     1 ANP402      0.0000 
      5 PB         -2.0120  -17.9180   21.8400 P.3       1 ANP402      0.0000 
      6 O1B        -0.8360  -18.8750   21.9770 O.co2     1 ANP402      0.0000 
      7 O2B        -3.3650  -18.4770   21.5480 O.co2     1 ANP402      0.0000 
      8 N3B        -1.7080  -16.6680   20.6920 N.3       1 ANP402      0.0000 
      9 PA         -1.6440  -17.0760   24.5790 P.3       1 ANP402      0.0000 
     10 O1A        -1.0520  -15.6650   24.5590 O.co2     1 ANP402      0.0000 
     11 O2A        -0.8720  -18.3530   24.8560 O.co2     1 ANP402      0.0000 
     12 O3A        -2.4270  -17.1860   23.1810 O.3       1 ANP402      0.0000 
     13 O5'        -2.9050  -16.9360   25.5470 O.3       1 ANP402      0.0000 
     14 C5'        -4.1260  -17.5630   25.2080 C.3       1 ANP402      0.0000 
     15 C4'        -5.0650  -17.5220   26.3960 C.3       1 ANP402      0.0000 
     16 O4'        -5.6430  -18.8310   26.5010 O.3       1 ANP402      0.0000 
     17 C3'        -4.4710  -17.1980   27.7680 C.3       1 ANP402      0.0000 
     18 O3'        -4.5800  -15.8410   28.1290 O.3       1 ANP402      0.0000 
     19 C2'        -5.3460  -18.0170   28.6530 C.3       1 ANP402      0.0000 
     20 O2'        -6.5470  -17.2680   28.8480 O.3       1 ANP402      0.0000 
     21 C1'        -5.6150  -19.2730   27.8470 C.3       1 ANP402      0.0000 
     22 N9         -4.5160  -20.2410   27.9550 N.pl3     1 ANP402      0.0000 
     23 C8         -3.2880  -20.1160   27.3980 C.2       1 ANP402      0.0000 
     24 N7         -2.5000  -21.1760   27.6800 N.2       1 ANP402      0.0000 
     25 C5         -3.2360  -21.9970   28.4290 C.ar      1 ANP402      0.0000 
     26 C6         -2.9540  -23.2820   29.0440 C.ar      1 ANP402      0.0000 
     27 N6         -1.7220  -23.8220   28.8580 N.pl3     1 ANP402      0.0000 
     28 N1         -3.9610  -23.8440   29.7640 N.ar      1 ANP402      0.0000 
     29 C2         -5.1770  -23.2490   29.9050 C.ar      1 ANP402      0.0000 
     30 N3         -5.4870  -22.0550   29.3570 N.ar      1 ANP402      0.0000 
     31 C4         -4.5680  -21.3960   28.6150 C.ar      1 ANP402      0.0000 
@<TRIPOS>BOND
     1    1    2 ar   
     2    1    3 ar   
     3    1    4 ar   
     4    1    8 1    
     5    5    6 ar   
     6    5    7 ar   
     7    5    8 1    
     8    5   12 1    
     9    9   10 ar   
    10    9   11 ar   
    11    9   12 1    
    12    9   13 1    
    13   13   14 1    
    14   14   15 1    
    15   15   16 1    
    16   15   17 1    
    17   16   21 1    
    18   17   18 1    
    19   17   19 1    
    20   19   20 1    
    21   19   21 1    
    22   21   22 1    
    23   22   23 1    
    24   22   31 1    
    25   23   24 2    
    26   24   25 1    
    27   25   26 ar   
    28   25   31 ar   
    29   26   27 1    
    30   26   28 ar   
    31   28   29 ar   
    32   29   30 ar   
    33   30   31 ar   
@<TRIPOS>SUBSTRUCTURE
     1 ANP402      1 GROUP   
@<TRIPOS>SET
ATOM$ORANGE STATIC     ATOMS   COLORGROUP SYSTEM 
20 14 14 15 15 17 17 19 19 21 21 23 23 25 25 26 26 29 \
29 31 31 

