#    Name: 6nhk_2_ADP
#    Modification time : Fri May 22 19:34:29 2020

@<TRIPOS>MOLECULE
6nhk_2_ADP
   27    29     1     0     1
SMALL
NO_CHARGES


@<TRIPOS>ATOM
      1 PB        -27.5630   19.2570  107.4650 P.3       1 ADP600      0.0000 
      2 O1B       -26.5250   18.1650  107.4040 O.co2     1 ADP600      0.0000 
      3 O2B       -28.0010   19.7760  106.1200 O.co2     1 ADP600      0.0000 
      4 O3B       -27.2950   20.3350  108.4850 O.co2     1 ADP600      0.0000 
      5 PA        -29.0250   18.1960  109.6060 P.3       1 ADP600      0.0000 
      6 O1A       -28.7330   16.7310  109.8350 O.co2     1 ADP600      0.0000 
      7 O2A       -28.2520   19.2540  110.3520 O.co2     1 ADP600      0.0000 
      8 O3A       -28.8690   18.5120  108.0350 O.3       1 ADP600      0.0000 
      9 O5'       -30.5880   18.4910  109.8680 O.3       1 ADP600      0.0000 
     10 C5'       -30.9530   19.2610  111.0110 C.3       1 ADP600      0.0000 
     11 C4'       -32.4460   19.5610  110.9860 C.3       1 ADP600      0.0000 
     12 O4'       -33.1810   18.3750  111.2990 O.3       1 ADP600      0.0000 
     13 C3'       -32.8230   20.6210  112.0110 C.3       1 ADP600      0.0000 
     14 O3'       -33.4620   21.7250  111.3650 O.3       1 ADP600      0.0000 
     15 C2'       -33.8060   19.9610  112.9540 C.3       1 ADP600      0.0000 
     16 O2'       -34.9760   20.7700  113.0870 O.3       1 ADP600      0.0000 
     17 C1'       -34.1540   18.6270  112.3150 C.3       1 ADP600      0.0000 
     18 N9        -34.1250   17.5460  113.3350 N.pl3     1 ADP600      0.0000 
     19 C8        -33.0340   17.1150  113.9960 C.2       1 ADP600      0.0000 
     20 N7        -33.3430   16.1160  114.8610 N.2       1 ADP600      0.0000 
     21 C5        -34.6660   15.8940  114.7620 C.ar      1 ADP600      0.0000 
     22 C6        -35.6440   14.9780  115.3950 C.ar      1 ADP600      0.0000 
     23 N6        -35.2600   14.0750  116.3300 N.pl3     1 ADP600      0.0000 
     24 N1        -36.9330   15.0720  115.0080 N.ar      1 ADP600      0.0000 
     25 C2        -37.3290   15.9630  114.0800 C.ar      1 ADP600      0.0000 
     26 N3        -36.4990   16.8230  113.4650 N.ar      1 ADP600      0.0000 
     27 C4        -35.1780   16.8420  113.7590 C.ar      1 ADP600      0.0000 
@<TRIPOS>BOND
     1    1    2 ar   
     2    1    3 ar   
     3    1    4 ar   
     4    1    8 1    
     5    5    6 ar   
     6    5    7 ar   
     7    5    8 1    
     8    5    9 1    
     9    9   10 1    
    10   10   11 1    
    11   11   12 1    
    12   11   13 1    
    13   12   17 1    
    14   13   14 1    
    15   13   15 1    
    16   15   16 1    
    17   15   17 1    
    18   17   18 1    
    19   18   19 1    
    20   18   27 1    
    21   19   20 2    
    22   20   21 1    
    23   21   22 ar   
    24   21   27 ar   
    25   22   23 1    
    26   22   24 ar   
    27   24   25 ar   
    28   25   26 ar   
    29   26   27 ar   
@<TRIPOS>SUBSTRUCTURE
     1 ADP600      1 GROUP   
@<TRIPOS>SET
ATOM$ORANGE STATIC     ATOMS   COLORGROUP SYSTEM 
20 10 10 11 11 13 13 15 15 17 17 19 19 21 21 22 22 25 \
25 27 27 

