#    Name: 6nhk_1_ADP
#    Modification time : Fri May 22 19:34:25 2020

@<TRIPOS>MOLECULE
6nhk_1_ADP
   27    29     1     0     1
SMALL
NO_CHARGES


@<TRIPOS>ATOM
      1 PB         15.7540   34.3080  117.9440 P.3       1 ADP501      0.0000 
      2 O1B        17.0250   34.0520  117.1790 O.co2     1 ADP501      0.0000 
      3 O2B        14.8080   35.2580  117.2710 O.co2     1 ADP501      0.0000 
      4 O3B        15.9520   34.5660  119.4110 O.co2     1 ADP501      0.0000 
      5 PA         14.6270   31.9970  119.1230 P.3       1 ADP501      0.0000 
      6 O1A        14.6760   30.5560  118.7060 O.co2     1 ADP501      0.0000 
      7 O2A        15.3940   32.4430  120.3340 O.co2     1 ADP501      0.0000 
      8 O3A        15.0290   32.8820  117.8500 O.3       1 ADP501      0.0000 
      9 O5'        13.0940   32.4100  119.3190 O.3       1 ADP501      0.0000 
     10 C5'        12.2640   31.6500  120.1860 C.3       1 ADP501      0.0000 
     11 C4'        10.8730   32.2580  120.2310 C.3       1 ADP501      0.0000 
     12 O4'         9.9330   31.2370  119.9180 O.3       1 ADP501      0.0000 
     13 C3'        10.5470   32.7460  121.6260 C.3       1 ADP501      0.0000 
     14 O3'         9.7940   33.9540  121.5510 O.3       1 ADP501      0.0000 
     15 C2'         9.6690   31.6830  122.2330 C.3       1 ADP501      0.0000 
     16 O2'         8.5880   32.3110  122.9240 O.3       1 ADP501      0.0000 
     17 C1'         9.1520   30.8820  121.0560 C.3       1 ADP501      0.0000 
     18 N9          9.2900   29.4350  121.3280 N.pl3     1 ADP501      0.0000 
     19 C8         10.3840   28.8130  121.7910 C.2       1 ADP501      0.0000 
     20 N7         10.1650   27.4830  121.9290 N.2       1 ADP501      0.0000 
     21 C5          8.9020   27.2420  121.5480 C.ar      1 ADP501      0.0000 
     22 C6          8.0240   26.0580  121.4440 C.ar      1 ADP501      0.0000 
     23 N6          8.4640   24.8290  121.7860 N.pl3     1 ADP501      0.0000 
     24 N1          6.7680   26.2450  120.9950 N.ar      1 ADP501      0.0000 
     25 C2          6.3130   27.4600  120.6520 C.ar      1 ADP501      0.0000 
     26 N3          7.0540   28.5750  120.7220 N.ar      1 ADP501      0.0000 
     27 C4          8.3320   28.5320  121.1530 C.ar      1 ADP501      0.0000 
@<TRIPOS>BOND
     1    1    2 ar   
     2    1    3 ar   
     3    1    4 ar   
     4    1    8 1    
     5    5    6 ar   
     6    5    7 ar   
     7    5    8 1    
     8    5    9 1    
     9    9   10 1    
    10   10   11 1    
    11   11   12 1    
    12   11   13 1    
    13   12   17 1    
    14   13   14 1    
    15   13   15 1    
    16   15   16 1    
    17   15   17 1    
    18   17   18 1    
    19   18   19 1    
    20   18   27 1    
    21   19   20 2    
    22   20   21 1    
    23   21   22 ar   
    24   21   27 ar   
    25   22   23 1    
    26   22   24 ar   
    27   24   25 ar   
    28   25   26 ar   
    29   26   27 ar   
@<TRIPOS>SUBSTRUCTURE
     1 ADP501      1 GROUP   
@<TRIPOS>SET
ATOM$ORANGE STATIC     ATOMS   COLORGROUP SYSTEM 
20 10 10 11 11 13 13 15 15 17 17 19 19 21 21 22 22 25 \
25 27 27 

