#    Name: 6f3u_1_IMP
#    Modification time : Fri May 22 19:38:39 2020

@<TRIPOS>MOLECULE
6f3u_1_IMP
   23    25     1     0     0
SMALL
NO_CHARGES


@<TRIPOS>ATOM
      1 P          30.9140    2.4920   51.7700 P.3       1 IMP902      0.0000 
      2 O1P        31.8050    1.7570   50.7980 O.co2     1 IMP902      0.0000 
      3 O2P        30.5540    3.9070   51.3810 O.co2     1 IMP902      0.0000 
      4 O3P        31.3540    2.3570   53.2080 O.co2     1 IMP902      0.0000 
      5 O5'        29.5170    1.6990   51.6290 O.3       1 IMP902      0.0000 
      6 C5'        28.8060    1.1160   52.7210 C.3       1 IMP902      0.0000 
      7 C4'        27.9350   -0.0140   52.1830 C.3       1 IMP902      0.0000 
      8 O4'        28.7430   -1.1670   51.9110 O.3       1 IMP902      0.0000 
      9 C3'        26.8510   -0.4210   53.1750 C.3       1 IMP902      0.0000 
     10 O3'        25.5500   -0.0790   52.6730 O.3       1 IMP902      0.0000 
     11 C2'        27.0350   -1.9180   53.3880 C.3       1 IMP902      0.0000 
     12 O2'        25.9670   -2.6900   52.8250 O.3       1 IMP902      0.0000 
     13 C1'        28.3580   -2.2880   52.7150 C.3       1 IMP902      0.0000 
     14 N9         29.4050   -2.6190   53.7280 N.pl3     1 IMP902      0.0000 
     15 C8         30.5600   -1.9520   53.9660 C.2       1 IMP902      0.0000 
     16 N7         31.2700   -2.5440   54.9650 N.2       1 IMP902      0.0000 
     17 C5         30.5690   -3.6130   55.3860 C.2       1 IMP902      0.0000 
     18 C6         30.7350   -4.6840   56.4070 C.2       1 IMP902      0.0000 
     19 O6         31.7460   -4.7190   57.1410 O.2       1 IMP902      0.0000 
     20 N1         29.7660   -5.6160   56.5200 N.am      1 IMP902      0.0000 
     21 C2         28.6600   -5.6030   55.7370 C.2       1 IMP902      0.0000 
     22 N3         28.4440   -4.6620   54.7880 N.2       1 IMP902      0.0000 
     23 C4         29.3440   -3.6620   54.5650 C.2       1 IMP902      0.0000 
@<TRIPOS>BOND
     1    1    2 ar   
     2    1    3 ar   
     3    1    4 ar   
     4    1    5 1    
     5    5    6 1    
     6    6    7 1    
     7    7    8 1    
     8    7    9 1    
     9    8   13 1    
    10    9   10 1    
    11    9   11 1    
    12   11   12 1    
    13   11   13 1    
    14   13   14 1    
    15   14   15 1    
    16   14   23 1    
    17   15   16 2    
    18   16   17 1    
    19   17   18 1    
    20   17   23 2    
    21   18   19 2    
    22   18   20 am   
    23   20   21 1    
    24   21   22 2    
    25   22   23 1    
@<TRIPOS>SUBSTRUCTURE
     1 IMP902      1 GROUP   
@<TRIPOS>SET

