#    Name: 6f3u_1_IMP_CAVITY_N1_8
#    Modification time : Fri May 22 19:38:39 2020

@<TRIPOS>MOLECULE
6f3u_1_IMP_CAVITY_N1_8
  111     0     7     0     0
SMALL
NO_CHARGES


@<TRIPOS>ATOM
      1 OG         29.8900    0.3300   48.2200 O.3       1 SER1        0.0000 
      2 OG         27.2900    4.9700   50.0000 O.3       1 SER1        0.0000 
      3 OG         28.2700    4.9900   48.8700 O.3       1 SER1        0.0000 
      4 OG         30.3400    2.3600   48.6400 O.3       1 SER1        0.0000 
      5 N          23.3300    3.5200   50.5100 N.am      2 ALA2        0.0000 
      6 N          24.9600   -0.4500   51.8700 N.am      2 ALA2        0.0000 
      7 O          24.7700    5.5700   49.8000 O.2       2 ALA2        0.0000 
      8 N          27.4800   -1.0500   52.0600 N.am      2 ALA2        0.0000 
      9 N          28.4600   -1.0300   50.9300 N.am      2 ALA2        0.0000 
     10 N          28.9100    0.3100   49.3500 N.am      2 ALA2        0.0000 
     11 N          29.4500   -1.0100   49.8000 N.am      2 ALA2        0.0000 
     12 N          28.8200    3.6600   49.3200 N.am      2 ALA2        0.0000 
     13 N          29.3600    2.3400   49.7700 N.am      2 ALA2        0.0000 
     14 OD1        20.8300    5.5000   54.3300 O.co2     3 ASP3        0.0000 
     15 OD1        22.3500    4.2000   53.6500 O.co2     3 ASP3        0.0000 
     16 OD1        22.8000    5.5400   52.0600 O.co2     3 ASP3        0.0000 
     17 OD1        23.3400    4.2100   52.5200 O.co2     3 ASP3        0.0000 
     18 OD1        23.8800    2.8900   52.9700 O.co2     3 ASP3        0.0000 
     19 OD1        24.3200    4.2300   51.3900 O.co2     3 ASP3        0.0000 
     20 OD1        30.4300   -1.0000   48.6700 O.co2     3 ASP3        0.0000 
     21 OD1        24.8700    3.5900   53.8400 O.co2     3 ASP3        0.0000 
     22 OD1        24.7800    6.2600   51.8100 O.co2     3 ASP3        0.0000 
     23 OD1        25.3200    4.9300   52.2600 O.co2     3 ASP3        0.0000 
     24 OD1        25.8600    3.6100   52.7100 O.co2     3 ASP3        0.0000 
     25 OD1        30.8800    1.0300   49.0900 O.co2     3 ASP3        0.0000 
     26 OD1        31.4300   -0.2900   49.5500 O.co2     3 ASP3        0.0000 
     27 OD1        25.8700    4.3000   54.7200 O.co2     3 ASP3        0.0000 
     28 OD1        26.3100    5.6400   53.1400 O.co2     3 ASP3        0.0000 
     29 OD1        26.8500    4.3200   53.5900 O.co2     3 ASP3        0.0000 
     30 OD1        28.2800    5.6700   50.8700 O.co2     3 ASP3        0.0000 
     31 OD1        28.8200    4.3500   51.3300 O.co2     3 ASP3        0.0000 
     32 OD1        29.2700    5.6900   49.7400 O.co2     3 ASP3        0.0000 
     33 OD1        29.8100    4.3700   50.2000 O.co2     3 ASP3        0.0000 
     34 OD1        30.3500    3.0400   50.6500 O.co2     3 ASP3        0.0000 
     35 OD1        30.8900    1.7200   51.1000 O.co2     3 ASP3        0.0000 
     36 OD1        29.8200    5.0600   52.2000 O.co2     3 ASP3        0.0000 
     37 OD1        30.9000    2.4100   53.1100 O.co2     3 ASP3        0.0000 
     38 OD1        31.9800   -0.2400   54.0100 O.co2     3 ASP3        0.0000 
     39 OD1        30.8000    5.0700   51.0700 O.co2     3 ASP3        0.0000 
     40 OD1        31.3400    3.7500   51.5200 O.co2     3 ASP3        0.0000 
     41 OD1        31.8800    2.4300   51.9800 O.co2     3 ASP3        0.0000 
     42 OD1        32.4300    1.1000   52.4300 O.co2     3 ASP3        0.0000 
     43 OD1        32.9700   -0.2200   52.8800 O.co2     3 ASP3        0.0000 
     44 OD1        33.4100    1.1200   51.3000 O.co2     3 ASP3        0.0000 
     45 OD1        31.3500    4.4400   53.5300 O.co2     3 ASP3        0.0000 
     46 OD1        31.8900    3.1200   53.9800 O.co2     3 ASP3        0.0000 
     47 OD1        32.3400    4.4600   52.4000 O.co2     3 ASP3        0.0000 
     48 NZ         25.7600    6.2700   50.6800 N.4       4 LYS4        0.0000 
     49 NZ         26.3000    4.9500   51.1300 N.4       4 LYS4        0.0000 
     50 NZ         26.7500    6.2900   49.5500 N.4       4 LYS4        0.0000 
     51 NZ         27.3000    5.6600   52.0000 N.4       4 LYS4        0.0000 
     52 CZ         21.8000    4.8300   51.1900 C.ar      5 PHE5        0.0000 
     53 CZ         22.7900    4.8500   50.0600 C.ar      5 PHE5        0.0000 
     54 CZ         22.2600    6.8600   51.6100 C.ar      5 PHE5        0.0000 
     55 CZ         23.7800    5.5500   50.9300 C.ar      5 PHE5        0.0000 
     56 CZ         28.5600   -3.6900   52.9700 C.ar      5 PHE5        0.0000 
     57 CZ         30.0000   -1.6500   52.2600 C.ar      5 PHE5        0.0000 
     58 CZ         30.9800   -1.6300   51.1300 C.ar      5 PHE5        0.0000 
     59 CZ         31.9700   -1.6100   50.0000 C.ar      5 PHE5        0.0000 
     60 CZ         31.5300   -2.2700   53.5900 C.ar      5 PHE5        0.0000 
     61 CZ         31.9800   -0.9300   52.0100 C.ar      5 PHE5        0.0000 
     62 CZ         32.5200   -2.2500   52.4600 C.ar      5 PHE5        0.0000 
     63 CZ         33.5000   -2.2300   51.3300 C.ar      5 PHE5        0.0000 
     64 CZ         27.8400    5.0200   54.4600 C.ar      5 PHE5        0.0000 
     65 CZ         28.8300    5.0400   53.3300 C.ar      5 PHE5        0.0000 
     66 CZ         29.3700    3.7200   53.7900 C.ar      5 PHE5        0.0000 
     67 CZ         32.5300   -1.5600   54.4700 C.ar      5 PHE5        0.0000 
     68 CA         19.8300    4.8000   53.4500 C.3       6 GLY6        0.0000 
     69 CA         20.8200    4.8100   52.3200 C.3       6 GLY6        0.0000 
     70 CA         22.3500    3.5100   51.6400 C.3       6 GLY6        0.0000 
     71 CA         22.8900    2.1800   52.0900 C.3       6 GLY6        0.0000 
     72 CA         23.4300    0.8600   52.5500 C.3       6 GLY6        0.0000 
     73 CA         23.8700    2.2000   50.9600 C.3       6 GLY6        0.0000 
     74 CA         24.4200    0.8800   51.4100 C.3       6 GLY6        0.0000 
     75 CA         24.8700    2.9100   51.8400 C.3       6 GLY6        0.0000 
     76 CA         25.4100    1.5800   52.2900 C.3       6 GLY6        0.0000 
     77 CA         25.3100    4.2500   50.2500 C.3       6 GLY6        0.0000 
     78 CA         25.8500    2.9200   50.7100 C.3       6 GLY6        0.0000 
     79 CA         26.3900    1.6000   51.1600 C.3       6 GLY6        0.0000 
     80 CA         26.9400    0.2800   51.6100 C.3       6 GLY6        0.0000 
     81 CA         28.0200   -2.3700   52.5200 C.3       6 GLY6        0.0000 
     82 CA         26.3000    4.2600   49.1200 C.3       6 GLY6        0.0000 
     83 CA         27.9200    0.2900   50.4800 C.3       6 GLY6        0.0000 
     84 CA         29.0100   -2.3500   51.3900 C.3       6 GLY6        0.0000 
     85 CA         27.8300    3.6400   50.4500 C.3       6 GLY6        0.0000 
     86 CA         28.3700    2.3200   50.9000 C.3       6 GLY6        0.0000 
     87 CA         32.4200    0.4100   50.4200 C.3       6 GLY6        0.0000 
     88 CA         32.9600   -0.9100   50.8800 C.3       6 GLY6        0.0000 
     89 CA         33.5100   -1.5400   53.3300 C.3       6 GLY6        0.0000 
     90 CA         33.9500   -0.2000   51.7500 C.3       6 GLY6        0.0000 
     91 CA         34.5000   -1.5300   52.2000 C.3       6 GLY6        0.0000 
     92 CA         34.5000   -0.8400   54.2100 C.3       6 GLY6        0.0000 
     93 DU         24.4200    1.5700   53.4200 H         7 CUB7        0.0000 
     94 DU         25.9500    0.2600   52.7400 H         7 CUB7        0.0000 
     95 DU         26.4000    2.2900   53.1700 H         7 CUB7        0.0000 
     96 DU         26.8400    3.6300   51.5800 H         7 CUB7        0.0000 
     97 DU         27.3900    2.3000   52.0300 H         7 CUB7        0.0000 
     98 DU         27.9300    0.9800   52.4900 H         7 CUB7        0.0000 
     99 DU         28.9100    1.0000   51.3600 H         7 CUB7        0.0000 
    100 DU         29.4600   -0.3300   51.8100 H         7 CUB7        0.0000 
    101 DU         29.9000    1.0200   50.2300 H         7 CUB7        0.0000 
    102 DU         30.4400   -0.3100   50.6800 H         7 CUB7        0.0000 
    103 DU         27.3900    2.9900   54.0400 H         7 CUB7        0.0000 
    104 DU         27.8400    4.3300   52.4600 H         7 CUB7        0.0000 
    105 DU         28.3800    3.0100   52.9100 H         7 CUB7        0.0000 
    106 DU         29.3600    3.0300   51.7800 H         7 CUB7        0.0000 
    107 DU         29.9100    1.7000   52.2300 H         7 CUB7        0.0000 
    108 DU         30.4500    0.3800   52.6800 H         7 CUB7        0.0000 
    109 DU         30.9900   -0.9400   53.1400 H         7 CUB7        0.0000 
    110 DU         31.4300    0.4000   51.5500 H         7 CUB7        0.0000 
    111 DU         30.3600    3.7300   52.6500 H         7 CUB7        0.0000 
@<TRIPOS>BOND
@<TRIPOS>SUBSTRUCTURE
     1 SER1        1 GROUP   
     2 ALA2        5 GROUP   
     3 ASP3       14 GROUP   
     4 LYS4       48 GROUP   
     5 PHE5       52 GROUP   
     6 GLY6       68 GROUP   
     7 CUB7       93 GROUP   
@<TRIPOS>SET

