#    Name: 5xz2_2_AP5_CAVITY_N1_8
#    Modification time : Fri May 22 19:20:44 2020

@<TRIPOS>MOLECULE
5xz2_2_AP5_CAVITY_N1_8
   79     0     6     0     0
SMALL
NO_CHARGES


@<TRIPOS>ATOM
      1 OG         12.1900  -16.9200   13.2100 O.3       1 SER1        0.0000 
      2 OG         13.9800  -18.0100   12.9100 O.3       1 SER1        0.0000 
      3 OG         14.6000  -19.2300   13.5400 O.3       1 SER1        0.0000 
      4 OG         13.5100  -17.2700   14.8400 O.3       1 SER1        0.0000 
      5 OG         14.1300  -18.4800   15.4600 O.3       1 SER1        0.0000 
      6 OG         14.7500  -19.7000   16.0900 O.3       1 SER1        0.0000 
      7 OG         20.2100  -20.8900   15.5600 O.3       1 SER1        0.0000 
      8 OG         19.6500  -22.2200   17.1100 O.3       1 SER1        0.0000 
      9 O          16.9500  -18.9800   11.6900 O.2       2 ALA2        0.0000 
     10 O          15.7800  -19.1100   12.6100 O.2       2 ALA2        0.0000 
     11 O          17.5700  -20.2000   12.3100 O.2       2 ALA2        0.0000 
     12 O          14.0500  -20.5700   15.0900 O.2       2 ALA2        0.0000 
     13 N          15.2400  -15.8100   12.3700 N.am      2 ALA2        0.0000 
     14 N          14.0600  -15.9300   13.2900 N.am      2 ALA2        0.0000 
     15 O          17.6500  -18.1100   12.6900 O.2       2 ALA2        0.0000 
     16 O          18.2700  -19.3300   13.3100 O.2       2 ALA2        0.0000 
     17 O          17.1000  -19.4500   14.2400 O.2       2 ALA2        0.0000 
     18 O          18.8900  -20.5400   13.9400 O.2       2 ALA2        0.0000 
     19 O          17.7200  -20.6700   14.8600 O.2       2 ALA2        0.0000 
     20 O          19.5200  -17.1200   12.7700 O.2       2 ALA2        0.0000 
     21 O          18.3500  -17.2400   13.6900 O.2       2 ALA2        0.0000 
     22 O          20.2200  -16.2500   13.7700 O.2       2 ALA2        0.0000 
     23 OD1        14.6800  -17.1400   13.9200 O.co2     3 ASP3        0.0000 
     24 OD1        18.8200  -17.9900   11.7700 O.co2     3 ASP3        0.0000 
     25 OD1        16.4800  -18.2400   13.6100 O.co2     3 ASP3        0.0000 
     26 OD1        15.3000  -18.3600   14.5400 O.co2     3 ASP3        0.0000 
     27 OD1        14.7600  -15.0600   14.2900 O.co2     3 ASP3        0.0000 
     28 OD1        16.5500  -16.1500   13.9900 O.co2     3 ASP3        0.0000 
     29 OD1        14.2000  -16.4000   15.8400 O.co2     3 ASP3        0.0000 
     30 OD1        17.1700  -17.3600   14.6200 O.co2     3 ASP3        0.0000 
     31 OD1        14.8200  -17.6100   16.4700 O.co2     3 ASP3        0.0000 
     32 OD1        20.1400  -18.3300   13.3900 O.co2     3 ASP3        0.0000 
     33 OD1        17.7900  -18.5800   15.2400 O.co2     3 ASP3        0.0000 
     34 OD1        16.6200  -18.7000   16.1700 O.co2     3 ASP3        0.0000 
     35 OD1        15.4400  -18.8300   17.0900 O.co2     3 ASP3        0.0000 
     36 OD1        21.9400  -19.4200   13.0900 O.co2     3 ASP3        0.0000 
     37 OD1        20.7600  -19.5500   14.0200 O.co2     3 ASP3        0.0000 
     38 OD1        19.0300  -21.0100   16.4900 O.co2     3 ASP3        0.0000 
     39 OD1        16.6800  -21.2600   18.3400 O.co2     3 ASP3        0.0000 
     40 OD1        19.0500  -16.3700   14.7000 O.co2     3 ASP3        0.0000 
     41 OD1        22.0100  -17.3400   13.4700 O.co2     3 ASP3        0.0000 
     42 OD1        20.8400  -17.4600   14.3900 O.co2     3 ASP3        0.0000 
     43 OD1        19.6700  -17.5800   15.3200 O.co2     3 ASP3        0.0000 
     44 OD1        18.4900  -17.7100   16.2400 O.co2     3 ASP3        0.0000 
     45 OD1        22.6300  -18.5500   14.0900 O.co2     3 ASP3        0.0000 
     46 OD1        21.4600  -18.6800   15.0200 O.co2     3 ASP3        0.0000 
     47 OD1        20.2800  -18.8000   15.9400 O.co2     3 ASP3        0.0000 
     48 OD1        19.1100  -18.9200   16.8700 O.co2     3 ASP3        0.0000 
     49 OD1        23.2500  -19.7700   14.7200 O.co2     3 ASP3        0.0000 
     50 OD1        22.0800  -19.8900   15.6400 O.co2     3 ASP3        0.0000 
     51 OD1        20.9000  -20.0200   16.5700 O.co2     3 ASP3        0.0000 
     52 OD1        19.7300  -20.1400   17.4900 O.co2     3 ASP3        0.0000 
     53 OD1        23.3300  -17.6800   15.1000 O.co2     3 ASP3        0.0000 
     54 OD1        22.7800  -19.0200   16.6500 O.co2     3 ASP3        0.0000 
     55 NZ         19.5100  -21.7600   14.5600 N.4       4 LYS4        0.0000 
     56 NZ         18.3400  -21.8800   15.4900 N.4       4 LYS4        0.0000 
     57 NZ         17.7800  -23.2200   17.0400 N.4       4 LYS4        0.0000 
     58 NZ         16.6100  -23.3400   17.9600 N.4       4 LYS4        0.0000 
     59 NZ         17.8600  -21.1300   17.4100 N.4       4 LYS4        0.0000 
     60 NZ         18.4800  -22.3500   18.0400 N.4       4 LYS4        0.0000 
     61 NZ         17.3000  -22.4700   18.9600 N.4       4 LYS4        0.0000 
     62 CA         13.3600  -16.8000   12.2900 C.3       5 GLY6        0.0000 
     63 CA         15.2200  -20.4500   14.1600 C.3       5 GLY6        0.0000 
     64 CA         14.6700  -21.7800   15.7100 C.3       5 GLY6        0.0000 
     65 CA         15.2900  -23.0000   16.3300 C.3       5 GLY6        0.0000 
     66 CA         17.0300  -16.9000   12.0700 C.3       5 GLY6        0.0000 
     67 CA         15.8600  -17.0200   12.9900 C.3       5 GLY6        0.0000 
     68 CA         15.9200  -19.5700   15.1600 C.3       5 GLY6        0.0000 
     69 CA         20.0600  -20.4200   13.0100 C.3       5 GLY6        0.0000 
     70 CA         16.5400  -20.7900   15.7900 C.3       5 GLY6        0.0000 
     71 CA         15.3700  -20.9100   16.7100 C.3       5 GLY6        0.0000 
     72 CA         17.1600  -22.0000   16.4100 C.3       5 GLY6        0.0000 
     73 CA         15.9900  -22.1300   17.3400 C.3       5 GLY6        0.0000 
     74 DU         12.8900  -16.0500   14.2200 H         6 CUB7        0.0000 
     75 DU         18.9700  -18.4600   14.3200 H         6 CUB7        0.0000 
     76 DU         19.5900  -19.6700   14.9400 H         6 CUB7        0.0000 
     77 DU         18.4100  -19.7900   15.8700 H         6 CUB7        0.0000 
     78 DU         17.2400  -19.9200   16.7900 H         6 CUB7        0.0000 
     79 DU         16.0600  -20.0400   17.7100 H         6 CUB7        0.0000 
@<TRIPOS>BOND
@<TRIPOS>SUBSTRUCTURE
     1 SER1        1 GROUP   
     2 ALA2        9 GROUP   
     3 ASP3       23 GROUP   
     4 LYS4       55 GROUP   
     5 GLY6       62 GROUP   
     6 CUB7       74 GROUP   
@<TRIPOS>SET

