#    Name: 5xz2_2_AP5
#    Modification time : Fri May 22 19:20:42 2020

@<TRIPOS>MOLECULE
5xz2_2_AP5
   57    62     1     0     0
SMALL
NO_CHARGES


@<TRIPOS>ATOM
      1 PA         23.7710  -19.3490   15.2480 P.3       1 AP5201      0.0000 
      2 O1A        24.2030  -20.7540   14.8230 O.co2     1 AP5201      0.0000 
      3 O2A        22.9320  -19.0570   16.4600 O.co2     1 AP5201      0.0000 
      4 O3A        23.0920  -18.8670   13.8730 O.3       1 AP5201      0.0000 
      5 PB         22.2520  -17.5530   13.6310 P.3       1 AP5201      0.0000 
      6 O1B        22.9540  -16.3970   14.3480 O.co2     1 AP5201      0.0000 
      7 O2B        22.0790  -17.5620   12.1290 O.co2     1 AP5201      0.0000 
      8 O3B        20.9440  -18.0150   14.3430 O.3       1 AP5201      0.0000 
      9 PG         19.5730  -17.3190   14.3870 P.3       1 AP5201      0.0000 
     10 O1G        18.7800  -17.9110   15.4550 O.co2     1 AP5201      0.0000 
     11 O2G        19.8670  -15.8850   14.4840 O.co2     1 AP5201      0.0000 
     12 O3G        18.6440  -17.4450   13.0950 O.3       1 AP5201      0.0000 
     13 PD         17.6610  -18.5370   12.5810 P.3       1 AP5201      0.0000 
     14 O1D        18.0800  -18.5490   11.0690 O.co2     1 AP5201      0.0000 
     15 O2D        17.6590  -19.8800   13.2090 O.co2     1 AP5201      0.0000 
     16 O3D        16.2830  -17.8080   12.7920 O.3       1 AP5201      0.0000 
     17 PE         14.9960  -18.1850   13.6960 P.3       1 AP5201      0.0000 
     18 O1E        15.4200  -18.2080   15.1040 O.co2     1 AP5201      0.0000 
     19 O2E        14.2440  -19.3910   13.1570 O.co2     1 AP5201      0.0000 
     20 O5F        25.1980  -18.5880   15.2950 O.3       1 AP5201      0.0000 
     21 C5F        25.5930  -17.7740   16.4380 C.3       1 AP5201      0.0000 
     22 C4F        27.0490  -17.4810   16.4000 C.3       1 AP5201      0.0000 
     23 O4F        27.6970  -18.6700   16.7650 O.3       1 AP5201      0.0000 
     24 C3F        27.7050  -17.0880   15.0600 C.3       1 AP5201      0.0000 
     25 O3F        27.4510  -15.7360   14.7220 O.3       1 AP5201      0.0000 
     26 C2F        29.1190  -17.4470   15.4020 C.3       1 AP5201      0.0000 
     27 O2F        29.6890  -16.4910   16.2830 O.3       1 AP5201      0.0000 
     28 C1F        28.9050  -18.7870   16.0640 C.3       1 AP5201      0.0000 
     29 N9A        28.6930  -19.8940   15.0850 N.pl3     1 AP5201      0.0000 
     30 C8A        27.5070  -20.4910   14.7780 C.2       1 AP5201      0.0000 
     31 N7A        27.7060  -21.4720   13.8730 N.2       1 AP5201      0.0000 
     32 C5A        29.0130  -21.4400   13.5500 C.ar      1 AP5201      0.0000 
     33 C6A        29.9070  -22.1700   12.6240 C.ar      1 AP5201      0.0000 
     34 N6A        29.4370  -23.1350   11.8350 N.pl3     1 AP5201      0.0000 
     35 N1A        31.2400  -21.8750   12.6080 N.ar      1 AP5201      0.0000 
     36 C2A        31.6940  -20.8790   13.3860 C.ar      1 AP5201      0.0000 
     37 N3A        30.9530  -20.1640   14.2340 N.ar      1 AP5201      0.0000 
     38 C4A        29.6330  -20.3860   14.3440 C.ar      1 AP5201      0.0000 
     39 O5J        14.0730  -16.9670   13.3590 O.3       1 AP5201      0.0000 
     40 C5J        14.5730  -15.6670   13.6050 C.3       1 AP5201      0.0000 
     41 C4J        13.3630  -14.8660   13.9690 C.3       1 AP5201      0.0000 
     42 O4J        12.5380  -14.6640   12.8340 O.3       1 AP5201      0.0000 
     43 C3J        12.4620  -15.4930   15.0150 C.3       1 AP5201      0.0000 
     44 O3J        11.9410  -14.4400   15.8200 O.3       1 AP5201      0.0000 
     45 C2J        11.2950  -16.0770   14.2540 C.3       1 AP5201      0.0000 
     46 O2J        10.1950  -16.1690   15.0990 O.3       1 AP5201      0.0000 
     47 C1J        11.2180  -15.1030   13.1000 C.3       1 AP5201      0.0000 
     48 N9B        10.8510  -15.8590   11.9040 N.pl3     1 AP5201      0.0000 
     49 C8B        11.4090  -17.0030   11.4270 C.2       1 AP5201      0.0000 
     50 N7B        10.7410  -17.4140   10.2940 N.2       1 AP5201      0.0000 
     51 C5B         9.7890  -16.4560   10.0850 C.ar      1 AP5201      0.0000 
     52 C6B         8.7940  -16.2220    9.0410 C.ar      1 AP5201      0.0000 
     53 N6B         8.7250  -17.1440    8.0830 N.pl3     1 AP5201      0.0000 
     54 N1B         7.9800  -15.1560    9.1370 N.ar      1 AP5201      0.0000 
     55 C2B         8.1310  -14.3150   10.1840 C.ar      1 AP5201      0.0000 
     56 N3B         9.0860  -14.4440   11.1440 N.ar      1 AP5201      0.0000 
     57 C4B         9.8790  -15.4780   11.1330 C.ar      1 AP5201      0.0000 
@<TRIPOS>BOND
     1    1    2 ar   
     2    1    3 ar   
     3    1    4 1    
     4    1   20 1    
     5    4    5 1    
     6    5    6 ar   
     7    5    7 ar   
     8    5    8 1    
     9    8    9 1    
    10    9   10 ar   
    11    9   11 ar   
    12    9   12 1    
    13   12   13 1    
    14   13   14 ar   
    15   13   15 ar   
    16   13   16 1    
    17   16   17 1    
    18   17   18 ar   
    19   17   19 ar   
    20   17   39 1    
    21   20   21 1    
    22   21   22 1    
    23   22   23 1    
    24   22   24 1    
    25   23   28 1    
    26   24   25 1    
    27   24   26 1    
    28   26   27 1    
    29   26   28 1    
    30   28   29 1    
    31   29   30 1    
    32   29   38 1    
    33   30   31 2    
    34   31   32 1    
    35   32   33 ar   
    36   32   38 ar   
    37   33   34 1    
    38   33   35 ar   
    39   35   36 ar   
    40   36   37 ar   
    41   37   38 ar   
    42   39   40 1    
    43   40   41 1    
    44   41   42 1    
    45   41   43 1    
    46   42   47 1    
    47   43   44 1    
    48   43   45 1    
    49   45   46 1    
    50   45   47 1    
    51   47   48 1    
    52   48   49 1    
    53   48   57 1    
    54   49   50 2    
    55   50   51 1    
    56   51   52 ar   
    57   51   57 ar   
    58   52   53 1    
    59   52   54 ar   
    60   54   55 ar   
    61   55   56 ar   
    62   56   57 ar   
@<TRIPOS>SUBSTRUCTURE
     1 AP5201      1 GROUP   
@<TRIPOS>SET

