#    Name: 5xz2_1_AP5
#    Modification time : Fri May 22 19:20:39 2020

@<TRIPOS>MOLECULE
5xz2_1_AP5
   57    62     1     0     0
SMALL
NO_CHARGES


@<TRIPOS>ATOM
      1 PA         15.4630  -40.4070   29.2620 P.3       1 AP5201      0.0000 
      2 O1A        15.2510  -39.1150   29.8970 O.co2     1 AP5201      0.0000 
      3 O2A        16.0210  -40.5650   27.9390 O.co2     1 AP5201      0.0000 
      4 O3A        13.9580  -40.9200   29.4030 O.3       1 AP5201      0.0000 
      5 PB         13.2160  -42.1740   28.7720 P.3       1 AP5201      0.0000 
      6 O1B        14.1350  -43.3340   28.9580 O.co2     1 AP5201      0.0000 
      7 O2B        11.9570  -42.0440   29.5440 O.co2     1 AP5201      0.0000 
      8 O3B        13.2030  -41.7820   27.2450 O.3       1 AP5201      0.0000 
      9 PG         12.3580  -42.6290   26.1840 P.3       1 AP5201      0.0000 
     10 O1G        12.9140  -41.9800   25.0240 O.co2     1 AP5201      0.0000 
     11 O2G        12.4730  -44.1100   26.4190 O.co2     1 AP5201      0.0000 
     12 O3G        10.8110  -42.3170   26.2780 O.3       1 AP5201      0.0000 
     13 PD          9.9000  -41.1680   25.7280 P.3       1 AP5201      0.0000 
     14 O1D         8.8000  -41.2780   26.7860 O.co2     1 AP5201      0.0000 
     15 O2D        10.4710  -39.8550   25.3890 O.co2     1 AP5201      0.0000 
     16 O3D         9.2270  -41.9170   24.4860 O.3       1 AP5201      0.0000 
     17 PE          9.2690  -41.4890   22.9160 P.3       1 AP5201      0.0000 
     18 O1E        10.5980  -41.5560   22.3740 O.co2     1 AP5201      0.0000 
     19 O2E         8.4440  -40.2740   22.6740 O.co2     1 AP5201      0.0000 
     20 O5F        16.2770  -41.2680   30.3950 O.3       1 AP5201      0.0000 
     21 C5F        17.2950  -42.1300   29.9840 C.3       1 AP5201      0.0000 
     22 C4F        18.0540  -42.4360   31.2700 C.3       1 AP5201      0.0000 
     23 O4F        18.7740  -41.2680   31.6200 O.3       1 AP5201      0.0000 
     24 C3F        17.2930  -42.8490   32.5120 C.3       1 AP5201      0.0000 
     25 O3F        16.9310  -44.1940   32.5700 O.3       1 AP5201      0.0000 
     26 C2F        18.3650  -42.5040   33.5900 C.3       1 AP5201      0.0000 
     27 O2F        19.3170  -43.5600   33.5840 O.3       1 AP5201      0.0000 
     28 C1F        18.8330  -41.1310   33.0250 C.3       1 AP5201      0.0000 
     29 N9A        18.0290  -39.9780   33.4710 N.pl3     1 AP5201      0.0000 
     30 C8A        17.2270  -39.2320   32.6670 C.2       1 AP5201      0.0000 
     31 N7A        16.6770  -38.2690   33.3450 N.2       1 AP5201      0.0000 
     32 C5A        17.0470  -38.3690   34.6320 C.ar      1 AP5201      0.0000 
     33 C6A        16.6800  -37.7140   35.8370 C.ar      1 AP5201      0.0000 
     34 N6A        15.8090  -36.6850   35.8880 N.pl3     1 AP5201      0.0000 
     35 N1A        17.2850  -38.0870   36.9630 N.ar      1 AP5201      0.0000 
     36 C2A        18.1390  -39.1530   36.9740 C.ar      1 AP5201      0.0000 
     37 N3A        18.4740  -39.8500   35.9050 N.ar      1 AP5201      0.0000 
     38 C4A        17.9470  -39.5240   34.7140 C.ar      1 AP5201      0.0000 
     39 O5J         8.4320  -42.7720   22.4180 O.3       1 AP5201      0.0000 
     40 C5J         8.8810  -44.1370   22.6200 C.3       1 AP5201      0.0000 
     41 C4J         8.4740  -44.9790   21.4600 C.3       1 AP5201      0.0000 
     42 O4J         7.0560  -45.0890   21.4380 O.3       1 AP5201      0.0000 
     43 C3J         8.8470  -44.3640   20.1030 C.3       1 AP5201      0.0000 
     44 O3J         9.1890  -45.4570   19.2900 O.3       1 AP5201      0.0000 
     45 C2J         7.5830  -43.7190   19.6020 C.3       1 AP5201      0.0000 
     46 O2J         7.5280  -43.6740   18.2030 O.3       1 AP5201      0.0000 
     47 C1J         6.4940  -44.5770   20.2280 C.3       1 AP5201      0.0000 
     48 N9B         5.3170  -43.7540   20.5670 N.pl3     1 AP5201      0.0000 
     49 C8B         5.2900  -42.5890   21.2650 C.2       1 AP5201      0.0000 
     50 N7B         4.0140  -42.1260   21.4160 N.2       1 AP5201      0.0000 
     51 C5B         3.1930  -43.0090   20.8610 C.ar      1 AP5201      0.0000 
     52 C6B         1.7350  -43.0850   20.6110 C.ar      1 AP5201      0.0000 
     53 N6B         0.8690  -42.2070   21.0680 N.pl3     1 AP5201      0.0000 
     54 N1B         1.3090  -44.1770   19.9310 N.ar      1 AP5201      0.0000 
     55 C2B         2.1860  -45.1060   19.4520 C.ar      1 AP5201      0.0000 
     56 N3B         3.5360  -45.0820   19.6300 N.ar      1 AP5201      0.0000 
     57 C4B         4.0670  -44.0540   20.3040 C.ar      1 AP5201      0.0000 
@<TRIPOS>BOND
     1    1    2 ar   
     2    1    3 ar   
     3    1    4 1    
     4    1   20 1    
     5    4    5 1    
     6    5    6 ar   
     7    5    7 ar   
     8    5    8 1    
     9    8    9 1    
    10    9   10 ar   
    11    9   11 ar   
    12    9   12 1    
    13   12   13 1    
    14   13   14 ar   
    15   13   15 ar   
    16   13   16 1    
    17   16   17 1    
    18   17   18 ar   
    19   17   19 ar   
    20   17   39 1    
    21   20   21 1    
    22   21   22 1    
    23   22   23 1    
    24   22   24 1    
    25   23   28 1    
    26   24   25 1    
    27   24   26 1    
    28   26   27 1    
    29   26   28 1    
    30   28   29 1    
    31   29   30 1    
    32   29   38 1    
    33   30   31 2    
    34   31   32 1    
    35   32   33 ar   
    36   32   38 ar   
    37   33   34 1    
    38   33   35 ar   
    39   35   36 ar   
    40   36   37 ar   
    41   37   38 ar   
    42   39   40 1    
    43   40   41 1    
    44   41   42 1    
    45   41   43 1    
    46   42   47 1    
    47   43   44 1    
    48   43   45 1    
    49   45   46 1    
    50   45   47 1    
    51   47   48 1    
    52   48   49 1    
    53   48   57 1    
    54   49   50 2    
    55   50   51 1    
    56   51   52 ar   
    57   51   57 ar   
    58   52   53 1    
    59   52   54 ar   
    60   54   55 ar   
    61   55   56 ar   
    62   56   57 ar   
@<TRIPOS>SUBSTRUCTURE
     1 AP5201      1 GROUP   
@<TRIPOS>SET

