#    Name: 6ep2_6_ADP
#    Modification time : Fri May 22 19:30:50 2020

@<TRIPOS>MOLECULE
6ep2_6_ADP
   27    29     1     0     1
SMALL
NO_CHARGES


@<TRIPOS>ATOM
      1 PB        -85.7990   63.3190  -55.5860 P.3       1 ADP301      0.0000 
      2 O1B       -84.4210   63.3980  -56.1780 O.co2     1 ADP301      0.0000 
      3 O2B       -86.7130   64.4530  -56.0010 O.co2     1 ADP301      0.0000 
      4 O3B       -86.4090   61.9420  -55.7090 O.co2     1 ADP301      0.0000 
      5 PA        -84.6200   62.7500  -53.0220 P.3       1 ADP301      0.0000 
      6 O1A       -83.5150   62.1230  -53.8330 O.co2     1 ADP301      0.0000 
      7 O2A       -85.4550   61.9420  -52.0480 O.co2     1 ADP301      0.0000 
      8 O3A       -85.6140   63.5740  -54.0030 O.3       1 ADP301      0.0000 
      9 O5'       -83.9980   63.9940  -52.2090 O.3       1 ADP301      0.0000 
     10 C5'       -82.9360   64.7620  -52.7670 C.3       1 ADP301      0.0000 
     11 C4'       -82.8410   66.0510  -51.9660 C.3       1 ADP301      0.0000 
     12 O4'       -82.2550   65.7840  -50.6910 O.3       1 ADP301      0.0000 
     13 C3'       -81.9550   67.1000  -52.6160 C.3       1 ADP301      0.0000 
     14 O3'       -82.7130   67.9460  -53.4770 O.3       1 ADP301      0.0000 
     15 C2'       -81.4010   67.8720  -51.4390 C.3       1 ADP301      0.0000 
     16 O2'       -82.2730   68.9680  -51.1460 O.3       1 ADP301      0.0000 
     17 C1'       -81.4480   66.8910  -50.2800 C.3       1 ADP301      0.0000 
     18 N9        -80.0920   66.3730  -49.9800 N.pl3     1 ADP301      0.0000 
     19 C8        -79.2440   65.8460  -50.8850 C.2       1 ADP301      0.0000 
     20 N7        -78.0840   65.4500  -50.2970 N.2       1 ADP301      0.0000 
     21 C5        -78.1830   65.7280  -48.9860 C.ar      1 ADP301      0.0000 
     22 C6        -77.3120   65.5600  -47.8020 C.ar      1 ADP301      0.0000 
     23 N6        -76.0800   65.0060  -47.9260 N.pl3     1 ADP301      0.0000 
     24 N1        -77.7910   65.9770  -46.6070 N.ar      1 ADP301      0.0000 
     25 C2        -79.0180   66.5240  -46.4860 C.ar      1 ADP301      0.0000 
     26 N3        -79.8610   66.7090  -47.5230 N.ar      1 ADP301      0.0000 
     27 C4        -79.5070   66.3350  -48.7780 C.ar      1 ADP301      0.0000 
@<TRIPOS>BOND
     1    1    2 ar   
     2    1    3 ar   
     3    1    4 ar   
     4    1    8 1    
     5    5    6 ar   
     6    5    7 ar   
     7    5    8 1    
     8    5    9 1    
     9    9   10 1    
    10   10   11 1    
    11   11   12 1    
    12   11   13 1    
    13   12   17 1    
    14   13   14 1    
    15   13   15 1    
    16   15   16 1    
    17   15   17 1    
    18   17   18 1    
    19   18   19 1    
    20   18   27 1    
    21   19   20 2    
    22   20   21 1    
    23   21   22 ar   
    24   21   27 ar   
    25   22   23 1    
    26   22   24 ar   
    27   24   25 ar   
    28   25   26 ar   
    29   26   27 ar   
@<TRIPOS>SUBSTRUCTURE
     1 ADP301      1 GROUP   
@<TRIPOS>SET
ATOM$ORANGE STATIC     ATOMS   COLORGROUP SYSTEM 
20 10 10 11 11 13 13 15 15 17 17 19 19 21 21 22 22 25 \
25 27 27 

