#    Name: 6ep2_12_ADP
#    Modification time : Fri May 22 19:31:33 2020

@<TRIPOS>MOLECULE
6ep2_12_ADP
   27    29     1     0     1
SMALL
NO_CHARGES


@<TRIPOS>ATOM
      1 PB        -75.2990  -19.8960  -75.7080 P.3       1 ADP301      0.0000 
      2 O1B       -76.4410  -20.5070  -76.4960 O.co2     1 ADP301      0.0000 
      3 O2B       -73.9670  -19.9410  -76.4070 O.co2     1 ADP301      0.0000 
      4 O3B       -75.2470  -20.3590  -74.2690 O.co2     1 ADP301      0.0000 
      5 PA        -74.7520  -17.0810  -75.1660 P.3       1 ADP301      0.0000 
      6 O1A       -73.3170  -17.5070  -75.0470 O.co2     1 ADP301      0.0000 
      7 O2A       -75.4570  -16.3760  -74.0350 O.co2     1 ADP301      0.0000 
      8 O3A       -75.6890  -18.3250  -75.6310 O.3       1 ADP301      0.0000 
      9 O5'       -74.8700  -16.1260  -76.4520 O.3       1 ADP301      0.0000 
     10 C5'       -74.1970  -16.4860  -77.6620 C.3       1 ADP301      0.0000 
     11 C4'       -74.7230  -15.5920  -78.7750 C.3       1 ADP301      0.0000 
     12 O4'       -74.4220  -14.2150  -78.5350 O.3       1 ADP301      0.0000 
     13 C3'       -74.1100  -15.8890  -80.1300 C.3       1 ADP301      0.0000 
     14 O3'       -74.8290  -16.9390  -80.7780 O.3       1 ADP301      0.0000 
     15 C2'       -74.2550  -14.5780  -80.8700 C.3       1 ADP301      0.0000 
     16 O2'       -75.5460  -14.5620  -81.4800 O.3       1 ADP301      0.0000 
     17 C1'       -74.2640  -13.5240  -79.7800 C.3       1 ADP301      0.0000 
     18 N9        -72.9640  -12.8180  -79.7490 N.pl3     1 ADP301      0.0000 
     19 C8        -71.7650  -13.4200  -79.6240 C.2       1 ADP301      0.0000 
     20 N7        -70.7640  -12.5040  -79.6200 N.2       1 ADP301      0.0000 
     21 C5        -71.3280  -11.2880  -79.7420 C.ar      1 ADP301      0.0000 
     22 C6        -70.8410   -9.8950  -79.8040 C.ar      1 ADP301      0.0000 
     23 N6        -69.5170   -9.6320  -79.7320 N.pl3     1 ADP301      0.0000 
     24 N1        -71.7530   -8.9080  -79.9430 N.ar      1 ADP301      0.0000 
     25 C2        -73.0750   -9.1660  -80.0030 C.ar      1 ADP301      0.0000 
     26 N3        -73.5860  -10.4090  -79.9500 N.ar      1 ADP301      0.0000 
     27 C4        -72.7790  -11.4950  -79.8280 C.ar      1 ADP301      0.0000 
@<TRIPOS>BOND
     1    1    2 ar   
     2    1    3 ar   
     3    1    4 ar   
     4    1    8 1    
     5    5    6 ar   
     6    5    7 ar   
     7    5    8 1    
     8    5    9 1    
     9    9   10 1    
    10   10   11 1    
    11   11   12 1    
    12   11   13 1    
    13   12   17 1    
    14   13   14 1    
    15   13   15 1    
    16   15   16 1    
    17   15   17 1    
    18   17   18 1    
    19   18   19 1    
    20   18   27 1    
    21   19   20 2    
    22   20   21 1    
    23   21   22 ar   
    24   21   27 ar   
    25   22   23 1    
    26   22   24 ar   
    27   24   25 ar   
    28   25   26 ar   
    29   26   27 ar   
@<TRIPOS>SUBSTRUCTURE
     1 ADP301      1 GROUP   
@<TRIPOS>SET
ATOM$ORANGE STATIC     ATOMS   COLORGROUP SYSTEM 
20 10 10 11 11 13 13 15 15 17 17 19 19 21 21 22 22 25 \
25 27 27 

