#    Name: 6ep2_8_ADP
#    Modification time : Fri May 22 19:31:05 2020

@<TRIPOS>MOLECULE
6ep2_8_ADP
   27    29     1     0     1
SMALL
NO_CHARGES


@<TRIPOS>ATOM
      1 PB        -73.3780   81.2530  -23.7570 P.3       1 ADP301      0.0000 
      2 O1B       -72.0770   81.2480  -24.5150 O.co2     1 ADP301      0.0000 
      3 O2B       -74.3540   82.2690  -24.2970 O.co2     1 ADP301      0.0000 
      4 O3B       -73.2140   81.2760  -22.2510 O.co2     1 ADP301      0.0000 
      5 PA        -74.0750   79.0490  -25.4650 P.3       1 ADP301      0.0000 
      6 O1A       -73.1540   79.7710  -26.4190 O.co2     1 ADP301      0.0000 
      7 O2A       -75.5010   78.7370  -25.8450 O.co2     1 ADP301      0.0000 
      8 O3A       -74.0800   79.8230  -24.0450 O.3       1 ADP301      0.0000 
      9 O5'       -73.3610   77.6730  -25.0450 O.3       1 ADP301      0.0000 
     10 C5'       -71.9500   77.5520  -25.1830 C.3       1 ADP301      0.0000 
     11 C4'       -71.5140   76.2400  -24.5570 C.3       1 ADP301      0.0000 
     12 O4'       -71.7850   75.1490  -25.4360 O.3       1 ADP301      0.0000 
     13 C3'       -70.0240   76.1810  -24.3000 C.3       1 ADP301      0.0000 
     14 O3'       -69.7170   76.7300  -23.0200 O.3       1 ADP301      0.0000 
     15 C2'       -69.7360   74.6980  -24.3450 C.3       1 ADP301      0.0000 
     16 O2'       -69.9650   74.1910  -23.0260 O.3       1 ADP301      0.0000 
     17 C1'       -70.8050   74.1250  -25.2570 C.3       1 ADP301      0.0000 
     18 N9        -70.2930   73.7780  -26.6030 N.pl3     1 ADP301      0.0000 
     19 C8        -69.6430   74.6150  -27.4330 C.2       1 ADP301      0.0000 
     20 N7        -69.3300   73.9980  -28.5990 N.2       1 ADP301      0.0000 
     21 C5        -69.7900   72.7410  -28.5300 C.ar      1 ADP301      0.0000 
     22 C6        -69.7910   71.5670  -29.4240 C.ar      1 ADP301      0.0000 
     23 N6        -69.2130   71.6380  -30.6470 N.pl3     1 ADP301      0.0000 
     24 N1        -70.3770   70.4310  -28.9730 N.ar      1 ADP301      0.0000 
     25 C2        -70.9490   70.3730  -27.7530 C.ar      1 ADP301      0.0000 
     26 N3        -70.9840   71.4100  -26.8930 N.ar      1 ADP301      0.0000 
     27 C4        -70.4270   72.5970  -27.2140 C.ar      1 ADP301      0.0000 
@<TRIPOS>BOND
     1    1    2 ar   
     2    1    3 ar   
     3    1    4 ar   
     4    1    8 1    
     5    5    6 ar   
     6    5    7 ar   
     7    5    8 1    
     8    5    9 1    
     9    9   10 1    
    10   10   11 1    
    11   11   12 1    
    12   11   13 1    
    13   12   17 1    
    14   13   14 1    
    15   13   15 1    
    16   15   16 1    
    17   15   17 1    
    18   17   18 1    
    19   18   19 1    
    20   18   27 1    
    21   19   20 2    
    22   20   21 1    
    23   21   22 ar   
    24   21   27 ar   
    25   22   23 1    
    26   22   24 ar   
    27   24   25 ar   
    28   25   26 ar   
    29   26   27 ar   
@<TRIPOS>SUBSTRUCTURE
     1 ADP301      1 GROUP   
@<TRIPOS>SET
ATOM$ORANGE STATIC     ATOMS   COLORGROUP SYSTEM 
20 10 10 11 11 13 13 15 15 17 17 19 19 21 21 22 22 25 \
25 27 27 

