#    Name: 6ep2_9_ADP
#    Modification time : Fri May 22 19:31:12 2020

@<TRIPOS>MOLECULE
6ep2_9_ADP
   27    29     1     0     1
SMALL
NO_CHARGES


@<TRIPOS>ATOM
      1 PB        -51.9590   45.7380  -33.8130 P.3       1 ADP301      0.0000 
      2 O1B       -51.6530   44.7500  -34.9140 O.co2     1 ADP301      0.0000 
      3 O2B       -50.9040   45.7750  -32.7280 O.co2     1 ADP301      0.0000 
      4 O3B       -53.3520   45.6220  -33.2720 O.co2     1 ADP301      0.0000 
      5 PA        -52.8530   47.9470  -35.4940 P.3       1 ADP301      0.0000 
      6 O1A       -52.0940   48.3290  -36.7370 O.co2     1 ADP301      0.0000 
      7 O2A       -54.1540   47.1960  -35.5630 O.co2     1 ADP301      0.0000 
      8 O3A       -51.8360   47.2150  -34.4730 O.3       1 ADP301      0.0000 
      9 O5'       -53.0870   49.3090  -34.6560 O.3       1 ADP301      0.0000 
     10 C5'       -53.9870   49.3820  -33.5440 C.3       1 ADP301      0.0000 
     11 C4'       -53.7500   50.7110  -32.8360 C.3       1 ADP301      0.0000 
     12 O4'       -54.1810   51.8080  -33.6510 O.3       1 ADP301      0.0000 
     13 C3'       -54.5310   50.8660  -31.5460 C.3       1 ADP301      0.0000 
     14 O3'       -53.8110   50.3190  -30.4420 O.3       1 ADP301      0.0000 
     15 C2'       -54.6580   52.3650  -31.4120 C.3       1 ADP301      0.0000 
     16 O2'       -53.4530   52.8490  -30.8180 O.3       1 ADP301      0.0000 
     17 C1'       -54.6760   52.8700  -32.8410 C.3       1 ADP301      0.0000 
     18 N9        -56.0490   53.1740  -33.3050 N.pl3     1 ADP301      0.0000 
     19 C8        -57.0890   52.3120  -33.3330 C.2       1 ADP301      0.0000 
     20 N7        -58.2040   52.9060  -33.8340 N.2       1 ADP301      0.0000 
     21 C5        -57.8820   54.1760  -34.1430 C.ar      1 ADP301      0.0000 
     22 C6        -58.5870   55.3530  -34.7130 C.ar      1 ADP301      0.0000 
     23 N6        -59.8960   55.2880  -35.0640 N.pl3     1 ADP301      0.0000 
     24 N1        -57.8780   56.4970  -34.8700 N.ar      1 ADP301      0.0000 
     25 C2        -56.5770   56.5750  -34.5270 C.ar      1 ADP301      0.0000 
     26 N3        -55.8740   55.5480  -34.0100 N.ar      1 ADP301      0.0000 
     27 C4        -56.4600   54.3470  -33.7930 C.ar      1 ADP301      0.0000 
@<TRIPOS>BOND
     1    1    2 ar   
     2    1    3 ar   
     3    1    4 ar   
     4    1    8 1    
     5    5    6 ar   
     6    5    7 ar   
     7    5    8 1    
     8    5    9 1    
     9    9   10 1    
    10   10   11 1    
    11   11   12 1    
    12   11   13 1    
    13   12   17 1    
    14   13   14 1    
    15   13   15 1    
    16   15   16 1    
    17   15   17 1    
    18   17   18 1    
    19   18   19 1    
    20   18   27 1    
    21   19   20 2    
    22   20   21 1    
    23   21   22 ar   
    24   21   27 ar   
    25   22   23 1    
    26   22   24 ar   
    27   24   25 ar   
    28   25   26 ar   
    29   26   27 ar   
@<TRIPOS>SUBSTRUCTURE
     1 ADP301      1 GROUP   
@<TRIPOS>SET
ATOM$ORANGE STATIC     ATOMS   COLORGROUP SYSTEM 
20 10 10 11 11 13 13 15 15 17 17 19 19 21 21 22 22 25 \
25 27 27 

