#    Name: 6ep2_4_ADP
#    Modification time : Fri May 22 19:30:43 2020

@<TRIPOS>MOLECULE
6ep2_4_ADP
   27    29     1     0     1
SMALL
NO_CHARGES


@<TRIPOS>ATOM
      1 PB        -79.8690   14.2100  -92.7620 P.3       1 ADP301      0.0000 
      2 O1B       -78.5600   13.9730  -93.4450 O.co2     1 ADP301      0.0000 
      3 O2B       -80.2330   15.6630  -92.5520 O.co2     1 ADP301      0.0000 
      4 O3B       -80.9960   13.3790  -93.3370 O.co2     1 ADP301      0.0000 
      5 PA        -79.0500   12.3140  -90.7190 P.3       1 ADP301      0.0000 
      6 O1A       -78.2360   11.6530  -91.8010 O.co2     1 ADP301      0.0000 
      7 O2A       -80.1320   11.5800  -89.9690 O.co2     1 ADP301      0.0000 
      8 O3A       -79.6330   13.7190  -91.2440 O.3       1 ADP301      0.0000 
      9 O5'       -78.0160   12.8800  -89.6300 O.3       1 ADP301      0.0000 
     10 C5'       -76.7500   13.3930  -90.0350 C.3       1 ADP301      0.0000 
     11 C4'       -76.1220   14.1320  -88.8570 C.3       1 ADP301      0.0000 
     12 O4'       -75.7170   13.1970  -87.8600 O.3       1 ADP301      0.0000 
     13 C3'       -74.8460   14.8600  -89.2350 C.3       1 ADP301      0.0000 
     14 O3'       -75.1160   16.1620  -89.7560 O.3       1 ADP301      0.0000 
     15 C2'       -74.0780   14.9120  -87.9340 C.3       1 ADP301      0.0000 
     16 O2'       -74.5600   16.0290  -87.1810 O.3       1 ADP301      0.0000 
     17 C1'       -74.5260   13.6570  -87.2120 C.3       1 ADP301      0.0000 
     18 N9        -73.5070   12.5940  -87.3180 N.pl3     1 ADP301      0.0000 
     19 C8        -72.9470   12.1440  -88.4610 C.2       1 ADP301      0.0000 
     20 N7        -72.0570   11.1580  -88.1960 N.2       1 ADP301      0.0000 
     21 C5        -72.0430   10.9610  -86.8660 C.ar      1 ADP301      0.0000 
     22 C6        -71.3230   10.0770  -85.9280 C.ar      1 ADP301      0.0000 
     23 N6        -70.4230    9.1740  -86.3900 N.pl3     1 ADP301      0.0000 
     24 N1        -71.5910   10.2000  -84.6050 N.ar      1 ADP301      0.0000 
     25 C2        -72.4860   11.0940  -84.1480 C.ar      1 ADP301      0.0000 
     26 N3        -73.1770   11.9310  -84.9490 N.ar      1 ADP301      0.0000 
     27 C4        -72.9960   11.9140  -86.2880 C.ar      1 ADP301      0.0000 
@<TRIPOS>BOND
     1    1    2 ar   
     2    1    3 ar   
     3    1    4 ar   
     4    1    8 1    
     5    5    6 ar   
     6    5    7 ar   
     7    5    8 1    
     8    5    9 1    
     9    9   10 1    
    10   10   11 1    
    11   11   12 1    
    12   11   13 1    
    13   12   17 1    
    14   13   14 1    
    15   13   15 1    
    16   15   16 1    
    17   15   17 1    
    18   17   18 1    
    19   18   19 1    
    20   18   27 1    
    21   19   20 2    
    22   20   21 1    
    23   21   22 ar   
    24   21   27 ar   
    25   22   23 1    
    26   22   24 ar   
    27   24   25 ar   
    28   25   26 ar   
    29   26   27 ar   
@<TRIPOS>SUBSTRUCTURE
     1 ADP301      1 GROUP   
@<TRIPOS>SET
ATOM$ORANGE STATIC     ATOMS   COLORGROUP SYSTEM 
20 10 10 11 11 13 13 15 15 17 17 19 19 21 21 22 22 25 \
25 27 27 

