#    Name: 6ep2_7_ADP
#    Modification time : Fri May 22 19:30:58 2020

@<TRIPOS>MOLECULE
6ep2_7_ADP
   27    29     1     0     1
SMALL
NO_CHARGES


@<TRIPOS>ATOM
      1 PB        -69.8460   42.8150  -26.8150 P.3       1 ADP301      0.0000 
      2 O1B       -68.5190   43.0680  -27.4540 O.co2     1 ADP301      0.0000 
      3 O2B       -70.4610   41.4880  -27.2160 O.co2     1 ADP301      0.0000 
      4 O3B       -69.8520   43.0800  -25.3240 O.co2     1 ADP301      0.0000 
      5 PA        -70.6870   45.5250  -27.4320 P.3       1 ADP301      0.0000 
      6 O1A       -69.2420   45.8850  -27.1910 O.co2     1 ADP301      0.0000 
      7 O2A       -71.7800   46.1620  -26.6160 O.co2     1 ADP301      0.0000 
      8 O3A       -70.8590   43.9100  -27.4540 O.3       1 ADP301      0.0000 
      9 O5'       -71.0060   45.7880  -28.9920 O.3       1 ADP301      0.0000 
     10 C5'       -70.0330   45.5640  -30.0130 C.3       1 ADP301      0.0000 
     11 C4'       -70.7160   45.5890  -31.3790 C.3       1 ADP301      0.0000 
     12 O4'       -71.1140   46.9230  -31.7230 O.3       1 ADP301      0.0000 
     13 C3'       -69.8250   45.1380  -32.5190 C.3       1 ADP301      0.0000 
     14 O3'       -69.8660   43.7210  -32.6910 O.3       1 ADP301      0.0000 
     15 C2'       -70.4070   45.8710  -33.7170 C.3       1 ADP301      0.0000 
     16 O2'       -71.4760   45.0910  -34.2690 O.3       1 ADP301      0.0000 
     17 C1'       -71.0110   47.1380  -33.1310 C.3       1 ADP301      0.0000 
     18 N9        -70.1480   48.3340  -33.3370 N.pl3     1 ADP301      0.0000 
     19 C8        -68.8680   48.4540  -32.9280 C.2       1 ADP301      0.0000 
     20 N7        -68.3590   49.6710  -33.2460 N.2       1 ADP301      0.0000 
     21 C5        -69.3270   50.3650  -33.8740 C.ar      1 ADP301      0.0000 
     22 C6        -69.4560   51.7140  -34.4740 C.ar      1 ADP301      0.0000 
     23 N6        -68.4180   52.5830  -34.4660 N.pl3     1 ADP301      0.0000 
     24 N1        -70.6400   52.0450  -35.0360 N.ar      1 ADP301      0.0000 
     25 C2        -71.6810   51.1910  -35.0450 C.ar      1 ADP301      0.0000 
     26 N3        -71.6320   49.9550  -34.5130 N.ar      1 ADP301      0.0000 
     27 C4        -70.5040   49.4820  -33.9320 C.ar      1 ADP301      0.0000 
@<TRIPOS>BOND
     1    1    2 ar   
     2    1    3 ar   
     3    1    4 ar   
     4    1    8 1    
     5    5    6 ar   
     6    5    7 ar   
     7    5    8 1    
     8    5    9 1    
     9    9   10 1    
    10   10   11 1    
    11   11   12 1    
    12   11   13 1    
    13   12   17 1    
    14   13   14 1    
    15   13   15 1    
    16   15   16 1    
    17   15   17 1    
    18   17   18 1    
    19   18   19 1    
    20   18   27 1    
    21   19   20 2    
    22   20   21 1    
    23   21   22 ar   
    24   21   27 ar   
    25   22   23 1    
    26   22   24 ar   
    27   24   25 ar   
    28   25   26 ar   
    29   26   27 ar   
@<TRIPOS>SUBSTRUCTURE
     1 ADP301      1 GROUP   
@<TRIPOS>SET
ATOM$ORANGE STATIC     ATOMS   COLORGROUP SYSTEM 
20 10 10 11 11 13 13 15 15 17 17 19 19 21 21 22 22 25 \
25 27 27 

