#    Name: 6ep2_11_ADP
#    Modification time : Fri May 22 19:31:26 2020

@<TRIPOS>MOLECULE
6ep2_11_ADP
   27    29     1     0     1
SMALL
NO_CHARGES


@<TRIPOS>ATOM
      1 PB        -56.4930   84.1300  -32.5830 P.3       1 ADP301      0.0000 
      2 O1B       -56.3320   85.4290  -33.3420 O.co2     1 ADP301      0.0000 
      3 O2B       -57.8700   83.8940  -32.0310 O.co2     1 ADP301      0.0000 
      4 O3B       -55.3910   83.8760  -31.5830 O.co2     1 ADP301      0.0000 
      5 PA        -56.4830   81.4260  -33.6100 P.3       1 ADP301      0.0000 
      6 O1A       -55.1580   80.7630  -33.9070 O.co2     1 ADP301      0.0000 
      7 O2A       -57.2580   81.1000  -32.3560 O.co2     1 ADP301      0.0000 
      8 O3A       -56.3220   83.0300  -33.7540 O.3       1 ADP301      0.0000 
      9 O5'       -57.4620   81.1780  -34.8640 O.3       1 ADP301      0.0000 
     10 C5'       -58.8360   81.5580  -34.8100 C.3       1 ADP301      0.0000 
     11 C4'       -59.3540   81.5270  -36.2390 C.3       1 ADP301      0.0000 
     12 O4'       -59.3190   80.1850  -36.7350 O.3       1 ADP301      0.0000 
     13 C3'       -60.7950   81.9810  -36.3800 C.3       1 ADP301      0.0000 
     14 O3'       -60.8710   83.3940  -36.5780 O.3       1 ADP301      0.0000 
     15 C2'       -61.2800   81.2130  -37.5950 C.3       1 ADP301      0.0000 
     16 O2'       -61.0120   81.9680  -38.7770 O.3       1 ADP301      0.0000 
     17 C1'       -60.4050   79.9740  -37.6340 C.3       1 ADP301      0.0000 
     18 N9        -61.1600   78.7940  -37.1560 N.pl3     1 ADP301      0.0000 
     19 C8        -61.7590   78.6820  -35.9550 C.2       1 ADP301      0.0000 
     20 N7        -62.3610   77.4720  -35.8270 N.2       1 ADP301      0.0000 
     21 C5        -62.1480   76.7910  -36.9660 C.ar      1 ADP301      0.0000 
     22 C6        -62.5080   75.4580  -37.4880 C.ar      1 ADP301      0.0000 
     23 N6        -63.2350   74.6000  -36.7350 N.pl3     1 ADP301      0.0000 
     24 N1        -62.0840   75.1300  -38.7300 N.ar      1 ADP301      0.0000 
     25 C2        -61.3600   75.9860  -39.4790 C.ar      1 ADP301      0.0000 
     26 N3        -60.9980   77.2160  -39.0710 N.ar      1 ADP301      0.0000 
     27 C4        -61.3540   77.6640  -37.8430 C.ar      1 ADP301      0.0000 
@<TRIPOS>BOND
     1    1    2 ar   
     2    1    3 ar   
     3    1    4 ar   
     4    1    8 1    
     5    5    6 ar   
     6    5    7 ar   
     7    5    8 1    
     8    5    9 1    
     9    9   10 1    
    10   10   11 1    
    11   11   12 1    
    12   11   13 1    
    13   12   17 1    
    14   13   14 1    
    15   13   15 1    
    16   15   16 1    
    17   15   17 1    
    18   17   18 1    
    19   18   19 1    
    20   18   27 1    
    21   19   20 2    
    22   20   21 1    
    23   21   22 ar   
    24   21   27 ar   
    25   22   23 1    
    26   22   24 ar   
    27   24   25 ar   
    28   25   26 ar   
    29   26   27 ar   
@<TRIPOS>SUBSTRUCTURE
     1 ADP301      1 GROUP   
@<TRIPOS>SET
ATOM$ORANGE STATIC     ATOMS   COLORGROUP SYSTEM 
20 10 10 11 11 13 13 15 15 17 17 19 19 21 21 22 22 25 \
25 27 27 

