#    Name: 6ep2_10_ADP
#    Modification time : Fri May 22 19:31:19 2020

@<TRIPOS>MOLECULE
6ep2_10_ADP
   27    29     1     0     1
SMALL
NO_CHARGES


@<TRIPOS>ATOM
      1 PB        -68.0510   64.1460  -63.7450 P.3       1 ADP301      0.0000 
      2 O1B       -67.8040   63.0000  -64.7050 O.co2     1 ADP301      0.0000 
      3 O2B       -67.8920   65.5290  -64.3270 O.co2     1 ADP301      0.0000 
      4 O3B       -69.3060   64.0140  -62.9250 O.co2     1 ADP301      0.0000 
      5 PA        -66.7480   64.7310  -61.2460 P.3       1 ADP301      0.0000 
      6 O1A       -65.4350   65.4660  -61.1930 O.co2     1 ADP301      0.0000 
      7 O2A       -68.0500   65.4480  -60.9750 O.co2     1 ADP301      0.0000 
      8 O3A       -66.8130   64.0320  -62.7070 O.3       1 ADP301      0.0000 
      9 O5'       -66.6460   63.4710  -60.2370 O.3       1 ADP301      0.0000 
     10 C5'       -67.7140   62.5320  -60.1050 C.3       1 ADP301      0.0000 
     11 C4'       -67.2130   61.2800  -59.3850 C.3       1 ADP301      0.0000 
     12 O4'       -66.5940   61.6090  -58.1390 O.3       1 ADP301      0.0000 
     13 C3'       -68.3260   60.3130  -59.0190 C.3       1 ADP301      0.0000 
     14 O3'       -68.6180   59.4130  -60.0870 O.3       1 ADP301      0.0000 
     15 C2'       -67.7700   59.5740  -57.8220 C.3       1 ADP301      0.0000 
     16 O2'       -67.0120   58.4550  -58.2830 O.3       1 ADP301      0.0000 
     17 C1'       -66.8050   60.5540  -57.1940 C.3       1 ADP301      0.0000 
     18 N9        -67.4200   61.1100  -55.9670 N.pl3     1 ADP301      0.0000 
     19 C8        -68.5990   61.7660  -55.9070 C.2       1 ADP301      0.0000 
     20 N7        -68.8790   62.1490  -54.6370 N.2       1 ADP301      0.0000 
     21 C5        -67.8610   61.7300  -53.8620 C.ar      1 ADP301      0.0000 
     22 C6        -67.5280   61.8000  -52.4220 C.ar      1 ADP301      0.0000 
     23 N6        -68.3630   62.4150  -51.5540 N.pl3     1 ADP301      0.0000 
     24 N1        -66.3630   61.2370  -52.0200 N.ar      1 ADP301      0.0000 
     25 C2        -65.5290   60.6260  -52.8840 C.ar      1 ADP301      0.0000 
     26 N3        -65.7730   60.5170  -54.2050 N.ar      1 ADP301      0.0000 
     27 C4        -66.9030   61.0410  -54.7410 C.ar      1 ADP301      0.0000 
@<TRIPOS>BOND
     1    1    2 ar   
     2    1    3 ar   
     3    1    4 ar   
     4    1    8 1    
     5    5    6 ar   
     6    5    7 ar   
     7    5    8 1    
     8    5    9 1    
     9    9   10 1    
    10   10   11 1    
    11   11   12 1    
    12   11   13 1    
    13   12   17 1    
    14   13   14 1    
    15   13   15 1    
    16   15   16 1    
    17   15   17 1    
    18   17   18 1    
    19   18   19 1    
    20   18   27 1    
    21   19   20 2    
    22   20   21 1    
    23   21   22 ar   
    24   21   27 ar   
    25   22   23 1    
    26   22   24 ar   
    27   24   25 ar   
    28   25   26 ar   
    29   26   27 ar   
@<TRIPOS>SUBSTRUCTURE
     1 ADP301      1 GROUP   
@<TRIPOS>SET
ATOM$ORANGE STATIC     ATOMS   COLORGROUP SYSTEM 
20 10 10 11 11 13 13 15 15 17 17 19 19 21 21 22 22 25 \
25 27 27 

