#    Name: 6ep2_1_ADP
#    Modification time : Fri May 22 19:30:28 2020

@<TRIPOS>MOLECULE
6ep2_1_ADP
   27    29     1     0     1
SMALL
NO_CHARGES


@<TRIPOS>ATOM
      1 PB        -63.6160   11.1730 -102.5130 P.3       1 ADP301      0.0000 
      2 O1B       -63.7800   10.4400 -103.8280 O.co2     1 ADP301      0.0000 
      3 O2B       -62.8260   12.4560 -102.6050 O.co2     1 ADP301      0.0000 
      4 O3B       -64.8970   11.3680 -101.7800 O.co2     1 ADP301      0.0000 
      5 PA        -62.2770   10.1720 -100.1080 P.3       1 ADP301      0.0000 
      6 O1A       -60.7810   10.2950 -100.0090 O.co2     1 ADP301      0.0000 
      7 O2A       -63.1830   11.1070  -99.3480 O.co2     1 ADP301      0.0000 
      8 O3A       -62.6640   10.1540 -101.6810 O.3       1 ADP301      0.0000 
      9 O5'       -62.6370    8.6650  -99.6660 O.3       1 ADP301      0.0000 
     10 C5'       -63.9820    8.2080  -99.6910 C.3       1 ADP301      0.0000 
     11 C4'       -64.0340    6.6990  -99.5210 C.3       1 ADP301      0.0000 
     12 O4'       -63.4270    6.2540  -98.3000 O.3       1 ADP301      0.0000 
     13 C3'       -65.4650    6.1930  -99.4400 C.3       1 ADP301      0.0000 
     14 O3'       -66.0210    6.0230 -100.7420 O.3       1 ADP301      0.0000 
     15 C2'       -65.3110    4.8720  -98.7180 C.3       1 ADP301      0.0000 
     16 O2'       -64.9830    3.8800  -99.7020 O.3       1 ADP301      0.0000 
     17 C1'       -64.0850    5.0800  -97.8370 C.3       1 ADP301      0.0000 
     18 N9        -64.4320    5.2830  -96.4100 N.pl3     1 ADP301      0.0000 
     19 C8        -65.2360    6.2430  -95.9100 C.2       1 ADP301      0.0000 
     20 N7        -65.3300    6.1520  -94.5550 N.2       1 ADP301      0.0000 
     21 C5        -64.5670    5.1140  -94.1690 C.ar      1 ADP301      0.0000 
     22 C6        -64.2120    4.4700  -92.8880 C.ar      1 ADP301      0.0000 
     23 N6        -64.7160    4.9270  -91.7210 N.pl3     1 ADP301      0.0000 
     24 N1        -63.3840    3.4060  -92.9250 N.ar      1 ADP301      0.0000 
     25 C2        -62.8810    2.9380  -94.0870 C.ar      1 ADP301      0.0000 
     26 N3        -63.1540    3.4820  -95.2830 N.ar      1 ADP301      0.0000 
     27 C4        -63.9780    4.5450  -95.3900 C.ar      1 ADP301      0.0000 
@<TRIPOS>BOND
     1    1    2 ar   
     2    1    3 ar   
     3    1    4 ar   
     4    1    8 1    
     5    5    6 ar   
     6    5    7 ar   
     7    5    8 1    
     8    5    9 1    
     9    9   10 1    
    10   10   11 1    
    11   11   12 1    
    12   11   13 1    
    13   12   17 1    
    14   13   14 1    
    15   13   15 1    
    16   15   16 1    
    17   15   17 1    
    18   17   18 1    
    19   18   19 1    
    20   18   27 1    
    21   19   20 2    
    22   20   21 1    
    23   21   22 ar   
    24   21   27 ar   
    25   22   23 1    
    26   22   24 ar   
    27   24   25 ar   
    28   25   26 ar   
    29   26   27 ar   
@<TRIPOS>SUBSTRUCTURE
     1 ADP301      1 GROUP   
@<TRIPOS>SET
ATOM$ORANGE STATIC     ATOMS   COLORGROUP SYSTEM 
20 10 10 11 11 13 13 15 15 17 17 19 19 21 21 22 22 25 \
25 27 27 

