#    Name: 6ep2_2_ADP
#    Modification time : Fri May 22 19:30:35 2020

@<TRIPOS>MOLECULE
6ep2_2_ADP
   27    29     1     0     1
SMALL
NO_CHARGES


@<TRIPOS>ATOM
      1 PB        -61.3520   11.8660  -58.6770 P.3       1 ADP301      0.0000 
      2 O1B       -60.0730   11.6760  -59.4200 O.co2     1 ADP301      0.0000 
      3 O2B       -61.3380   11.2130  -57.2990 O.co2     1 ADP301      0.0000 
      4 O3B       -61.8050   13.3020  -58.6800 O.co2     1 ADP301      0.0000 
      5 PA        -62.9090   11.1440  -61.0390 P.3       1 ADP301      0.0000 
      6 O1A       -61.8140   11.8420  -61.8050 O.co2     1 ADP301      0.0000 
      7 O2A       -64.3420   11.5990  -61.1190 O.co2     1 ADP301      0.0000 
      8 O3A       -62.4940   11.0300  -59.4590 O.3       1 ADP301      0.0000 
      9 O5'       -62.8490    9.5670  -61.3740 O.3       1 ADP301      0.0000 
     10 C5'       -61.5960    8.9130  -61.5840 C.3       1 ADP301      0.0000 
     11 C4'       -61.8860    7.4200  -61.5850 C.3       1 ADP301      0.0000 
     12 O4'       -62.6200    7.0680  -62.7630 O.3       1 ADP301      0.0000 
     13 C3'       -60.6580    6.5390  -61.6330 C.3       1 ADP301      0.0000 
     14 O3'       -60.1500    6.2770  -60.3260 O.3       1 ADP301      0.0000 
     15 C2'       -61.1700    5.2690  -62.2790 C.3       1 ADP301      0.0000 
     16 O2'       -61.7340    4.4350  -61.2550 O.3       1 ADP301      0.0000 
     17 C1'       -62.3120    5.7340  -63.1490 C.3       1 ADP301      0.0000 
     18 N9        -61.9450    5.8150  -64.5750 N.pl3     1 ADP301      0.0000 
     19 C8        -60.9880    6.6140  -65.0950 C.2       1 ADP301      0.0000 
     20 N7        -60.9200    6.4680  -66.4410 N.2       1 ADP301      0.0000 
     21 C5        -61.8540    5.5600  -66.7950 C.ar      1 ADP301      0.0000 
     22 C6        -62.3090    4.9480  -68.0630 C.ar      1 ADP301      0.0000 
     23 N6        -61.7280    5.2930  -69.2370 N.pl3     1 ADP301      0.0000 
     24 N1        -63.3050    4.0400  -68.0000 N.ar      1 ADP301      0.0000 
     25 C2        -63.8860    3.7020  -66.8320 C.ar      1 ADP301      0.0000 
     26 N3        -63.5230    4.2150  -65.6360 N.ar      1 ADP301      0.0000 
     27 C4        -62.5310    5.1350  -65.5630 C.ar      1 ADP301      0.0000 
@<TRIPOS>BOND
     1    1    2 ar   
     2    1    3 ar   
     3    1    4 ar   
     4    1    8 1    
     5    5    6 ar   
     6    5    7 ar   
     7    5    8 1    
     8    5    9 1    
     9    9   10 1    
    10   10   11 1    
    11   11   12 1    
    12   11   13 1    
    13   12   17 1    
    14   13   14 1    
    15   13   15 1    
    16   15   16 1    
    17   15   17 1    
    18   17   18 1    
    19   18   19 1    
    20   18   27 1    
    21   19   20 2    
    22   20   21 1    
    23   21   22 ar   
    24   21   27 ar   
    25   22   23 1    
    26   22   24 ar   
    27   24   25 ar   
    28   25   26 ar   
    29   26   27 ar   
@<TRIPOS>SUBSTRUCTURE
     1 ADP301      1 GROUP   
@<TRIPOS>SET
ATOM$ORANGE STATIC     ATOMS   COLORGROUP SYSTEM 
20 10 10 11 11 13 13 15 15 17 17 19 19 21 21 22 22 25 \
25 27 27 

