#    Name: 6ep2_12_ADP_CAVITY_N1_4
#    Modification time : Fri May 22 19:31:34 2020

@<TRIPOS>MOLECULE
6ep2_12_ADP_CAVITY_N1_4
   53     0     6     0     0
SMALL
NO_CHARGES


@<TRIPOS>ATOM
      1 OG        -75.6900  -14.9100  -81.2400 O.3       1 SER1        0.0000 
      2 N         -70.2900  -13.7100  -82.1900 N.am      2 ALA2        0.0000 
      3 N         -71.6900  -13.2600  -82.4800 N.am      2 ALA2        0.0000 
      4 N         -74.0300  -14.0800  -80.2200 N.am      2 ALA2        0.0000 
      5 N         -75.4300  -13.6300  -80.5000 N.am      2 ALA2        0.0000 
      6 N         -75.9000  -14.2700  -79.2300 N.am      2 ALA2        0.0000 
      7 N         -73.7700  -12.8000  -79.4800 N.am      2 ALA2        0.0000 
      8 N         -72.5700  -10.2500  -81.3000 N.am      2 ALA2        0.0000 
      9 O         -73.0400  -10.8800  -80.0200 O.2       2 ALA2        0.0000 
     10 N         -72.3100   -8.9600  -80.5600 N.am      2 ALA2        0.0000 
     11 NZ        -74.7500  -16.0000  -79.6700 N.4       3 LYS4        0.0000 
     12 NZ        -68.8900  -14.1600  -81.9000 N.4       3 LYS4        0.0000 
     13 NZ        -69.1000  -13.5100  -79.8900 N.4       3 LYS4        0.0000 
     14 CZ        -74.2900  -15.3600  -80.9500 C.ar      4 PHE5        0.0000 
     15 CZ        -74.4900  -14.7200  -78.9400 C.ar      4 PHE5        0.0000 
     16 CZ        -74.2300  -13.4400  -78.2100 C.ar      4 PHE5        0.0000 
     17 CZ        -73.5100  -11.5200  -78.7500 C.ar      4 PHE5        0.0000 
     18 CZ        -71.3800  -10.0500  -79.0000 C.ar      4 PHE5        0.0000 
     19 CZ        -72.7800   -9.6000  -79.2900 C.ar      4 PHE5        0.0000 
     20 CA        -72.4200  -15.1800  -81.9400 C.3       5 GLY6        0.0000 
     21 CA        -73.8200  -14.7300  -82.2300 C.3       5 GLY6        0.0000 
     22 CA        -70.0800  -16.7100  -80.0800 C.3       5 GLY6        0.0000 
     23 CA        -71.4800  -16.2600  -80.3700 C.3       5 GLY6        0.0000 
     24 CA        -72.8900  -15.8100  -80.6600 C.3       5 GLY6        0.0000 
     25 CA        -76.1600  -15.5500  -79.9600 C.3       5 GLY6        0.0000 
     26 CA        -69.3600  -14.8000  -80.6200 C.3       5 GLY6        0.0000 
     27 CA        -70.7600  -14.3500  -80.9100 C.3       5 GLY6        0.0000 
     28 CA        -72.1600  -13.9000  -81.2000 C.3       5 GLY6        0.0000 
     29 CA        -73.5600  -13.4500  -81.4900 C.3       5 GLY6        0.0000 
     30 CA        -74.9600  -13.0000  -81.7800 C.3       5 GLY6        0.0000 
     31 CA        -71.2200  -14.9800  -79.6400 C.3       5 GLY6        0.0000 
     32 CA        -73.0900  -15.1700  -78.6500 C.3       5 GLY6        0.0000 
     33 CA        -70.0300  -12.4300  -81.4500 C.3       5 GLY6        0.0000 
     34 CA        -71.4300  -11.9800  -81.7400 C.3       5 GLY6        0.0000 
     35 CA        -72.8300  -11.5300  -82.0300 C.3       5 GLY6        0.0000 
     36 CA        -70.5000  -13.0600  -80.1800 C.3       5 GLY6        0.0000 
     37 CA        -73.3000  -12.1600  -80.7600 C.3       5 GLY6        0.0000 
     38 CA        -69.5600  -14.1500  -78.6100 C.3       5 GLY6        0.0000 
     39 CA        -70.9600  -13.7000  -78.9000 C.3       5 GLY6        0.0000 
     40 CA        -72.3700  -13.2500  -79.1900 C.3       5 GLY6        0.0000 
     41 CA        -71.1700  -10.7000  -81.0100 C.3       5 GLY6        0.0000 
     42 CA        -70.2400  -11.7800  -79.4400 C.3       5 GLY6        0.0000 
     43 CA        -67.9000  -13.3200  -77.5900 C.3       5 GLY6        0.0000 
     44 CA        -72.1100  -11.9700  -78.4600 C.3       5 GLY6        0.0000 
     45 CA        -69.5100   -9.8600  -79.9800 C.3       5 GLY6        0.0000 
     46 CA        -70.9100   -9.4100  -80.2700 C.3       5 GLY6        0.0000 
     47 CA        -69.9800  -10.5000  -78.7100 C.3       5 GLY6        0.0000 
     48 DU        -67.9500  -15.2500  -80.3300 H         6 CUB7        0.0000 
     49 DU        -69.8200  -15.4300  -79.3500 H         6 CUB7        0.0000 
     50 DU        -72.6300  -14.5300  -79.9300 H         6 CUB7        0.0000 
     51 DU        -71.9000  -12.6100  -80.4700 H         6 CUB7        0.0000 
     52 DU        -68.1600  -14.6000  -78.3200 H         6 CUB7        0.0000 
     53 DU        -71.6400  -11.3300  -79.7300 H         6 CUB7        0.0000 
@<TRIPOS>BOND
@<TRIPOS>SUBSTRUCTURE
     1 SER1        1 GROUP   
     2 ALA2        2 GROUP   
     3 LYS4       11 GROUP   
     4 PHE5       14 GROUP   
     5 GLY6       20 GROUP   
     6 CUB7       48 GROUP   
@<TRIPOS>SET

