#    Name: 6gj2_1_IHS
#    Modification time : Fri May 22 19:32:08 2020

@<TRIPOS>MOLECULE
6gj2_1_IHS
   42    42     1     0     0
SMALL
NO_CHARGES


@<TRIPOS>ATOM
      1 C1        -30.5960   29.1930   12.7650 C.3       1 IHS625      0.0000 
      2 O1        -29.4790   29.7630   13.4140 O.3       1 IHS625      0.0000 
      3 S1        -28.3740   28.7440   14.1220 S.o2      1 IHS625      0.0000 
      4 C2        -31.8630   29.9840   13.1480 C.3       1 IHS625      0.0000 
      5 O2        -27.8990   27.7260   13.1160 O.co2     1 IHS625      0.0000 
      6 S2        -33.5410   29.6850   15.1050 S.o2      1 IHS625      0.0000 
      7 C3        -31.7980   31.4130   12.5850 C.3       1 IHS625      0.0000 
      8 O3        -27.2100   29.5080   14.7090 O.co2     1 IHS625      0.0000 
      9 S3        -30.8530   33.7290   13.3110 S.o2      1 IHS625      0.0000 
     10 C4        -31.6500   31.3590   11.0610 C.3       1 IHS625      0.0000 
     11 O4        -28.9250   28.0830   15.3630 O.co2     1 IHS625      0.0000 
     12 S4        -33.6870   31.3370    9.4020 S.o2      1 IHS625      0.0000 
     13 C5        -30.3820   30.6040   10.6220 C.3       1 IHS625      0.0000 
     14 S5        -28.0300   31.4330    9.8410 S.o2      1 IHS625      0.0000 
     15 C6        -30.3840   29.1920   11.2370 C.3       1 IHS625      0.0000 
     16 S6        -31.4390   26.8880   10.3960 S.o2      1 IHS625      0.0000 
     17 O12       -32.0230   30.0380   14.5440 O.3       1 IHS625      0.0000 
     18 O13       -30.7030   32.0910   13.1470 O.3       1 IHS625      0.0000 
     19 O14       -32.7640   30.6480   10.5840 O.3       1 IHS625      0.0000 
     20 O15       -29.2200   31.3090   10.9920 O.3       1 IHS625      0.0000 
     21 O16       -31.4570   28.5280   10.6120 O.3       1 IHS625      0.0000 
     22 O22       -34.5650   30.6700   14.5910 O.co2     1 IHS625      0.0000 
     23 O23       -31.8980   34.0890   14.3390 O.co2     1 IHS625      0.0000 
     24 O24       -34.1240   32.7310    9.7840 O.co2     1 IHS625      0.0000 
     25 O25       -28.5100   32.1790    8.6190 O.co2     1 IHS625      0.0000 
     26 O26       -32.3140   26.5110    9.2230 O.co2     1 IHS625      0.0000 
     27 O32       -33.9180   28.2670   14.7450 O.co2     1 IHS625      0.0000 
     28 O33       -31.1500   34.3630   11.9740 O.co2     1 IHS625      0.0000 
     29 O34       -35.0160   30.6290    9.2900 O.co2     1 IHS625      0.0000 
     30 O35       -26.9090   32.3330   10.3070 O.co2     1 IHS625      0.0000 
     31 O36       -30.0990   26.3790    9.9230 O.co2     1 IHS625      0.0000 
     32 O42       -33.6510   29.9130   16.5940 O.co2     1 IHS625      0.0000 
     33 O43       -29.6140   34.3240   13.9360 O.co2     1 IHS625      0.0000 
     34 O44       -32.9450   31.3210    8.0870 O.co2     1 IHS625      0.0000 
     35 O45       -27.5030   30.0670    9.4700 O.co2     1 IHS625      0.0000 
     36 O46       -31.8960   26.1960   11.6580 O.co2     1 IHS625      0.0000 
     37 H1        -30.7010   28.2760   13.0640 H         1 IHS625      0.0000 
     38 H2        -32.6320   29.5370   12.7610 H         1 IHS625      0.0000 
     39 H3        -32.6180   31.8810   12.8080 H         1 IHS625      0.0000 
     40 H4        -31.6440   32.2580   10.6970 H         1 IHS625      0.0000 
     41 H5        -30.3980   30.5160    9.6560 H         1 IHS625      0.0000 
     42 H6        -29.5500   28.7450   11.0240 H         1 IHS625      0.0000 
@<TRIPOS>BOND
     1    1    2 1    
     2    1    4 1    
     3    1   15 1    
     4    1   37 1    
     5    2    3 1    
     6    3    5 ar   
     7    3    8 ar   
     8    3   11 ar   
     9    4    7 1    
    10    4   17 1    
    11    4   38 1    
    12    6   17 1    
    13    6   22 ar   
    14    6   27 ar   
    15    6   32 ar   
    16    7   10 1    
    17    7   18 1    
    18    7   39 1    
    19    9   18 1    
    20    9   23 ar   
    21    9   28 ar   
    22    9   33 ar   
    23   10   13 1    
    24   10   19 1    
    25   10   40 1    
    26   12   19 1    
    27   12   24 ar   
    28   12   29 ar   
    29   12   34 ar   
    30   13   15 1    
    31   13   20 1    
    32   13   41 1    
    33   14   20 1    
    34   14   25 ar   
    35   14   30 ar   
    36   14   35 ar   
    37   15   21 1    
    38   15   42 1    
    39   16   21 1    
    40   16   26 ar   
    41   16   31 ar   
    42   16   36 ar   
@<TRIPOS>SUBSTRUCTURE
     1 IHS625      1 GROUP   
@<TRIPOS>SET

