#    Name: 6gj2_1_IHS_CAVITY_N1_4
#    Modification time : Fri May 22 19:32:09 2020

@<TRIPOS>MOLECULE
6gj2_1_IHS_CAVITY_N1_4
   93     0     6     0     0
SMALL
NO_CHARGES


@<TRIPOS>ATOM
      1 OG        -35.3100   24.6300   12.8700 O.3       1 SER1        0.0000 
      2 OG        -36.6800   28.8900   12.4100 O.3       1 SER1        0.0000 
      3 OG        -32.3500   26.7100   13.5500 O.3       1 SER1        0.0000 
      4 OG        -35.9900   29.7500   13.4300 O.3       1 SER1        0.0000 
      5 OG        -34.6900   29.0800   13.1200 O.3       1 SER1        0.0000 
      6 OG        -31.6700   27.5700   14.5800 O.3       1 SER1        0.0000 
      7 OG        -35.3100   30.6100   14.4500 O.3       1 SER1        0.0000 
      8 OG        -34.0100   29.9400   14.1400 O.3       1 SER1        0.0000 
      9 OG        -28.4400   30.6800   14.2100 O.3       1 SER1        0.0000 
     10 OG        -27.1400   30.0100   13.9000 O.3       1 SER1        0.0000 
     11 OG        -28.1600   31.7100   13.1600 O.3       1 SER1        0.0000 
     12 OG        -26.4500   30.8700   14.9300 O.3       1 SER1        0.0000 
     13 OG        -26.1700   31.9000   13.8700 O.3       1 SER1        0.0000 
     14 N         -36.9600   27.8600   13.4600 N.am      2 ALA2        0.0000 
     15 O         -31.7300   25.1800   12.2200 O.2       2 ALA2        0.0000 
     16 O         -30.1500   25.5500   10.8600 O.2       2 ALA2        0.0000 
     17 N         -36.2700   28.7200   14.4800 N.am      2 ALA2        0.0000 
     18 O         -30.7700   27.0700   12.1900 O.2       2 ALA2        0.0000 
     19 O         -29.1800   27.4400   10.8300 O.2       2 ALA2        0.0000 
     20 O         -27.3200   28.8300    8.4200 O.2       2 ALA2        0.0000 
     21 N         -35.5900   29.5800   15.5100 N.am      2 ALA2        0.0000 
     22 O         -30.0900   27.9300   13.2200 O.2       2 ALA2        0.0000 
     23 O         -28.5000   28.3000   11.8500 O.2       2 ALA2        0.0000 
     24 O         -26.6400   29.6900    9.4400 O.2       2 ALA2        0.0000 
     25 O         -26.3600   30.7200    8.3900 O.2       2 ALA2        0.0000 
     26 O         -33.6000   29.7700   16.2200 O.2       2 ALA2        0.0000 
     27 O         -33.3200   30.8000   15.1700 O.2       2 ALA2        0.0000 
     28 N         -28.1000   28.1200   13.9300 N.am      2 ALA2        0.0000 
     29 O         -27.4200   28.9800   14.9500 O.2       2 ALA2        0.0000 
     30 NZ        -30.5500   25.7200    8.7800 N.4       3 LYS4        0.0000 
     31 NZ        -37.2400   26.8300   14.5100 N.4       3 LYS4        0.0000 
     32 NZ        -35.9300   26.1600   14.2000 N.4       3 LYS4        0.0000 
     33 NZ        -34.6200   25.4900   13.8900 N.4       3 LYS4        0.0000 
     34 NZ        -33.3200   24.8200   13.5800 N.4       3 LYS4        0.0000 
     35 NZ        -34.3400   26.5200   12.8400 N.4       3 LYS4        0.0000 
     36 NZ        -29.8700   26.5800    9.8100 N.4       3 LYS4        0.0000 
     37 NZ        -29.5900   27.6100    8.7600 N.4       3 LYS4        0.0000 
     38 NZ        -36.5500   27.6900   15.5300 N.4       3 LYS4        0.0000 
     39 NZ        -34.9700   28.0500   14.1700 N.4       3 LYS4        0.0000 
     40 NZ        -33.6600   27.3800   13.8600 N.4       3 LYS4        0.0000 
     41 NZ        -27.6000   27.8000    9.4700 N.4       3 LYS4        0.0000 
     42 NZ        -26.2900   27.1300    9.1600 N.4       3 LYS4        0.0000 
     43 NZ        -34.2800   28.9100   15.2000 N.4       3 LYS4        0.0000 
     44 NZ        -32.9800   28.2400   14.8900 N.4       3 LYS4        0.0000 
     45 CZ        -35.4300   25.8400    9.7400 C.ar      4 PHE5        0.0000 
     46 CZ        -35.0300   25.6600   11.8200 C.ar      4 PHE5        0.0000 
     47 CZ        -31.8500   26.3900    9.0900 C.ar      4 PHE5        0.0000 
     48 CZ        -33.0400   25.8500   12.5300 C.ar      4 PHE5        0.0000 
     49 CZ        -32.7600   26.8800   11.4800 C.ar      4 PHE5        0.0000 
     50 CZ        -31.4500   26.2200   11.1700 C.ar      4 PHE5        0.0000 
     51 CZ        -32.3000   29.1000   15.9100 C.ar      4 PHE5        0.0000 
     52 CZ        -30.9900   28.4300   15.6000 C.ar      4 PHE5        0.0000 
     53 CZ        -29.6800   27.7600   15.2900 C.ar      4 PHE5        0.0000 
     54 CZ        -32.0200   30.1300   14.8600 C.ar      4 PHE5        0.0000 
     55 CZ        -30.7100   29.4600   14.5500 C.ar      4 PHE5        0.0000 
     56 CZ        -29.4000   28.7900   14.2400 C.ar      4 PHE5        0.0000 
     57 CZ        -31.7400   31.1600   13.8100 C.ar      4 PHE5        0.0000 
     58 CZ        -30.4300   30.4900   13.5000 C.ar      4 PHE5        0.0000 
     59 CZ        -29.1200   29.8200   13.1900 C.ar      4 PHE5        0.0000 
     60 CZ        -28.7200   29.6500   15.2600 C.ar      4 PHE5        0.0000 
     61 CA        -27.8800   26.7700   10.5200 C.3       5 GLY6        0.0000 
     62 CA        -33.7300   30.9700   13.0900 C.3       5 GLY6        0.0000 
     63 CA        -32.4200   30.3000   12.7800 C.3       5 GLY6        0.0000 
     64 CA        -27.1900   27.6300   11.5400 C.3       5 GLY6        0.0000 
     65 CA        -25.8900   26.9600   11.2300 C.3       5 GLY6        0.0000 
     66 CA        -26.9200   28.6600   10.4900 C.3       5 GLY6        0.0000 
     67 CA        -25.6100   27.9900   10.1800 C.3       5 GLY6        0.0000 
     68 CA        -26.5100   28.4800   12.5700 C.3       5 GLY6        0.0000 
     69 CA        -26.2300   29.5200   11.5200 C.3       5 GLY6        0.0000 
     70 CA        -24.9300   28.8500   11.2100 C.3       5 GLY6        0.0000 
     71 CA        -25.9500   30.5500   10.4600 C.3       5 GLY6        0.0000 
     72 CA        -25.8300   29.3400   13.5900 C.3       5 GLY6        0.0000 
     73 CA        -25.5500   30.3700   12.5400 C.3       5 GLY6        0.0000 
     74 DU        -36.0500   27.3600   11.0700 H         6 CUB7        0.0000 
     75 DU        -35.6500   27.1900   13.1500 H         6 CUB7        0.0000 
     76 DU        -35.3700   28.2200   12.1000 H         6 CUB7        0.0000 
     77 DU        -34.0600   27.5500   11.7900 H         6 CUB7        0.0000 
     78 DU        -31.1700   27.2500   10.1200 H         6 CUB7        0.0000 
     79 DU        -33.3800   28.4100   12.8100 H         6 CUB7        0.0000 
     80 DU        -32.0800   27.7400   12.5000 H         6 CUB7        0.0000 
     81 DU        -31.8000   28.7800   11.4500 H         6 CUB7        0.0000 
     82 DU        -30.4900   28.1100   11.1400 H         6 CUB7        0.0000 
     83 DU        -28.9000   28.4700    9.7800 H         6 CUB7        0.0000 
     84 DU        -32.7000   29.2700   13.8400 H         6 CUB7        0.0000 
     85 DU        -31.3900   28.6000   13.5300 H         6 CUB7        0.0000 
     86 DU        -31.1100   29.6300   12.4700 H         6 CUB7        0.0000 
     87 DU        -29.8100   28.9600   12.1600 H         6 CUB7        0.0000 
     88 DU        -27.8200   29.1500   12.8800 H         6 CUB7        0.0000 
     89 DU        -28.8500   30.8500   12.1400 H         6 CUB7        0.0000 
     90 DU        -27.5400   30.1900   11.8300 H         6 CUB7        0.0000 
     91 DU        -26.8600   31.0400   12.8500 H         6 CUB7        0.0000 
     92 DU        -26.5800   32.0800   11.8000 H         6 CUB7        0.0000 
     93 DU        -25.8900   32.9300   12.8200 H         6 CUB7        0.0000 
@<TRIPOS>BOND
@<TRIPOS>SUBSTRUCTURE
     1 SER1        1 GROUP   
     2 ALA2       14 GROUP   
     3 LYS4       30 GROUP   
     4 PHE5       45 GROUP   
     5 GLY6       61 GROUP   
     6 CUB7       74 GROUP   
@<TRIPOS>SET

