#    Name: 6mzg_5_GTP
#    Modification time : Fri May 22 19:36:56 2020

@<TRIPOS>MOLECULE
6mzg_5_GTP
   32    34     1     0     1
SMALL
NO_CHARGES


@<TRIPOS>ATOM
      1 PG        -53.5460  -45.1330  -66.0980 P.3       1 GTP600      0.0000 
      2 O1G       -54.4020  -44.1360  -66.8420 O.co2     1 GTP600      0.0000 
      3 O2G       -52.2770  -44.4570  -65.6400 O.co2     1 GTP600      0.0000 
      4 O3G       -54.2970  -45.6930  -64.9110 O.co2     1 GTP600      0.0000 
      5 O3B       -53.1680  -46.3380  -67.0930 O.3       1 GTP600      0.0000 
      6 PB        -54.0080  -47.7080  -67.0820 P.3       1 GTP600      0.0000 
      7 O1B       -53.5400  -48.5820  -68.2200 O.co2     1 GTP600      0.0000 
      8 O2B       -53.8360  -48.3840  -65.7420 O.co2     1 GTP600      0.0000 
      9 O3A       -55.5450  -47.2680  -67.2900 O.3       1 GTP600      0.0000 
     10 PA        -56.6610  -48.2710  -67.8900 P.3       1 GTP600      0.0000 
     11 O1A       -56.0740  -49.5890  -68.3440 O.co2     1 GTP600      0.0000 
     12 O2A       -57.7410  -48.4700  -66.8510 O.co2     1 GTP600      0.0000 
     13 O5'       -57.2780  -47.4740  -69.1460 O.3       1 GTP600      0.0000 
     14 C5'       -58.6410  -47.1160  -69.2190 C.3       1 GTP600      0.0000 
     15 C4'       -59.3360  -47.9200  -70.3120 C.3       1 GTP600      0.0000 
     16 O4'       -59.0460  -49.2900  -70.1350 O.3       1 GTP600      0.0000 
     17 C3'       -60.8450  -47.7640  -70.2480 C.3       1 GTP600      0.0000 
     18 O3'       -61.3320  -47.4470  -71.5310 O.3       1 GTP600      0.0000 
     19 C2'       -61.3670  -49.1260  -69.8450 C.3       1 GTP600      0.0000 
     20 O2'       -62.5400  -49.4390  -70.5620 O.3       1 GTP600      0.0000 
     21 C1'       -60.2210  -50.0740  -70.1660 C.3       1 GTP600      0.0000 
     22 N9        -60.1070  -51.1160  -69.1330 N.pl3     1 GTP600      0.0000 
     23 C8        -59.5560  -50.9640  -67.8900 C.2       1 GTP600      0.0000 
     24 N7        -59.6270  -52.1490  -67.2430 N.2       1 GTP600      0.0000 
     25 C5        -60.2060  -53.0570  -68.0590 C.2       1 GTP600      0.0000 
     26 C6        -60.5150  -54.4030  -67.8990 C.2       1 GTP600      0.0000 
     27 O6        -60.2540  -54.9830  -66.8470 O.2       1 GTP600      0.0000 
     28 N1        -61.1190  -55.0940  -68.9280 N.am      1 GTP600      0.0000 
     29 C2        -61.4130  -54.4440  -70.1080 C.2       1 GTP600      0.0000 
     30 N2        -61.9950  -55.1110  -71.0990 N.pl3     1 GTP600      0.0000 
     31 N3        -61.1030  -53.1060  -70.2620 N.2       1 GTP600      0.0000 
     32 C4        -60.5090  -52.4210  -69.2540 C.2       1 GTP600      0.0000 
@<TRIPOS>BOND
     1    1    2 ar   
     2    1    3 ar   
     3    1    4 ar   
     4    1    5 1    
     5    5    6 1    
     6    6    7 ar   
     7    6    8 ar   
     8    6    9 1    
     9    9   10 1    
    10   10   11 ar   
    11   10   12 ar   
    12   10   13 1    
    13   13   14 1    
    14   14   15 1    
    15   15   16 1    
    16   15   17 1    
    17   16   21 1    
    18   17   18 1    
    19   17   19 1    
    20   19   20 1    
    21   19   21 1    
    22   21   22 1    
    23   22   23 1    
    24   22   32 1    
    25   23   24 2    
    26   24   25 1    
    27   25   26 1    
    28   25   32 2    
    29   26   27 2    
    30   26   28 am   
    31   28   29 1    
    32   29   30 1    
    33   29   31 2    
    34   31   32 1    
@<TRIPOS>SUBSTRUCTURE
     1 GTP600      1 GROUP   
@<TRIPOS>SET
ATOM$ORANGE STATIC     ATOMS   COLORGROUP SYSTEM 
20 14 14 15 15 17 17 19 19 21 21 23 23 25 25 26 26 29 \
29 32 32 

