#    Name: 6mzg_5_GTP_CAVITY_N1_12
#    Modification time : Fri May 22 19:36:58 2020

@<TRIPOS>MOLECULE
6mzg_5_GTP_CAVITY_N1_12
   85     0     6     0     0
SMALL
NO_CHARGES


@<TRIPOS>ATOM
      1 OG        -54.5000  -46.6000  -54.4500 O.3       1 SER1        0.0000 
      2 O         -60.5000  -54.0100  -59.7700 O.2       2 ALA2        0.0000 
      3 O         -59.8100  -52.7400  -59.3500 O.2       2 ALA2        0.0000 
      4 O         -58.6200  -53.1200  -60.1700 O.2       2 ALA2        0.0000 
      5 O         -61.5900  -51.6500  -59.7000 O.2       2 ALA2        0.0000 
      6 O         -60.4000  -52.0300  -60.5300 O.2       2 ALA2        0.0000 
      7 N         -62.7100  -50.3500  -56.4500 N.am      2 ALA2        0.0000 
      8 N         -59.1200  -51.4800  -58.9200 N.am      2 ALA2        0.0000 
      9 N         -57.9300  -51.8600  -59.7500 N.am      2 ALA2        0.0000 
     10 N         -62.1000  -50.0100  -58.4600 N.am      2 ALA2        0.0000 
     11 O         -60.9000  -50.3900  -59.2800 O.2       2 ALA2        0.0000 
     12 O         -59.7100  -50.7700  -60.1000 O.2       2 ALA2        0.0000 
     13 N         -60.8200  -49.4600  -56.8500 N.am      2 ALA2        0.0000 
     14 N         -59.6300  -49.8400  -57.6800 N.am      2 ALA2        0.0000 
     15 N         -60.2100  -49.1200  -58.8600 N.am      2 ALA2        0.0000 
     16 N         -59.0200  -49.5000  -59.6800 N.am      2 ALA2        0.0000 
     17 N         -60.1300  -48.2000  -56.4300 N.am      2 ALA2        0.0000 
     18 N         -58.9400  -48.5800  -57.2600 N.am      2 ALA2        0.0000 
     19 N         -59.5200  -47.8600  -58.4400 N.am      2 ALA2        0.0000 
     20 N         -57.1300  -48.6200  -60.0800 N.am      2 ALA2        0.0000 
     21 O         -58.9200  -47.5200  -60.4400 O.2       2 ALA2        0.0000 
     22 N         -57.7200  -47.9000  -61.2600 N.am      2 ALA2        0.0000 
     23 N         -59.5000  -46.8100  -61.6200 N.am      2 ALA2        0.0000 
     24 N         -58.2500  -47.3100  -56.8300 N.am      2 ALA2        0.0000 
     25 N         -58.8300  -46.6000  -58.0100 N.am      2 ALA2        0.0000 
     26 N         -58.8100  -45.5500  -61.2000 N.am      2 ALA2        0.0000 
     27 N         -55.5900  -44.2400  -54.3800 N.am      2 ALA2        0.0000 
     28 N         -54.3900  -44.6200  -55.2100 N.am      2 ALA2        0.0000 
     29 N         -54.9800  -43.9000  -56.3900 N.am      2 ALA2        0.0000 
     30 OD1       -59.4400  -46.9400  -56.0100 O.co2     3 ASP3        0.0000 
     31 OD1       -57.0300  -46.6400  -60.8400 O.co2     3 ASP3        0.0000 
     32 OD1       -56.3800  -47.4800  -54.0500 O.co2     3 ASP3        0.0000 
     33 OD1       -56.9700  -46.7700  -55.2300 O.co2     3 ASP3        0.0000 
     34 OD1       -57.5600  -46.0500  -56.4100 O.co2     3 ASP3        0.0000 
     35 OD1       -56.3400  -45.3800  -60.4200 O.co2     3 ASP3        0.0000 
     36 OD1       -55.6900  -46.2200  -53.6300 O.co2     3 ASP3        0.0000 
     37 OD1       -56.2800  -45.5000  -54.8100 O.co2     3 ASP3        0.0000 
     38 OD1       -56.8700  -44.7900  -55.9900 O.co2     3 ASP3        0.0000 
     39 OD1       -56.7900  -43.8600  -53.5600 O.co2     3 ASP3        0.0000 
     40 OD1       -56.1800  -43.5300  -55.5600 O.co2     3 ASP3        0.0000 
     41 NZ        -59.9100  -54.7200  -58.5900 N.4       4 LYS4        0.0000 
     42 NZ        -59.2200  -53.4600  -58.1700 N.4       4 LYS4        0.0000 
     43 NZ        -58.0300  -53.8400  -58.9900 N.4       4 LYS4        0.0000 
     44 NZ        -59.7300  -51.8200  -56.9200 N.4       4 LYS4        0.0000 
     45 NZ        -58.5300  -52.2000  -57.7400 N.4       4 LYS4        0.0000 
     46 NZ        -55.9400  -49.0000  -60.9100 N.4       4 LYS4        0.0000 
     47 NZ        -57.0500  -47.6900  -57.6600 N.4       4 LYS4        0.0000 
     48 NZ        -57.6400  -46.9800  -58.8400 N.4       4 LYS4        0.0000 
     49 NZ        -56.4400  -47.3500  -59.6600 N.4       4 LYS4        0.0000 
     50 NZ        -55.7700  -47.1400  -56.0500 N.4       4 LYS4        0.0000 
     51 NZ        -56.3600  -46.4300  -57.2300 N.4       4 LYS4        0.0000 
     52 NZ        -56.9500  -45.7100  -58.4100 N.4       4 LYS4        0.0000 
     53 NZ        -55.0800  -45.8800  -55.6300 N.4       4 LYS4        0.0000 
     54 NZ        -55.6700  -45.1700  -56.8100 N.4       4 LYS4        0.0000 
     55 NZ        -56.2600  -44.4500  -57.9900 N.4       4 LYS4        0.0000 
     56 NZ        -55.6500  -44.1100  -60.0000 N.4       4 LYS4        0.0000 
     57 NZ        -52.6100  -45.7100  -54.8500 N.4       4 LYS4        0.0000 
     58 NZ        -53.2000  -45.0000  -56.0300 N.4       4 LYS4        0.0000 
     59 CA        -60.9300  -51.4400  -56.1000 C.3       5 GLY6        0.0000 
     60 CA        -57.3400  -52.5700  -58.5700 C.3       5 GLY6        0.0000 
     61 CA        -60.2400  -50.1800  -55.6700 C.3       5 GLY6        0.0000 
     62 CA        -59.0400  -50.5600  -56.5000 C.3       5 GLY6        0.0000 
     63 CA        -57.8400  -50.9300  -57.3200 C.3       5 GLY6        0.0000 
     64 CA        -58.4300  -50.2200  -58.5000 C.3       5 GLY6        0.0000 
     65 CA        -57.2400  -50.6000  -59.3200 C.3       5 GLY6        0.0000 
     66 CA        -57.7600  -50.0100  -54.8900 C.3       5 GLY6        0.0000 
     67 CA        -59.5500  -48.9200  -55.2500 C.3       5 GLY6        0.0000 
     68 CA        -58.3500  -49.2900  -56.0700 C.3       5 GLY6        0.0000 
     69 CA        -57.7400  -48.9600  -58.0800 C.3       5 GLY6        0.0000 
     70 CA        -56.5500  -49.3300  -58.9000 C.3       5 GLY6        0.0000 
     71 CA        -57.0700  -48.7500  -54.4700 C.3       5 GLY6        0.0000 
     72 CA        -58.8600  -47.6500  -54.8300 C.3       5 GLY6        0.0000 
     73 CA        -57.6600  -48.0300  -55.6500 C.3       5 GLY6        0.0000 
     74 CA        -59.4200  -45.8800  -59.1900 C.3       5 GLY6        0.0000 
     75 CA        -58.2200  -46.2600  -60.0200 C.3       5 GLY6        0.0000 
     76 CA        -57.5300  -45.0000  -59.5900 C.3       5 GLY6        0.0000 
     77 CA        -58.1200  -44.2800  -60.7700 C.3       5 GLY6        0.0000 
     78 CA        -56.8400  -43.7300  -59.1700 C.3       5 GLY6        0.0000 
     79 CA        -55.0000  -44.9600  -53.2000 C.3       5 GLY6        0.0000 
     80 CA        -53.8100  -45.3300  -54.0300 C.3       5 GLY6        0.0000 
     81 DU        -61.7000  -53.6300  -58.9500 H         6 CUB7        0.0000 
     82 DU        -61.0100  -52.3700  -58.5200 H         6 CUB7        0.0000 
     83 DU        -61.5100  -50.7300  -57.2800 H         6 CUB7        0.0000 
     84 DU        -60.3200  -51.1000  -58.1000 H         6 CUB7        0.0000 
     85 DU        -58.3300  -48.2400  -59.2600 H         6 CUB7        0.0000 
@<TRIPOS>BOND
@<TRIPOS>SUBSTRUCTURE
     1 SER1        1 GROUP   
     2 ALA2        2 GROUP   
     3 ASP3       30 GROUP   
     4 LYS4       41 GROUP   
     5 GLY6       59 GROUP   
     6 CUB7       81 GROUP   
@<TRIPOS>SET

