#    Name: 6mzg_7_GTP_CAVITY_N1_6
#    Modification time : Fri May 22 19:37:09 2020

@<TRIPOS>MOLECULE
6mzg_7_GTP_CAVITY_N1_6
    7     0     3     0     0
SMALL
NO_CHARGES


@<TRIPOS>ATOM
      1 N         -59.2900   22.6300  -13.9200 N.am      1 ALA2        0.0000 
      2 OD1       -59.1900   24.6100  -14.6800 O.co2     2 ASP3        0.0000 
      3 OD1       -58.5000   25.8700  -14.2600 O.co2     2 ASP3        0.0000 
      4 NZ        -58.6000   23.8900  -13.5000 N.4       3 LYS4        0.0000 
      5 NZ        -57.9100   25.1500  -13.0800 N.4       3 LYS4        0.0000 
      6 NZ        -56.7100   24.7800  -13.9000 N.4       3 LYS4        0.0000 
      7 NZ        -56.0200   26.0400  -13.4800 N.4       3 LYS4        0.0000 
@<TRIPOS>BOND
@<TRIPOS>SUBSTRUCTURE
     1 ALA2        1 GROUP   
     2 ASP3        2 GROUP   
     3 LYS4        4 GROUP   
@<TRIPOS>SET

