#    Name: 6mzg_8_GDP
#    Modification time : Fri May 22 19:37:13 2020

@<TRIPOS>MOLECULE
6mzg_8_GDP
   28    30     1     0     1
SMALL
NO_CHARGES


@<TRIPOS>ATOM
      1 PB        -46.3980   58.2450   -4.7740 P.3       1 GDP600      0.0000 
      2 O1B       -46.8770   57.0310   -5.5340 O.co2     1 GDP600      0.0000 
      3 O2B       -46.2280   57.9200   -3.3090 O.co2     1 GDP600      0.0000 
      4 O3B       -45.0720   58.6950   -5.3380 O.co2     1 GDP600      0.0000 
      5 O3A       -47.4460   59.4550   -4.9400 O.3       1 GDP600      0.0000 
      6 PA        -49.0270   59.2510   -4.7190 P.3       1 GDP600      0.0000 
      7 O1A       -49.3560   57.8200   -4.3640 O.co2     1 GDP600      0.0000 
      8 O2A       -49.5260   60.1940   -3.6510 O.co2     1 GDP600      0.0000 
      9 O5'       -49.6550   59.6400   -6.1470 O.3       1 GDP600      0.0000 
     10 C5'       -50.5910   60.7060   -6.2610 C.3       1 GDP600      0.0000 
     11 C4'       -51.8090   60.2150   -7.0240 C.3       1 GDP600      0.0000 
     12 O4'       -52.2920   59.0530   -6.3520 O.3       1 GDP600      0.0000 
     13 C3'       -52.9200   61.2510   -6.9970 C.3       1 GDP600      0.0000 
     14 O3'       -53.4530   61.4170   -8.3150 O.3       1 GDP600      0.0000 
     15 C2'       -53.9820   60.6940   -6.0710 C.3       1 GDP600      0.0000 
     16 O2'       -55.2920   60.8860   -6.6120 O.3       1 GDP600      0.0000 
     17 C1'       -53.6580   59.2140   -5.9660 C.3       1 GDP600      0.0000 
     18 N9        -53.8500   58.7190   -4.5820 N.pl3     1 GDP600      0.0000 
     19 C8        -53.0360   58.9410   -3.5310 C.2       1 GDP600      0.0000 
     20 N7        -53.5080   58.3300   -2.4130 N.2       1 GDP600      0.0000 
     21 C5        -54.6480   57.6970   -2.7510 C.2       1 GDP600      0.0000 
     22 C6        -55.6580   56.8610   -2.0580 C.2       1 GDP600      0.0000 
     23 O6        -55.5440   56.5970   -0.8420 O.2       1 GDP600      0.0000 
     24 N1        -56.6930   56.4000   -2.7740 N.am      1 GDP600      0.0000 
     25 C2        -56.8420   56.6690   -4.0860 C.2       1 GDP600      0.0000 
     26 N2        -57.9170   56.1660   -4.7410 N.pl3     1 GDP600      0.0000 
     27 N3        -55.9570   57.4260   -4.7820 N.2       1 GDP600      0.0000 
     28 C4        -54.8660   57.9560   -4.1800 C.2       1 GDP600      0.0000 
@<TRIPOS>BOND
     1    1    2 ar   
     2    1    3 ar   
     3    1    4 ar   
     4    1    5 1    
     5    5    6 1    
     6    6    7 ar   
     7    6    8 ar   
     8    6    9 1    
     9    9   10 1    
    10   10   11 1    
    11   11   12 1    
    12   11   13 1    
    13   12   17 1    
    14   13   14 1    
    15   13   15 1    
    16   15   16 1    
    17   15   17 1    
    18   17   18 1    
    19   18   19 1    
    20   18   28 1    
    21   19   20 2    
    22   20   21 1    
    23   21   22 1    
    24   21   28 2    
    25   22   23 2    
    26   22   24 am   
    27   24   25 1    
    28   25   26 1    
    29   25   27 2    
    30   27   28 1    
@<TRIPOS>SUBSTRUCTURE
     1 GDP600      1 GROUP   
@<TRIPOS>SET
ATOM$ORANGE STATIC     ATOMS   COLORGROUP SYSTEM 
20 10 10 11 11 13 13 15 15 17 17 19 19 21 21 22 22 25 \
25 28 28 

