#    Name: 6mzg_8_GDP_CAVITY_N1_12
#    Modification time : Fri May 22 19:37:14 2020

@<TRIPOS>MOLECULE
6mzg_8_GDP_CAVITY_N1_12
  108     0     7     0     0
SMALL
NO_CHARGES


@<TRIPOS>ATOM
      1 OG        -54.0300   59.1600   -3.9200 O.3       1 SER1        0.0000 
      2 OG        -51.6400   58.4100   -5.5700 O.3       1 SER1        0.0000 
      3 OG        -54.6200   59.8800   -5.1000 O.3       1 SER1        0.0000 
      4 OG        -55.2000   60.5900   -6.2800 O.3       1 SER1        0.0000 
      5 OG        -49.1700   58.5800   -4.7900 O.3       1 SER1        0.0000 
      6 OG        -47.9700   58.2000   -5.6100 O.3       1 SER1        0.0000 
      7 OG        -53.3400   60.4200   -3.5000 O.3       1 SER1        0.0000 
      8 OG        -50.9500   59.6700   -5.1400 O.3       1 SER1        0.0000 
      9 OG        -49.7500   59.2900   -5.9700 O.3       1 SER1        0.0000 
     10 OG        -52.7300   60.7600   -5.5000 O.3       1 SER1        0.0000 
     11 OG        -54.5100   61.8600   -5.8600 O.3       1 SER1        0.0000 
     12 OG        -52.6500   61.6900   -3.0700 O.3       1 SER1        0.0000 
     13 OG        -46.6400   58.6200    1.6000 O.3       1 SER1        0.0000 
     14 OG        -44.2200   58.9200   -3.2300 O.3       1 SER1        0.0000 
     15 OG        -53.1600   63.3300   -1.8300 O.3       1 SER1        0.0000 
     16 OG        -52.5500   63.6700   -3.8300 O.3       1 SER1        0.0000 
     17 OG        -43.5300   60.1800   -2.8000 O.3       1 SER1        0.0000 
     18 OG        -51.8600   64.9300   -3.4100 O.3       1 SER1        0.0000 
     19 N         -56.0200   56.3000   -2.7600 N.am      2 ALA2        0.0000 
     20 N         -56.6100   57.0100   -3.9400 N.am      2 ALA2        0.0000 
     21 N         -55.4100   56.6400   -4.7600 N.am      2 ALA2        0.0000 
     22 N         -54.7200   57.9000   -4.3400 N.am      2 ALA2        0.0000 
     23 O         -55.3100   58.6100   -5.5200 O.2       2 ALA2        0.0000 
     24 O         -54.7000   58.9500   -7.5300 O.2       2 ALA2        0.0000 
     25 O         -55.2900   59.6700   -8.7100 O.2       2 ALA2        0.0000 
     26 O         -47.3900   57.4800   -4.4300 O.2       2 ALA2        0.0000 
     27 O         -51.5600   59.3300   -3.1400 O.2       2 ALA2        0.0000 
     28 O         -50.3600   58.9500   -3.9600 O.2       2 ALA2        0.0000 
     29 O         -50.3400   60.0100   -7.1500 O.2       2 ALA2        0.0000 
     30 O         -46.1100   58.0300   -2.8300 O.2       2 ALA2        0.0000 
     31 O         -46.7000   58.7500   -4.0100 O.2       2 ALA2        0.0000 
     32 O         -45.5000   58.3700   -4.8300 O.2       2 ALA2        0.0000 
     33 N         -50.2400   61.9900   -7.9100 N.am      2 ALA2        0.0000 
     34 N         -47.2200   59.3300    0.4200 N.am      2 ALA2        0.0000 
     35 N         -46.6100   59.6700   -1.5800 N.am      2 ALA2        0.0000 
     36 N         -47.2000   60.3900   -2.7600 N.am      2 ALA2        0.0000 
     37 N         -46.0100   60.0100   -3.5800 N.am      2 ALA2        0.0000 
     38 O         -44.8100   59.6300   -4.4100 O.2       2 ALA2        0.0000 
     39 N         -47.7300   60.9700    1.6700 N.am      2 ALA2        0.0000 
     40 N         -46.5300   60.6000    0.8500 N.am      2 ALA2        0.0000 
     41 N         -45.9200   60.9300   -1.1600 N.am      2 ALA2        0.0000 
     42 N         -45.3100   61.2700   -3.1600 N.am      2 ALA2        0.0000 
     43 O         -42.2600   60.7300   -1.2000 O.2       2 ALA2        0.0000 
     44 N         -45.8200   62.9100   -1.9200 N.am      2 ALA2        0.0000 
     45 N         -44.6200   62.5300   -2.7400 N.am      2 ALA2        0.0000 
     46 O         -43.4300   62.1600   -3.5600 O.2       2 ALA2        0.0000 
     47 O         -43.3500   63.0800   -1.1400 O.2       2 ALA2        0.0000 
     48 O         -42.1500   62.7000   -1.9600 O.2       2 ALA2        0.0000 
     49 O         -44.5200   64.5100   -3.5000 O.2       2 ALA2        0.0000 
     50 OD1       -52.1500   60.0500   -4.3200 O.co2     3 ASP3        0.0000 
     51 OD1       -48.4800   59.8400   -4.3600 O.co2     3 ASP3        0.0000 
     52 OD1       -51.4600   61.3100   -3.9000 O.co2     3 ASP3        0.0000 
     53 OD1       -50.2600   60.9300   -4.7200 O.co2     3 ASP3        0.0000 
     54 OD1       -49.0600   60.5500   -5.5400 O.co2     3 ASP3        0.0000 
     55 OD1       -52.0400   62.0300   -5.0800 O.co2     3 ASP3        0.0000 
     56 OD1       -50.8500   61.6500   -5.9000 O.co2     3 ASP3        0.0000 
     57 OD1       -51.9600   62.9500   -2.6500 O.co2     3 ASP3        0.0000 
     58 OD1       -51.3500   63.2900   -4.6600 O.co2     3 ASP3        0.0000 
     59 OD1       -50.1600   62.9100   -5.4800 O.co2     3 ASP3        0.0000 
     60 OD1       -46.5100   61.6500   -2.3400 O.co2     3 ASP3        0.0000 
     61 OD1       -51.2700   64.2100   -2.2300 O.co2     3 ASP3        0.0000 
     62 OD1       -50.6600   64.5500   -4.2300 O.co2     3 ASP3        0.0000 
     63 OD1       -47.0200   63.2900   -1.0900 O.co2     3 ASP3        0.0000 
     64 NZ        -53.3200   61.4800   -6.6800 N.4       4 LYS4        0.0000 
     65 NZ        -52.1200   61.1000   -7.5000 N.4       4 LYS4        0.0000 
     66 NZ        -53.9100   62.1900   -7.8600 N.4       4 LYS4        0.0000 
     67 NZ        -52.6300   62.7400   -6.2600 N.4       4 LYS4        0.0000 
     68 NZ        -45.4400   58.2400    0.7800 N.4       4 LYS4        0.0000 
     69 NZ        -44.8300   58.5800   -1.2200 N.4       4 LYS4        0.0000 
     70 NZ        -43.6400   58.2000   -2.0500 N.4       4 LYS4        0.0000 
     71 NZ        -42.7600   62.3700    0.0400 N.4       4 LYS4        0.0000 
     72 CZ        -55.3300   57.5600   -2.3400 C.ar      5 PHE5        0.0000 
     73 CZ        -55.9200   58.2800   -3.5200 C.ar      5 PHE5        0.0000 
     74 CZ        -56.5000   58.9900   -4.7000 C.ar      5 PHE5        0.0000 
     75 CA        -54.1300   57.1800   -3.1600 C.3       6 GLY6        0.0000 
     76 CA        -54.1100   58.2400   -6.3500 C.3       6 GLY6        0.0000 
     77 CA        -53.5000   58.5700   -8.3500 C.3       6 GLY6        0.0000 
     78 CA        -54.0900   59.2900   -9.5300 C.3       6 GLY6        0.0000 
     79 CA        -53.4400   58.4500   -2.7400 C.3       6 GLY6        0.0000 
     80 CA        -52.8400   58.7800   -4.7400 C.3       6 GLY6        0.0000 
     81 CA        -52.2300   59.1200   -6.7500 C.3       6 GLY6        0.0000 
     82 CA        -52.8100   59.8400   -7.9300 C.3       6 GLY6        0.0000 
     83 CA        -51.6200   59.4600   -8.7500 C.3       6 GLY6        0.0000 
     84 CA        -55.7900   61.3100   -7.4600 C.3       6 GLY6        0.0000 
     85 CA        -54.6000   60.9300   -8.2800 C.3       6 GLY6        0.0000 
     86 CA        -53.4000   60.5500   -9.1100 C.3       6 GLY6        0.0000 
     87 CA        -50.9300   60.7200   -8.3300 C.3       6 GLY6        0.0000 
     88 CA        -55.1000   62.5700   -7.0400 C.3       6 GLY6        0.0000 
     89 CA        -44.9100   57.6500   -3.6500 C.3       6 GLY6        0.0000 
     90 CA        -47.8900   59.1200   -3.1800 C.3       6 GLY6        0.0000 
     91 CA        -47.2800   59.4600   -5.1900 C.3       6 GLY6        0.0000 
     92 CA        -49.6500   61.2700   -6.7200 C.3       6 GLY6        0.0000 
     93 CA        -46.0300   58.9600   -0.4000 C.3       6 GLY6        0.0000 
     94 CA        -45.4200   59.2900   -2.4000 C.3       6 GLY6        0.0000 
     95 CA        -45.9500   59.8800    2.0300 C.3       6 GLY6        0.0000 
     96 CA        -44.7500   59.5000    1.2000 C.3       6 GLY6        0.0000 
     97 CA        -45.3400   60.2200    0.0200 C.3       6 GLY6        0.0000 
     98 CA        -44.1400   59.8400   -0.8000 C.3       6 GLY6        0.0000 
     99 CA        -42.9500   59.4600   -1.6200 C.3       6 GLY6        0.0000 
    100 CA        -44.6500   61.4800    0.4500 C.3       6 GLY6        0.0000 
    101 CA        -43.4500   61.1000   -0.3800 C.3       6 GLY6        0.0000 
    102 CA        -43.9300   63.8000   -2.3200 C.3       6 GLY6        0.0000 
    103 DU        -53.4200   59.5000   -5.9200 H         7 CUB7        0.0000 
    104 DU        -54.0100   60.2200   -7.1000 H         7 CUB7        0.0000 
    105 DU        -51.5400   60.3800   -6.3200 H         7 CUB7        0.0000 
    106 DU        -44.7300   60.5600   -1.9800 H         7 CUB7        0.0000 
    107 DU        -45.2300   62.2000   -0.7400 H         7 CUB7        0.0000 
    108 DU        -44.0400   61.8200   -1.5600 H         7 CUB7        0.0000 
@<TRIPOS>BOND
@<TRIPOS>SUBSTRUCTURE
     1 SER1        1 GROUP   
     2 ALA2       19 GROUP   
     3 ASP3       50 GROUP   
     4 LYS4       64 GROUP   
     5 PHE5       72 GROUP   
     6 GLY6       75 GROUP   
     7 CUB7      103 GROUP   
@<TRIPOS>SET

