#    Name: 6mzg_7_GTP_CAVITY_N1_8
#    Modification time : Fri May 22 19:37:09 2020

@<TRIPOS>MOLECULE
6mzg_7_GTP_CAVITY_N1_8
   26     0     5     0     0
SMALL
NO_CHARGES


@<TRIPOS>ATOM
      1 N         -63.7700   18.5400  -10.3600 N.am      1 ALA2        0.0000 
      2 N         -61.8900   19.4300  -10.7600 N.am      1 ALA2        0.0000 
      3 N         -63.6700   20.5200  -11.1200 N.am      1 ALA2        0.0000 
      4 N         -62.4700   20.1400  -11.9400 N.am      1 ALA2        0.0000 
      5 N         -61.7800   21.4000  -11.5200 N.am      1 ALA2        0.0000 
      6 N         -59.9000   22.2900  -11.9200 N.am      1 ALA2        0.0000 
      7 N         -60.4900   23.0000  -13.1000 N.am      1 ALA2        0.0000 
      8 N         -59.2900   22.6300  -13.9200 N.am      1 ALA2        0.0000 
      9 N         -60.9900   24.6500  -11.8500 N.am      1 ALA2        0.0000 
     10 N         -60.3800   24.9800  -13.8600 N.am      1 ALA2        0.0000 
     11 OD1       -59.1900   24.6100  -14.6800 O.co2     2 ASP3        0.0000 
     12 OD1       -58.5000   25.8700  -14.2600 O.co2     2 ASP3        0.0000 
     13 NZ        -58.7000   21.9100  -12.7400 N.4       3 LYS4        0.0000 
     14 NZ        -59.2100   23.5500  -11.4900 N.4       3 LYS4        0.0000 
     15 NZ        -58.6000   23.8900  -13.5000 N.4       3 LYS4        0.0000 
     16 NZ        -58.5200   24.8200  -11.0700 N.4       3 LYS4        0.0000 
     17 NZ        -57.9100   25.1500  -13.0800 N.4       3 LYS4        0.0000 
     18 NZ        -56.7100   24.7800  -13.9000 N.4       3 LYS4        0.0000 
     19 NZ        -56.6300   25.7000  -11.4700 N.4       3 LYS4        0.0000 
     20 NZ        -54.2400   24.9400  -13.1200 N.4       3 LYS4        0.0000 
     21 NZ        -56.0200   26.0400  -13.4800 N.4       3 LYS4        0.0000 
     22 NZ        -54.7500   26.5900  -11.8700 N.4       3 LYS4        0.0000 
     23 CA        -59.1100   25.5300  -12.2500 C.3       4 GLY6        0.0000 
     24 CA        -59.6900   26.2500  -13.4300 C.3       4 GLY6        0.0000 
     25 CA        -57.2200   26.4200  -12.6500 C.3       4 GLY6        0.0000 
     26 DU        -59.8000   24.2700  -12.6800 H         5 CUB7        0.0000 
@<TRIPOS>BOND
@<TRIPOS>SUBSTRUCTURE
     1 ALA2        1 GROUP   
     2 ASP3       11 GROUP   
     3 LYS4       13 GROUP   
     4 GLY6       23 GROUP   
     5 CUB7       26 GROUP   
@<TRIPOS>SET

