#    Name: 6mzg_7_GTP_CAVITY_N1_ALL
#    Modification time : Fri May 22 19:37:09 2020

@<TRIPOS>MOLECULE
6mzg_7_GTP_CAVITY_N1_ALL
   79     0     6     0     0
SMALL
NO_CHARGES


@<TRIPOS>ATOM
      1 OG        -56.0700   23.9300   -7.1100 O.3       1 SER1        0.0000 
      2 OG        -56.6500   24.6500   -8.2900 O.3       1 SER1        0.0000 
      3 N         -63.7700   18.5400  -10.3600 N.am      2 ALA2        0.0000 
      4 N         -61.8900   19.4300  -10.7600 N.am      2 ALA2        0.0000 
      5 N         -63.6700   20.5200  -11.1200 N.am      2 ALA2        0.0000 
      6 N         -62.4700   20.1400  -11.9400 N.am      2 ALA2        0.0000 
      7 O         -62.9800   21.7800  -10.6900 O.2       2 ALA2        0.0000 
      8 N         -61.7800   21.4000  -11.5200 N.am      2 ALA2        0.0000 
      9 O         -64.7600   22.8700  -11.0500 O.2       2 ALA2        0.0000 
     10 N         -63.4900   23.4200   -9.4500 N.am      2 ALA2        0.0000 
     11 O         -62.2900   23.0400  -10.2700 O.2       2 ALA2        0.0000 
     12 O         -61.0900   22.6700  -11.0900 O.2       2 ALA2        0.0000 
     13 N         -59.9000   22.2900  -11.9200 N.am      2 ALA2        0.0000 
     14 N         -60.4900   23.0000  -13.1000 N.am      2 ALA2        0.0000 
     15 N         -59.2900   22.6300  -13.9200 N.am      2 ALA2        0.0000 
     16 N         -62.8000   24.6900   -9.0200 N.am      2 ALA2        0.0000 
     17 N         -61.6000   24.3100   -9.8500 N.am      2 ALA2        0.0000 
     18 N         -60.4000   23.9300  -10.6700 N.am      2 ALA2        0.0000 
     19 N         -60.9900   24.6500  -11.8500 N.am      2 ALA2        0.0000 
     20 N         -60.3800   24.9800  -13.8600 N.am      2 ALA2        0.0000 
     21 N         -60.3200   24.8600   -8.2400 N.am      2 ALA2        0.0000 
     22 N         -59.7100   25.1900  -10.2500 N.am      2 ALA2        0.0000 
     23 OD1       -59.1900   24.6100  -14.6800 O.co2     3 ASP3        0.0000 
     24 OD1       -58.5000   25.8700  -14.2600 O.co2     3 ASP3        0.0000 
     25 OD1       -59.6300   26.1200   -7.8200 O.co2     3 ASP3        0.0000 
     26 OD1       -58.4400   25.7400   -8.6500 O.co2     3 ASP3        0.0000 
     27 OD1       -59.0200   26.4600   -9.8300 O.co2     3 ASP3        0.0000 
     28 OD1       -55.9600   25.9100   -7.8700 O.co2     3 ASP3        0.0000 
     29 OD1       -56.5500   26.6300   -9.0500 O.co2     3 ASP3        0.0000 
     30 OD1       -57.1400   27.3400  -10.2300 O.co2     3 ASP3        0.0000 
     31 NZ        -61.3000   18.7100   -9.5800 N.4       4 LYS4        0.0000 
     32 NZ        -63.0800   19.8000   -9.9400 N.4       4 LYS4        0.0000 
     33 NZ        -61.8100   20.3500   -8.3300 N.4       4 LYS4        0.0000 
     34 NZ        -60.6100   19.9700   -9.1600 N.4       4 LYS4        0.0000 
     35 NZ        -62.3900   21.0700   -9.5100 N.4       4 LYS4        0.0000 
     36 NZ        -62.3100   21.9900   -7.0900 N.4       4 LYS4        0.0000 
     37 NZ        -61.1200   21.6100   -7.9100 N.4       4 LYS4        0.0000 
     38 NZ        -58.7000   21.9100  -12.7400 N.4       4 LYS4        0.0000 
     39 NZ        -59.2100   23.5500  -11.4900 N.4       4 LYS4        0.0000 
     40 NZ        -58.6000   23.8900  -13.5000 N.4       4 LYS4        0.0000 
     41 NZ        -58.5200   24.8200  -11.0700 N.4       4 LYS4        0.0000 
     42 NZ        -57.9100   25.1500  -13.0800 N.4       4 LYS4        0.0000 
     43 NZ        -56.7100   24.7800  -13.9000 N.4       4 LYS4        0.0000 
     44 NZ        -57.2400   25.3600   -9.4700 N.4       4 LYS4        0.0000 
     45 NZ        -56.6300   25.7000  -11.4700 N.4       4 LYS4        0.0000 
     46 NZ        -54.2400   24.9400  -13.1200 N.4       4 LYS4        0.0000 
     47 NZ        -56.0200   26.0400  -13.4800 N.4       4 LYS4        0.0000 
     48 NZ        -54.7500   26.5900  -11.8700 N.4       4 LYS4        0.0000 
     49 CA        -60.0000   20.3100  -11.1600 C.3       5 GLY6        0.0000 
     50 CA        -60.5100   21.9500   -9.9100 C.3       5 GLY6        0.0000 
     51 CA        -59.3100   21.5700  -10.7400 C.3       5 GLY6        0.0000 
     52 CA        -61.0400   22.5400   -5.4800 C.3       5 GLY6        0.0000 
     53 CA        -59.8400   22.1600   -6.3100 C.3       5 GLY6        0.0000 
     54 CA        -61.6200   23.2500   -6.6600 C.3       5 GLY6        0.0000 
     55 CA        -60.4300   22.8800   -7.4900 C.3       5 GLY6        0.0000 
     56 CA        -62.2100   23.9700   -7.8400 C.3       5 GLY6        0.0000 
     57 CA        -59.8200   23.2100   -9.4900 C.3       5 GLY6        0.0000 
     58 CA        -58.6200   22.8400  -10.3100 C.3       5 GLY6        0.0000 
     59 CA        -60.3500   23.8000   -5.0600 C.3       5 GLY6        0.0000 
     60 CA        -59.1500   23.4200   -5.8800 C.3       5 GLY6        0.0000 
     61 CA        -57.9500   23.0500   -6.7100 C.3       5 GLY6        0.0000 
     62 CA        -59.7400   24.1400   -7.0600 C.3       5 GLY6        0.0000 
     63 CA        -58.5400   23.7600   -7.8900 C.3       5 GLY6        0.0000 
     64 CA        -61.5200   25.2300   -7.4200 C.3       5 GLY6        0.0000 
     65 CA        -59.1300   24.4800   -9.0700 C.3       5 GLY6        0.0000 
     66 CA        -59.1100   25.5300  -12.2500 C.3       5 GLY6        0.0000 
     67 CA        -59.6900   26.2500  -13.4300 C.3       5 GLY6        0.0000 
     68 CA        -58.4600   24.6900   -5.4600 C.3       5 GLY6        0.0000 
     69 CA        -57.2600   24.3100   -6.2800 C.3       5 GLY6        0.0000 
     70 CA        -59.0500   25.4000   -6.6400 C.3       5 GLY6        0.0000 
     71 CA        -57.8500   25.0200   -7.4700 C.3       5 GLY6        0.0000 
     72 CA        -57.8300   26.0800  -10.6500 C.3       5 GLY6        0.0000 
     73 CA        -57.2200   26.4200  -12.6500 C.3       5 GLY6        0.0000 
     74 CA        -55.9400   26.9600  -11.0500 C.3       5 GLY6        0.0000 
     75 DU        -61.2000   20.6900  -10.3400 H         6 CUB7        0.0000 
     76 DU        -62.9000   22.7100   -8.2700 H         6 CUB7        0.0000 
     77 DU        -61.7000   22.3300   -9.0900 H         6 CUB7        0.0000 
     78 DU        -61.0100   23.5900   -8.6700 H         6 CUB7        0.0000 
     79 DU        -59.8000   24.2700  -12.6800 H         6 CUB7        0.0000 
@<TRIPOS>BOND
@<TRIPOS>SUBSTRUCTURE
     1 SER1        1 GROUP   
     2 ALA2        3 GROUP   
     3 ASP3       23 GROUP   
     4 LYS4       31 GROUP   
     5 GLY6       49 GROUP   
     6 CUB7       75 GROUP   
@<TRIPOS>SET

