#    Name: 6mzg_3_GTP
#    Modification time : Fri May 22 19:36:39 2020

@<TRIPOS>MOLECULE
6mzg_3_GTP
   32    34     1     0     1
SMALL
NO_CHARGES


@<TRIPOS>ATOM
      1 PG          2.5790  -52.5610  -54.8520 P.3       1 GTP600      0.0000 
      2 O1G         1.6560  -52.7600  -56.0310 O.co2     1 GTP600      0.0000 
      3 O2G         3.9830  -52.2760  -55.3260 O.co2     1 GTP600      0.0000 
      4 O3G         2.5990  -53.7990  -53.9880 O.co2     1 GTP600      0.0000 
      5 O3B         2.0540  -51.3200  -53.9740 O.3       1 GTP600      0.0000 
      6 PB          0.8610  -50.3780  -54.5040 P.3       1 GTP600      0.0000 
      7 O1B         1.1260  -50.0120  -55.9460 O.co2     1 GTP600      0.0000 
      8 O2B         0.7820  -49.1550  -53.6220 O.co2     1 GTP600      0.0000 
      9 O3A        -0.4880  -51.2580  -54.4030 O.3       1 GTP600      0.0000 
     10 PA         -1.9420  -50.5670  -54.2840 P.3       1 GTP600      0.0000 
     11 O1A        -2.7860  -51.0250  -55.4480 O.co2     1 GTP600      0.0000 
     12 O2A        -1.8590  -49.0600  -54.2320 O.co2     1 GTP600      0.0000 
     13 O5'        -2.5680  -51.1290  -52.9110 O.3       1 GTP600      0.0000 
     14 C5'        -3.6140  -52.0760  -52.8930 C.3       1 GTP600      0.0000 
     15 C4'        -4.8860  -51.4500  -52.3250 C.3       1 GTP600      0.0000 
     16 O4'        -5.0560  -50.1550  -52.8670 O.3       1 GTP600      0.0000 
     17 C3'        -6.1200  -52.2620  -52.6900 C.3       1 GTP600      0.0000 
     18 O3'        -6.8170  -52.6440  -51.5260 O.3       1 GTP600      0.0000 
     19 C2'        -6.9930  -51.3250  -53.4940 C.3       1 GTP600      0.0000 
     20 O2'        -8.3190  -51.3820  -53.0250 O.3       1 GTP600      0.0000 
     21 C1'        -6.3910  -49.9460  -53.2840 C.3       1 GTP600      0.0000 
     22 N9         -6.3790  -49.1790  -54.5410 N.pl3     1 GTP600      0.0000 
     23 C8         -5.5210  -49.3630  -55.5930 C.2       1 GTP600      0.0000 
     24 N7         -5.8180  -48.4560  -56.5510 N.2       1 GTP600      0.0000 
     25 C5         -6.8470  -47.6900  -56.1230 C.2       1 GTP600      0.0000 
     26 C6         -7.5340  -46.6270  -56.7020 C.2       1 GTP600      0.0000 
     27 O6         -7.2290  -46.2230  -57.8230 O.2       1 GTP600      0.0000 
     28 N1         -8.5640  -46.0230  -56.0130 N.am      1 GTP600      0.0000 
     29 C2         -8.9070  -46.4740  -54.7570 C.2       1 GTP600      0.0000 
     30 N2         -9.9000  -45.8870  -54.0970 N.pl3     1 GTP600      0.0000 
     31 N3         -8.2220  -47.5300  -54.1870 N.2       1 GTP600      0.0000 
     32 C4         -7.2070  -48.1310  -54.8570 C.2       1 GTP600      0.0000 
@<TRIPOS>BOND
     1    1    2 ar   
     2    1    3 ar   
     3    1    4 ar   
     4    1    5 1    
     5    5    6 1    
     6    6    7 ar   
     7    6    8 ar   
     8    6    9 1    
     9    9   10 1    
    10   10   11 ar   
    11   10   12 ar   
    12   10   13 1    
    13   13   14 1    
    14   14   15 1    
    15   15   16 1    
    16   15   17 1    
    17   16   21 1    
    18   17   18 1    
    19   17   19 1    
    20   19   20 1    
    21   19   21 1    
    22   21   22 1    
    23   22   23 1    
    24   22   32 1    
    25   23   24 2    
    26   24   25 1    
    27   25   26 1    
    28   25   32 2    
    29   26   27 2    
    30   26   28 am   
    31   28   29 1    
    32   29   30 1    
    33   29   31 2    
    34   31   32 1    
@<TRIPOS>SUBSTRUCTURE
     1 GTP600      1 GROUP   
@<TRIPOS>SET
ATOM$ORANGE STATIC     ATOMS   COLORGROUP SYSTEM 
20 14 14 15 15 17 17 19 19 21 21 23 23 25 25 26 26 29 \
29 32 32 

