#    Name: 6mzg_7_GTP
#    Modification time : Fri May 22 19:37:08 2020

@<TRIPOS>MOLECULE
6mzg_7_GTP
   32    34     1     0     1
SMALL
NO_CHARGES


@<TRIPOS>ATOM
      1 PG        -55.7300   23.3580  -19.7760 P.3       1 GTP600      0.0000 
      2 O1G       -55.8570   24.5490  -20.6930 O.co2     1 GTP600      0.0000 
      3 O2G       -54.3010   23.2430  -19.3010 O.co2     1 GTP600      0.0000 
      4 O3G       -56.6600   23.5190  -18.5970 O.co2     1 GTP600      0.0000 
      5 O3B       -56.1240   22.0250  -20.5850 O.3       1 GTP600      0.0000 
      6 PB        -57.2980   21.0560  -20.0600 P.3       1 GTP600      0.0000 
      7 O1B       -57.3580   19.8250  -20.9330 O.co2     1 GTP600      0.0000 
      8 O2B       -57.0320   20.6980  -18.6180 O.co2     1 GTP600      0.0000 
      9 O3A       -58.6520   21.9270  -20.1620 O.3       1 GTP600      0.0000 
     10 PA        -60.0950   21.2310  -20.3480 P.3       1 GTP600      0.0000 
     11 O1A       -59.9930   19.7360  -20.5250 O.co2     1 GTP600      0.0000 
     12 O2A       -60.9530   21.5770  -19.1550 O.co2     1 GTP600      0.0000 
     13 O5'       -60.7030   21.9020  -21.6810 O.3       1 GTP600      0.0000 
     14 C5'       -61.7760   22.8170  -21.6520 C.3       1 GTP600      0.0000 
     15 C4'       -62.9980   22.1920  -22.3150 C.3       1 GTP600      0.0000 
     16 O4'       -63.1690   20.8770  -21.8280 O.3       1 GTP600      0.0000 
     17 C3'       -64.2640   22.9680  -21.9940 C.3       1 GTP600      0.0000 
     18 O3'       -64.8660   23.4230  -23.1840 O.3       1 GTP600      0.0000 
     19 C2'       -65.1920   21.9760  -21.3310 C.3       1 GTP600      0.0000 
     20 O2'       -66.4470   21.9900  -21.9680 O.3       1 GTP600      0.0000 
     21 C1'       -64.5200   20.6240  -21.5010 C.3       1 GTP600      0.0000 
     22 N9        -64.5670   19.8680  -20.2400 N.pl3     1 GTP600      0.0000 
     23 C8        -63.7680   20.0680  -19.1460 C.2       1 GTP600      0.0000 
     24 N7        -64.1090   19.1640  -18.2000 N.2       1 GTP600      0.0000 
     25 C5        -65.1060   18.3850  -18.6770 C.2       1 GTP600      0.0000 
     26 C6        -65.8130   17.3190  -18.1300 C.2       1 GTP600      0.0000 
     27 O6        -65.5680   16.9220  -16.9910 O.2       1 GTP600      0.0000 
     28 N1        -66.7990   16.7020  -18.8720 N.am      1 GTP600      0.0000 
     29 C2        -67.0770   17.1450  -20.1480 C.2       1 GTP600      0.0000 
     30 N2        -68.0270   16.5490  -20.8610 N.pl3     1 GTP600      0.0000 
     31 N3        -66.3710   18.2030  -20.6840 N.2       1 GTP600      0.0000 
     32 C4        -65.4010   18.8150  -19.9620 C.2       1 GTP600      0.0000 
@<TRIPOS>BOND
     1    1    2 ar   
     2    1    3 ar   
     3    1    4 ar   
     4    1    5 1    
     5    5    6 1    
     6    6    7 ar   
     7    6    8 ar   
     8    6    9 1    
     9    9   10 1    
    10   10   11 ar   
    11   10   12 ar   
    12   10   13 1    
    13   13   14 1    
    14   14   15 1    
    15   15   16 1    
    16   15   17 1    
    17   16   21 1    
    18   17   18 1    
    19   17   19 1    
    20   19   20 1    
    21   19   21 1    
    22   21   22 1    
    23   22   23 1    
    24   22   32 1    
    25   23   24 2    
    26   24   25 1    
    27   25   26 1    
    28   25   32 2    
    29   26   27 2    
    30   26   28 am   
    31   28   29 1    
    32   29   30 1    
    33   29   31 2    
    34   31   32 1    
@<TRIPOS>SUBSTRUCTURE
     1 GTP600      1 GROUP   
@<TRIPOS>SET
ATOM$ORANGE STATIC     ATOMS   COLORGROUP SYSTEM 
20 14 14 15 15 17 17 19 19 21 21 23 23 25 25 26 26 29 \
29 32 32 

