#    Name: 6mzg_5_GTP_CAVITY_N1_6
#    Modification time : Fri May 22 19:36:58 2020

@<TRIPOS>MOLECULE
6mzg_5_GTP_CAVITY_N1_6
    9     0     4     0     0
SMALL
NO_CHARGES


@<TRIPOS>ATOM
      1 N         -57.7200  -47.9000  -61.2600 N.am      1 ALA2        0.0000 
      2 N         -59.5000  -46.8100  -61.6200 N.am      1 ALA2        0.0000 
      3 N         -58.8100  -45.5500  -61.2000 N.am      1 ALA2        0.0000 
      4 OD1       -57.0300  -46.6400  -60.8400 O.co2     2 ASP3        0.0000 
      5 OD1       -56.3400  -45.3800  -60.4200 O.co2     2 ASP3        0.0000 
      6 NZ        -55.9400  -49.0000  -60.9100 N.4       3 LYS4        0.0000 
      7 NZ        -56.4400  -47.3500  -59.6600 N.4       3 LYS4        0.0000 
      8 NZ        -55.6500  -44.1100  -60.0000 N.4       3 LYS4        0.0000 
      9 CA        -58.1200  -44.2800  -60.7700 C.3       4 GLY6        0.0000 
@<TRIPOS>BOND
@<TRIPOS>SUBSTRUCTURE
     1 ALA2        1 GROUP   
     2 ASP3        4 GROUP   
     3 LYS4        6 GROUP   
     4 GLY6        9 GROUP   
@<TRIPOS>SET

