#    Name: 6mzg_4_GDP
#    Modification time : Fri May 22 19:36:45 2020

@<TRIPOS>MOLECULE
6mzg_4_GDP
   28    30     1     0     1
SMALL
NO_CHARGES


@<TRIPOS>ATOM
      1 PB         11.8410  -87.3400  -69.9790 P.3       1 GDP600      0.0000 
      2 O1B        12.1810  -87.0670  -71.4260 O.co2     1 GDP600      0.0000 
      3 O2B        11.2940  -86.0970  -69.3180 O.co2     1 GDP600      0.0000 
      4 O3B        13.0920  -87.7740  -69.2600 O.co2     1 GDP600      0.0000 
      5 O3A        10.7780  -88.5440  -69.8770 O.3       1 GDP600      0.0000 
      6 PA          9.2150  -88.3340  -70.1900 P.3       1 GDP600      0.0000 
      7 O1A         8.7960  -89.2360  -71.3240 O.co2     1 GDP600      0.0000 
      8 O2A         8.9080  -86.8890  -70.5010 O.co2     1 GDP600      0.0000 
      9 O5'         8.4900  -88.7800  -68.8270 O.3       1 GDP600      0.0000 
     10 C5'         7.6050  -89.8930  -68.8130 C.3       1 GDP600      0.0000 
     11 C4'         6.3320  -89.5030  -68.0830 C.3       1 GDP600      0.0000 
     12 O4'         5.8450  -88.3070  -68.6890 O.3       1 GDP600      0.0000 
     13 C3'         5.2690  -90.5730  -68.2560 C.3       1 GDP600      0.0000 
     14 O3'         4.7380  -90.9370  -66.9780 O.3       1 GDP600      0.0000 
     15 C2'         4.1920  -89.9550  -69.1260 C.3       1 GDP600      0.0000 
     16 O2'         2.8890  -90.1970  -68.5860 O.3       1 GDP600      0.0000 
     17 C1'         4.4970  -88.4680  -69.1340 C.3       1 GDP600      0.0000 
     18 N9          4.3540  -87.9080  -70.4990 N.pl3     1 GDP600      0.0000 
     19 C8          5.2120  -88.0780  -71.5240 C.2       1 GDP600      0.0000 
     20 N7          4.7830  -87.4190  -72.6310 N.2       1 GDP600      0.0000 
     21 C5          3.6270  -86.8070  -72.3110 C.2       1 GDP600      0.0000 
     22 C6          2.6430  -85.9460  -73.0080 C.2       1 GDP600      0.0000 
     23 O6          2.8070  -85.6270  -74.2060 O.2       1 GDP600      0.0000 
     24 N1          1.5750  -85.5220  -72.3140 N.am      1 GDP600      0.0000 
     25 C2          1.3730  -85.8510  -71.0230 C.2       1 GDP600      0.0000 
     26 N2          0.2680  -85.3820  -70.3920 N.pl3     1 GDP600      0.0000 
     27 N3          2.2330  -86.6350  -70.3250 N.2       1 GDP600      0.0000 
     28 C4          3.3510  -87.1310  -70.9050 C.2       1 GDP600      0.0000 
@<TRIPOS>BOND
     1    1    2 ar   
     2    1    3 ar   
     3    1    4 ar   
     4    1    5 1    
     5    5    6 1    
     6    6    7 ar   
     7    6    8 ar   
     8    6    9 1    
     9    9   10 1    
    10   10   11 1    
    11   11   12 1    
    12   11   13 1    
    13   12   17 1    
    14   13   14 1    
    15   13   15 1    
    16   15   16 1    
    17   15   17 1    
    18   17   18 1    
    19   18   19 1    
    20   18   28 1    
    21   19   20 2    
    22   20   21 1    
    23   21   22 1    
    24   21   28 2    
    25   22   23 2    
    26   22   24 am   
    27   24   25 1    
    28   25   26 1    
    29   25   27 2    
    30   27   28 1    
@<TRIPOS>SUBSTRUCTURE
     1 GDP600      1 GROUP   
@<TRIPOS>SET
ATOM$ORANGE STATIC     ATOMS   COLORGROUP SYSTEM 
20 10 10 11 11 13 13 15 15 17 17 19 19 21 21 22 22 25 \
25 28 28 

