#    Name: 6mzg_2_GDP
#    Modification time : Fri May 22 19:36:28 2020

@<TRIPOS>MOLECULE
6mzg_2_GDP
   28    30     1     0     1
SMALL
NO_CHARGES


@<TRIPOS>ATOM
      1 PB         -3.1760  -14.5560  -32.7010 P.3       1 GDP600      0.0000 
      2 O1B        -3.0120  -13.7510  -33.9670 O.co2     1 GDP600      0.0000 
      3 O2B        -3.0390  -13.6690  -31.4850 O.co2     1 GDP600      0.0000 
      4 O3B        -2.1130  -15.6260  -32.6590 O.co2     1 GDP600      0.0000 
      5 O3A        -4.6130  -15.2790  -32.7150 O.3       1 GDP600      0.0000 
      6 PA         -5.9720  -14.4630  -32.4400 P.3       1 GDP600      0.0000 
      7 O1A        -6.9660  -14.6780  -33.5570 O.co2     1 GDP600      0.0000 
      8 O2A        -5.6770  -12.9940  -32.2530 O.co2     1 GDP600      0.0000 
      9 O5'        -6.5330  -15.1220  -31.0840 O.3       1 GDP600      0.0000 
     10 C5'        -7.8060  -15.7620  -31.0680 C.3       1 GDP600      0.0000 
     11 C4'        -8.6470  -15.1900  -29.9380 C.3       1 GDP600      0.0000 
     12 O4'        -8.6980  -13.7760  -30.1210 O.3       1 GDP600      0.0000 
     13 C3'       -10.0700  -15.7120  -30.0140 C.3       1 GDP600      0.0000 
     14 O3'       -10.5460  -16.0390  -28.7060 O.3       1 GDP600      0.0000 
     15 C2'       -10.8860  -14.5660  -30.5690 C.3       1 GDP600      0.0000 
     16 O2'       -12.1410  -14.4750  -29.8910 O.3       1 GDP600      0.0000 
     17 C1'       -10.0410  -13.3310  -30.3080 C.3       1 GDP600      0.0000 
     18 N9        -10.1050  -12.3940  -31.4560 N.pl3     1 GDP600      0.0000 
     19 C8         -9.4900  -12.5470  -32.6440 C.2       1 GDP600      0.0000 
     20 N7         -9.7550  -11.5010  -33.4680 N.2       1 GDP600      0.0000 
     21 C5        -10.5560  -10.6510  -32.7970 C.2       1 GDP600      0.0000 
     22 C6        -11.2110   -9.3500  -33.0740 C.2       1 GDP600      0.0000 
     23 O6        -11.0680   -8.7810  -34.1780 O.2       1 GDP600      0.0000 
     24 N1        -11.9600   -8.8040  -32.1040 N.am      1 GDP600      0.0000 
     25 C2        -12.1320   -9.3950  -30.9060 C.2       1 GDP600      0.0000 
     26 N2        -12.9040   -8.7800  -29.9780 N.pl3     1 GDP600      0.0000 
     27 N3        -11.5620  -10.5840  -30.5860 N.2       1 GDP600      0.0000 
     28 C4        -10.7810  -11.2450  -31.4730 C.2       1 GDP600      0.0000 
@<TRIPOS>BOND
     1    1    2 ar   
     2    1    3 ar   
     3    1    4 ar   
     4    1    5 1    
     5    5    6 1    
     6    6    7 ar   
     7    6    8 ar   
     8    6    9 1    
     9    9   10 1    
    10   10   11 1    
    11   11   12 1    
    12   11   13 1    
    13   12   17 1    
    14   13   14 1    
    15   13   15 1    
    16   15   16 1    
    17   15   17 1    
    18   17   18 1    
    19   18   19 1    
    20   18   28 1    
    21   19   20 2    
    22   20   21 1    
    23   21   22 1    
    24   21   28 2    
    25   22   23 2    
    26   22   24 am   
    27   24   25 1    
    28   25   26 1    
    29   25   27 2    
    30   27   28 1    
@<TRIPOS>SUBSTRUCTURE
     1 GDP600      1 GROUP   
@<TRIPOS>SET
ATOM$ORANGE STATIC     ATOMS   COLORGROUP SYSTEM 
20 10 10 11 11 13 13 15 15 17 17 19 19 21 21 22 22 25 \
25 28 28 

