#    Name: 6mzg_3_GTP_CAVITY_N1_ALL
#    Modification time : Fri May 22 19:36:41 2020

@<TRIPOS>MOLECULE
6mzg_3_GTP_CAVITY_N1_ALL
   78     0     7     0     0
SMALL
NO_CHARGES


@<TRIPOS>ATOM
      1 OG         -3.3500  -53.4700  -53.5400 O.3       1 SER1        0.0000 
      2 OG         -6.3300  -52.0000  -53.0800 O.3       1 SER1        0.0000 
      3 OG         -5.1300  -52.3700  -53.9000 O.3       1 SER1        0.0000 
      4 OG         -3.9400  -52.7500  -54.7200 O.3       1 SER1        0.0000 
      5 OG         -2.7400  -53.1300  -55.5500 O.3       1 SER1        0.0000 
      6 OG         -6.9200  -51.2800  -54.2600 O.3       1 SER1        0.0000 
      7 OG         -5.7200  -51.6600  -55.0800 O.3       1 SER1        0.0000 
      8 OG         -4.5200  -52.0400  -55.9000 O.3       1 SER1        0.0000 
      9 OG         -6.2300  -50.0200  -53.8300 O.3       1 SER1        0.0000 
     10 OG         -5.0300  -50.4000  -54.6600 O.3       1 SER1        0.0000 
     11 OG         -6.8100  -49.3000  -55.0200 O.3       1 SER1        0.0000 
     12 OG         -3.7500  -49.8500  -53.0500 O.3       1 SER1        0.0000 
     13 OG         -2.5600  -50.2300  -53.8800 O.3       1 SER1        0.0000 
     14 O          -2.1600  -53.8500  -54.3700 O.2       2 ALA2        0.0000 
     15 O          -8.7200  -51.2400  -51.4300 O.2       2 ALA2        0.0000 
     16 O          -7.5200  -51.6200  -52.2500 O.2       2 ALA2        0.0000 
     17 O          -8.1100  -50.9000  -53.4300 O.2       2 ALA2        0.0000 
     18 N          -3.3300  -52.4100  -56.7300 N.am      2 ALA2        0.0000 
     19 O           0.3200  -53.6800  -53.5900 O.2       2 ALA2        0.0000 
     20 O           1.5100  -54.0500  -54.4100 O.2       2 ALA2        0.0000 
     21 O          -3.8600  -51.8300  -52.3000 O.2       2 ALA2        0.0000 
     22 O          -0.2700  -52.9600  -54.7700 O.2       2 ALA2        0.0000 
     23 O          -8.0300  -49.9800  -51.0100 O.2       2 ALA2        0.0000 
     24 O          -6.8300  -50.3600  -51.8300 O.2       2 ALA2        0.0000 
     25 O          -7.4200  -49.6400  -53.0100 O.2       2 ALA2        0.0000 
     26 O          -3.8300  -50.7700  -55.4800 O.2       2 ALA2        0.0000 
     27 N          -2.6400  -51.1500  -56.3000 N.am      2 ALA2        0.0000 
     28 O          -8.0100  -48.9300  -54.1900 O.2       2 ALA2        0.0000 
     29 O          -5.6200  -49.6800  -55.8400 O.2       2 ALA2        0.0000 
     30 O          -9.7900  -47.8300  -54.5500 O.2       2 ALA2        0.0000 
     31 O          -6.2000  -48.9700  -57.0200 O.2       2 ALA2        0.0000 
     32 O           2.2000  -52.7900  -53.9900 O.2       2 ALA2        0.0000 
     33 O          -3.1400  -49.5100  -55.0600 O.2       2 ALA2        0.0000 
     34 N          -9.1000  -46.5700  -54.1300 N.am      2 ALA2        0.0000 
     35 N          -7.9000  -46.9500  -54.9500 N.am      2 ALA2        0.0000 
     36 N          -8.4900  -46.2300  -56.1300 N.am      2 ALA2        0.0000 
     37 O          -7.3000  -46.6100  -56.9500 O.2       2 ALA2        0.0000 
     38 O           1.1100  -50.4300  -53.9200 O.2       2 ALA2        0.0000 
     39 O          -0.6700  -49.3400  -54.2800 O.2       2 ALA2        0.0000 
     40 O           0.5200  -49.7200  -55.1000 O.2       2 ALA2        0.0000 
     41 OD1        -1.5500  -53.5100  -56.3700 O.co2     3 ASP3        0.0000 
     42 OD1         0.9300  -53.3400  -55.5900 O.co2     3 ASP3        0.0000 
     43 OD1        -0.8600  -52.2500  -55.9500 O.co2     3 ASP3        0.0000 
     44 OD1         1.6200  -52.0800  -55.1700 O.co2     3 ASP3        0.0000 
     45 OD1        -0.1700  -50.9800  -55.5200 O.co2     3 ASP3        0.0000 
     46 NZ         -7.6300  -53.6000  -51.5000 N.4       4 LYS4        0.0000 
     47 NZ         -6.9400  -52.3300  -51.0700 N.4       4 LYS4        0.0000 
     48 NZ         -5.7400  -52.7100  -51.9000 N.4       4 LYS4        0.0000 
     49 CZ         -8.6000  -48.2100  -55.3700 C.ar      5 PHE5        0.0000 
     50 CZ         -7.4000  -48.5900  -56.2000 C.ar      5 PHE5        0.0000 
     51 CA         -8.1300  -51.9600  -50.2500 C.3       6 GLY6        0.0000 
     52 CA         -7.4400  -50.6900  -49.8300 C.3       6 GLY6        0.0000 
     53 CA         -5.0500  -51.4500  -51.4700 C.3       6 GLY6        0.0000 
     54 CA         -2.6600  -52.2100  -53.1200 C.3       6 GLY6        0.0000 
     55 CA         -1.4700  -52.5800  -53.9400 C.3       6 GLY6        0.0000 
     56 CA         -5.6400  -50.7300  -52.6500 C.3       6 GLY6        0.0000 
     57 CA         -1.9700  -50.9400  -52.7000 C.3       6 GLY6        0.0000 
     58 CA         -0.7800  -51.3200  -53.5200 C.3       6 GLY6        0.0000 
     59 CA          0.4200  -51.7000  -54.3400 C.3       6 GLY6        0.0000 
     60 CA         -6.1400  -49.0900  -51.4100 C.3       6 GLY6        0.0000 
     61 CA         -4.9500  -49.4700  -52.2300 C.3       6 GLY6        0.0000 
     62 CA         -1.3600  -50.6000  -54.7000 C.3       6 GLY6        0.0000 
     63 CA         -6.7300  -48.3800  -52.5900 C.3       6 GLY6        0.0000 
     64 CA         -5.5400  -48.7600  -53.4100 C.3       6 GLY6        0.0000 
     65 CA         -4.3400  -49.1300  -54.2400 C.3       6 GLY6        0.0000 
     66 CA         -8.5100  -47.2800  -52.9500 C.3       6 GLY6        0.0000 
     67 CA         -7.3200  -47.6600  -53.7700 C.3       6 GLY6        0.0000 
     68 CA         -6.1200  -48.0400  -54.5900 C.3       6 GLY6        0.0000 
     69 CA         -4.9300  -48.4200  -55.4200 C.3       6 GLY6        0.0000 
     70 CA         -3.7300  -48.8000  -56.2400 C.3       6 GLY6        0.0000 
     71 CA         -6.7100  -47.3200  -55.7700 C.3       6 GLY6        0.0000 
     72 CA         -5.5100  -47.7000  -56.6000 C.3       6 GLY6        0.0000 
     73 CA         -0.0900  -50.0600  -53.1000 C.3       6 GLY6        0.0000 
     74 CA         -7.2100  -45.6800  -54.5300 C.3       6 GLY6        0.0000 
     75 DU         -6.2500  -51.0700  -50.6500 H         7 CUB7        0.0000 
     76 DU         -4.4400  -51.1100  -53.4800 H         7 CUB7        0.0000 
     77 DU         -3.2500  -51.4900  -54.3000 H         7 CUB7        0.0000 
     78 DU         -2.0500  -51.8700  -55.1200 H         7 CUB7        0.0000 
@<TRIPOS>BOND
@<TRIPOS>SUBSTRUCTURE
     1 SER1        1 GROUP   
     2 ALA2       14 GROUP   
     3 ASP3       41 GROUP   
     4 LYS4       46 GROUP   
     5 PHE5       49 GROUP   
     6 GLY6       51 GROUP   
     7 CUB7       75 GROUP   
@<TRIPOS>SET

