#    Name: 6mzg_1_GTP
#    Modification time : Fri May 22 19:36:23 2020

@<TRIPOS>MOLECULE
6mzg_1_GTP
   32    34     1     0     1
SMALL
NO_CHARGES


@<TRIPOS>ATOM
      1 PG          4.1690   15.6220   -8.9160 P.3       1 GTP600      0.0000 
      2 O1G         3.3610   16.1990  -10.0560 O.co2     1 GTP600      0.0000 
      3 O2G         5.4690   15.0520   -9.4300 O.co2     1 GTP600      0.0000 
      4 O3G         3.3850   14.5300   -8.2320 O.co2     1 GTP600      0.0000 
      5 O3B         4.4890   16.7820   -7.8490 O.3       1 GTP600      0.0000 
      6 PB          3.6590   18.1600   -7.8440 P.3       1 GTP600      0.0000 
      7 O1B         3.8160   18.8480   -9.1800 O.co2     1 GTP600      0.0000 
      8 O2B         4.1460   19.0170   -6.7000 O.co2     1 GTP600      0.0000 
      9 O3A         2.1200   17.7280   -7.6450 O.3       1 GTP600      0.0000 
     10 PA          1.0130   18.7580   -7.0850 P.3       1 GTP600      0.0000 
     11 O1A        -0.0440   18.9730   -8.1420 O.co2     1 GTP600      0.0000 
     12 O2A         1.6300   20.0620   -6.6420 O.co2     1 GTP600      0.0000 
     13 O5'         0.3490   17.9950   -5.8340 O.3       1 GTP600      0.0000 
     14 C5'        -1.0350   17.7310   -5.7710 C.3       1 GTP600      0.0000 
     15 C4'        -1.6930   18.5910   -4.6970 C.3       1 GTP600      0.0000 
     16 O4'        -1.3600   19.9450   -4.9190 O.3       1 GTP600      0.0000 
     17 C3'        -3.2070   18.4830   -4.7390 C.3       1 GTP600      0.0000 
     18 O3'        -3.6860   18.2050   -3.4430 O.3       1 GTP600      0.0000 
     19 C2'        -3.6850   19.8520   -5.1740 C.3       1 GTP600      0.0000 
     20 O2'        -4.8320   20.2400   -4.4530 O.3       1 GTP600      0.0000 
     21 C1'        -2.5050   20.7710   -4.8960 C.3       1 GTP600      0.0000 
     22 N9         -2.3550   21.7950   -5.9450 N.pl3     1 GTP600      0.0000 
     23 C8         -1.7070   21.6390   -7.1420 C.2       1 GTP600      0.0000 
     24 N7         -1.7670   22.8050   -7.8230 N.2       1 GTP600      0.0000 
     25 C5         -2.4340   23.7090   -7.0720 C.2       1 GTP600      0.0000 
     26 C6         -2.7700   25.0400   -7.2900 C.2       1 GTP600      0.0000 
     27 O6         -2.4470   25.5990   -8.3370 O.2       1 GTP600      0.0000 
     28 N1         -3.4710   25.7320   -6.3230 N.am      1 GTP600      0.0000 
     29 C2         -3.8310   25.1000   -5.1510 C.2       1 GTP600      0.0000 
     30 N2         -4.5060   25.7700   -4.2210 N.pl3     1 GTP600      0.0000 
     31 N3         -3.4920   23.7780   -4.9420 N.2       1 GTP600      0.0000 
     32 C4         -2.8050   23.0900   -5.8860 C.2       1 GTP600      0.0000 
@<TRIPOS>BOND
     1    1    2 ar   
     2    1    3 ar   
     3    1    4 ar   
     4    1    5 1    
     5    5    6 1    
     6    6    7 ar   
     7    6    8 ar   
     8    6    9 1    
     9    9   10 1    
    10   10   11 ar   
    11   10   12 ar   
    12   10   13 1    
    13   13   14 1    
    14   14   15 1    
    15   15   16 1    
    16   15   17 1    
    17   16   21 1    
    18   17   18 1    
    19   17   19 1    
    20   19   20 1    
    21   19   21 1    
    22   21   22 1    
    23   22   23 1    
    24   22   32 1    
    25   23   24 2    
    26   24   25 1    
    27   25   26 1    
    28   25   32 2    
    29   26   27 2    
    30   26   28 am   
    31   28   29 1    
    32   29   30 1    
    33   29   31 2    
    34   31   32 1    
@<TRIPOS>SUBSTRUCTURE
     1 GTP600      1 GROUP   
@<TRIPOS>SET
ATOM$ORANGE STATIC     ATOMS   COLORGROUP SYSTEM 
20 14 14 15 15 17 17 19 19 21 21 23 23 25 25 26 26 29 \
29 32 32 

