#    Name: 6mzg_2_GDP_CAVITY_N1_6
#    Modification time : Fri May 22 19:36:29 2020

@<TRIPOS>MOLECULE
6mzg_2_GDP_CAVITY_N1_6
   94     0     7     0     0
SMALL
NO_CHARGES


@<TRIPOS>ATOM
      1 OG        -11.3700  -15.8100  -30.5400 O.3       1 SER1        0.0000 
      2 OG        -10.6800  -14.5500  -30.1200 O.3       1 SER1        0.0000 
      3 OG        -12.4600  -13.4500  -30.4800 O.3       1 SER1        0.0000 
      4 OG        -11.2700  -13.8300  -31.3000 O.3       1 SER1        0.0000 
      5 OG        -10.0700  -14.2100  -32.1200 O.3       1 SER1        0.0000 
      6 OG        -10.6600  -13.4900  -33.3000 O.3       1 SER1        0.0000 
      7 OG         -7.0100  -14.7500  -30.1600 O.3       1 SER1        0.0000 
      8 OG         -1.0300  -16.6400  -34.2800 O.3       1 SER1        0.0000 
      9 OG         -8.7900  -13.6600  -30.5200 O.3       1 SER1        0.0000 
     10 OG         -7.6000  -14.0400  -31.3400 O.3       1 SER1        0.0000 
     11 OG         -6.4000  -14.4200  -32.1700 O.3       1 SER1        0.0000 
     12 OG         -2.8200  -15.5500  -34.6400 O.3       1 SER1        0.0000 
     13 OG         -1.6200  -15.9300  -35.4600 O.3       1 SER1        0.0000 
     14 OG        -10.5800  -12.5700  -30.8800 O.3       1 SER1        0.0000 
     15 OG         -3.9300  -14.2500  -31.3900 O.3       1 SER1        0.0000 
     16 OG         -2.1300  -14.2900  -34.2100 O.3       1 SER1        0.0000 
     17 N          -7.8000  -18.0000  -29.8300 N.am      2 ALA2        0.0000 
     18 N         -11.9800  -16.1500  -28.5400 N.am      2 ALA2        0.0000 
     19 N          -3.0000  -18.4500  -36.3100 N.am      2 ALA2        0.0000 
     20 O          -1.8000  -18.8300  -37.1300 O.2       2 ALA2        0.0000 
     21 N          -5.3700  -16.6400  -37.8400 N.am      2 ALA2        0.0000 
     22 O          -1.7200  -17.9100  -34.7000 O.2       2 ALA2        0.0000 
     23 N         -11.8700  -14.1700  -29.3000 N.am      2 ALA2        0.0000 
     24 N          -4.7000  -16.4400  -34.2400 N.am      2 ALA2        0.0000 
     25 N          -3.5100  -16.8100  -35.0600 N.am      2 ALA2        0.0000 
     26 O          -1.1100  -17.5700  -36.7100 O.2       2 ALA2        0.0000 
     27 N          -4.0900  -16.1000  -36.2400 N.am      2 ALA2        0.0000 
     28 O          -9.4600  -13.8700  -34.1300 O.2       2 ALA2        0.0000 
     29 N          -4.6800  -15.3800  -37.4200 N.am      2 ALA2        0.0000 
     30 O          -8.8200  -14.7100  -27.3400 O.2       2 ALA2        0.0000 
     31 O          -7.6200  -15.0900  -28.1600 O.2       2 ALA2        0.0000 
     32 O         -10.6000  -13.6200  -27.6900 O.2       2 ALA2        0.0000 
     33 O          -3.4200  -15.8900  -32.6300 O.2       2 ALA2        0.0000 
     34 O          -2.2300  -16.2700  -33.4600 O.2       2 ALA2        0.0000 
     35 O         -11.1800  -12.9100  -28.8700 O.2       2 ALA2        0.0000 
     36 O         -11.7700  -12.1900  -30.0600 O.2       2 ALA2        0.0000 
     37 O          -2.7300  -14.6200  -32.2100 O.2       2 ALA2        0.0000 
     38 O          -4.5200  -13.5300  -32.5700 O.2       2 ALA2        0.0000 
     39 O          -3.3200  -13.9100  -33.3900 O.2       2 ALA2        0.0000 
     40 O         -11.0800  -10.9300  -29.6300 O.2       2 ALA2        0.0000 
     41 N          -9.8900  -11.3000  -30.4600 N.am      2 ALA2        0.0000 
     42 O          -2.7100  -13.5700  -35.4000 O.2       2 ALA2        0.0000 
     43 N         -11.6700  -10.2100  -30.8100 N.am      2 ALA2        0.0000 
     44 N         -10.4700  -10.5900  -31.6400 N.am      2 ALA2        0.0000 
     45 N         -12.2500   -9.5000  -31.9900 N.am      2 ALA2        0.0000 
     46 N         -11.0600   -9.8700  -32.8200 N.am      2 ALA2        0.0000 
     47 OD1        -4.7800  -17.3600  -36.6600 O.co2     3 ASP3        0.0000 
     48 OD1        -8.2900  -15.3000  -31.7700 O.co2     3 ASP3        0.0000 
     49 OD1        -7.0900  -15.6800  -32.5900 O.co2     3 ASP3        0.0000 
     50 OD1        -8.8700  -14.5900  -32.9500 O.co2     3 ASP3        0.0000 
     51 OD1        -5.2100  -14.7900  -32.9900 O.co2     3 ASP3        0.0000 
     52 NZ         -9.0000  -17.6200  -29.0100 N.4       4 LYS4        0.0000 
     53 NZ         -9.5900  -16.9000  -30.1900 N.4       4 LYS4        0.0000 
     54 NZ        -10.1700  -16.1900  -31.3700 N.4       4 LYS4        0.0000 
     55 NZ         -8.9800  -16.5600  -32.1900 N.4       4 LYS4        0.0000 
     56 CZ        -12.3600  -11.4700  -31.2400 C.ar      5 PHE5        0.0000 
     57 CZ        -11.1600  -11.8500  -32.0600 C.ar      5 PHE5        0.0000 
     58 CZ        -11.7500  -11.1400  -33.2400 C.ar      5 PHE5        0.0000 
     59 CZ        -10.5500  -11.5100  -34.0600 C.ar      5 PHE5        0.0000 
     60 CZ        -11.1400  -10.8000  -35.2400 C.ar      5 PHE5        0.0000 
     61 CZ        -11.6500   -9.1600  -34.0000 C.ar      5 PHE5        0.0000 
     62 CA         -3.6900  -19.7200  -36.7300 C.3       6 GLY6        0.0000 
     63 CA         -8.3900  -17.2800  -31.0100 C.3       6 GLY6        0.0000 
     64 CA         -9.5100  -15.9800  -27.7600 C.3       6 GLY6        0.0000 
     65 CA         -8.3100  -16.3500  -28.5800 C.3       6 GLY6        0.0000 
     66 CA        -11.2900  -14.8800  -28.1200 C.3       6 GLY6        0.0000 
     67 CA         -7.7000  -16.0200  -30.5900 C.3       6 GLY6        0.0000 
     68 CA         -6.5100  -16.4000  -31.4100 C.3       6 GLY6        0.0000 
     69 CA         -1.7000  -16.8500  -37.8900 C.3       6 GLY6        0.0000 
     70 CA         -3.4800  -15.7600  -38.2400 C.3       6 GLY6        0.0000 
     71 CA         -4.0700  -15.0400  -39.4200 C.3       6 GLY6        0.0000 
     72 CA         -9.4000  -14.0000  -28.5200 C.3       6 GLY6        0.0000 
     73 CA         -8.2100  -14.3800  -29.3400 C.3       6 GLY6        0.0000 
     74 CA         -5.8200  -15.1300  -30.9900 C.3       6 GLY6        0.0000 
     75 CA         -4.6200  -15.5100  -31.8100 C.3       6 GLY6        0.0000 
     76 CA         -9.9900  -13.2800  -29.7000 C.3       6 GLY6        0.0000 
     77 CA         -4.0100  -15.1700  -33.8100 C.3       6 GLY6        0.0000 
     78 CA         -9.3800  -12.9500  -31.7000 C.3       6 GLY6        0.0000 
     79 CA         -8.1800  -13.3200  -32.5200 C.3       6 GLY6        0.0000 
     80 CA         -6.9900  -13.7000  -33.3500 C.3       6 GLY6        0.0000 
     81 CA         -3.4000  -14.8300  -35.8200 C.3       6 GLY6        0.0000 
     82 CA         -2.2100  -15.2100  -36.6400 C.3       6 GLY6        0.0000 
     83 CA         -9.9700  -12.2300  -32.8800 C.3       6 GLY6        0.0000 
     84 CA         -3.9900  -14.1200  -37.0000 C.3       6 GLY6        0.0000 
     85 CA         -2.7900  -14.5000  -37.8200 C.3       6 GLY6        0.0000 
     86 CA         -3.3800  -13.7800  -39.0000 C.3       6 GLY6        0.0000 
     87 CA         -9.3000  -12.0200  -29.2800 C.3       6 GLY6        0.0000 
     88 CA         -9.8600  -10.2500  -33.6400 C.3       6 GLY6        0.0000 
     89 DU         -3.5900  -17.7400  -37.4900 H         7 CUB7        0.0000 
     90 DU        -10.0900  -15.2600  -28.9400 H         7 CUB7        0.0000 
     91 DU         -8.9000  -15.6400  -29.7600 H         7 CUB7        0.0000 
     92 DU         -9.4800  -14.9200  -30.9400 H         7 CUB7        0.0000 
     93 DU         -2.3100  -17.1900  -35.8800 H         7 CUB7        0.0000 
     94 DU         -2.9000  -16.4800  -37.0600 H         7 CUB7        0.0000 
@<TRIPOS>BOND
@<TRIPOS>SUBSTRUCTURE
     1 SER1        1 GROUP   
     2 ALA2       17 GROUP   
     3 ASP3       47 GROUP   
     4 LYS4       52 GROUP   
     5 PHE5       56 GROUP   
     6 GLY6       62 GROUP   
     7 CUB7       89 GROUP   
@<TRIPOS>SET

