#    Name: 6mzg_4_GDP_CAVITY_N1_12
#    Modification time : Fri May 22 19:36:46 2020

@<TRIPOS>MOLECULE
6mzg_4_GDP_CAVITY_N1_12
   98     0     7     0     0
SMALL
NO_CHARGES


@<TRIPOS>ATOM
      1 OG          4.2200  -89.6100  -69.6900 O.3       1 SER1        0.0000 
      2 OG          3.6300  -88.9000  -70.8700 O.3       1 SER1        0.0000 
      3 OG          4.8300  -89.2800  -71.6900 O.3       1 SER1        0.0000 
      4 OG          8.5800  -88.5600  -69.3100 O.3       1 SER1        0.0000 
      5 OG          6.8000  -87.4700  -69.6600 O.3       1 SER1        0.0000 
      6 OG          7.9900  -87.8400  -70.4900 O.3       1 SER1        0.0000 
      7 OG         10.4600  -87.6700  -69.7100 O.3       1 SER1        0.0000 
      8 OG         12.8600  -88.4300  -71.3500 O.3       1 SER1        0.0000 
      9 OG         14.0500  -88.8100  -72.1800 O.3       1 SER1        0.0000 
     10 N          12.5700  -93.3100  -72.2600 N.am      2 ALA2        0.0000 
     11 O           3.0300  -89.2400  -68.8600 O.2       2 ALA2        0.0000 
     12 O           4.8500  -88.2200  -74.8700 O.2       2 ALA2        0.0000 
     13 O           7.2800  -90.1600  -67.7300 O.2       2 ALA2        0.0000 
     14 N          13.2600  -92.0500  -71.8400 N.am      2 ALA2        0.0000 
     15 O          14.4500  -92.4300  -72.6700 O.2       2 ALA2        0.0000 
     16 O          15.6500  -92.8100  -73.4900 O.2       2 ALA2        0.0000 
     17 O           3.1100  -88.3100  -66.4400 O.2       2 ALA2        0.0000 
     18 O           4.3000  -88.6900  -67.2600 O.2       2 ALA2        0.0000 
     19 N          11.4800  -90.9600  -72.2000 N.am      2 ALA2        0.0000 
     20 N          12.6700  -91.3300  -73.0200 N.am      2 ALA2        0.0000 
     21 O           3.7200  -87.9700  -68.4400 O.2       2 ALA2        0.0000 
     22 N          12.0800  -90.6200  -74.2000 N.am      2 ALA2        0.0000 
     23 O           3.1300  -87.2600  -69.6200 O.2       2 ALA2        0.0000 
     24 O           6.7200  -88.3900  -72.0900 O.2       2 ALA2        0.0000 
     25 N          11.5000  -89.9000  -75.3800 N.am      2 ALA2        0.0000 
     26 N           1.3500  -86.1600  -69.9800 N.am      2 ALA2        0.0000 
     27 N           2.5400  -86.5400  -70.8000 N.am      2 ALA2        0.0000 
     28 O           6.1300  -87.6800  -73.2700 O.2       2 ALA2        0.0000 
     29 N           0.7600  -85.4500  -71.1600 N.am      2 ALA2        0.0000 
     30 N           1.9500  -85.8300  -71.9800 N.am      2 ALA2        0.0000 
     31 N           3.1500  -86.2000  -72.8100 N.am      2 ALA2        0.0000 
     32 O           4.3500  -86.5800  -73.6300 O.2       2 ALA2        0.0000 
     33 O           5.5400  -86.9600  -74.4500 O.2       2 ALA2        0.0000 
     34 O           2.5600  -85.4900  -73.9900 O.2       2 ALA2        0.0000 
     35 O           3.7600  -85.8700  -74.8100 O.2       2 ALA2        0.0000 
     36 N          13.9500  -90.7900  -71.4200 N.am      2 ALA2        0.0000 
     37 O          15.1400  -91.1600  -72.2400 O.2       2 ALA2        0.0000 
     38 O          16.3400  -91.5400  -73.0700 O.2       2 ALA2        0.0000 
     39 N          10.9700  -89.3200  -70.9500 N.am      2 ALA2        0.0000 
     40 N          12.1700  -89.6900  -71.7800 N.am      2 ALA2        0.0000 
     41 N          13.3600  -90.0700  -72.6000 N.am      2 ALA2        0.0000 
     42 N          11.5800  -88.9800  -72.9600 N.am      2 ALA2        0.0000 
     43 N          12.7700  -89.3600  -73.7800 N.am      2 ALA2        0.0000 
     44 N           2.0400  -84.9000  -69.5600 N.am      2 ALA2        0.0000 
     45 N           2.6400  -84.5600  -71.5600 N.am      2 ALA2        0.0000 
     46 N           3.8400  -84.9400  -72.3800 N.am      2 ALA2        0.0000 
     47 O          12.2500  -88.7700  -69.3500 O.2       2 ALA2        0.0000 
     48 N          13.4400  -89.1500  -70.1700 N.am      2 ALA2        0.0000 
     49 O          11.6600  -88.0500  -70.5300 O.2       2 ALA2        0.0000 
     50 O           9.8800  -86.9600  -70.8900 O.2       2 ALA2        0.0000 
     51 OD1         6.0000  -90.7100  -69.3300 O.co2     3 ASP3        0.0000 
     52 OD1        10.7900  -92.2200  -72.6200 O.co2     3 ASP3        0.0000 
     53 OD1         5.4200  -89.9900  -70.5100 O.co2     3 ASP3        0.0000 
     54 OD1         6.0300  -89.6500  -72.5100 O.co2     3 ASP3        0.0000 
     55 OD1         6.6900  -89.4400  -68.9100 O.co2     3 ASP3        0.0000 
     56 OD1         7.8900  -89.8200  -69.7300 O.co2     3 ASP3        0.0000 
     57 OD1         6.1100  -88.7300  -70.0900 O.co2     3 ASP3        0.0000 
     58 OD1         7.3000  -89.1100  -70.9100 O.co2     3 ASP3        0.0000 
     59 OD1         9.7700  -88.9400  -70.1300 O.co2     3 ASP3        0.0000 
     60 NZ          4.2000  -90.6700  -66.5000 N.4       4 LYS4        0.0000 
     61 NZ          6.5900  -91.4200  -68.1500 N.4       4 LYS4        0.0000 
     62 NZ          4.8100  -90.3300  -68.5100 N.4       4 LYS4        0.0000 
     63 NZ          6.0800  -89.7800  -66.9000 N.4       4 LYS4        0.0000 
     64 NZ         14.4800  -91.3700  -75.8500 N.4       4 LYS4        0.0000 
     65 NZ         15.7500  -90.8300  -74.2500 N.4       4 LYS4        0.0000 
     66 NZ         13.4600  -88.0900  -73.3600 N.4       4 LYS4        0.0000 
     67 NZ         12.8800  -87.3800  -74.5400 N.4       4 LYS4        0.0000 
     68 CZ          2.4400  -88.5200  -70.0400 C.ar      5 PHE5        0.0000 
     69 CZ          1.8500  -87.8100  -71.2200 C.ar      5 PHE5        0.0000 
     70 CZ          3.0500  -88.1800  -72.0500 C.ar      5 PHE5        0.0000 
     71 CZ          4.2400  -88.5600  -72.8700 C.ar      5 PHE5        0.0000 
     72 CZ          2.4600  -87.4700  -73.2300 C.ar      5 PHE5        0.0000 
     73 CZ          3.6600  -87.8500  -74.0500 C.ar      5 PHE5        0.0000 
     74 CZ          3.0700  -87.1300  -75.2300 C.ar      5 PHE5        0.0000 
     75 CA          4.8900  -89.4000  -66.0800 C.3       6 GLY6        0.0000 
     76 CA          5.5000  -89.0700  -68.0800 C.3       6 GLY6        0.0000 
     77 CA          4.9100  -88.3500  -69.2600 C.3       6 GLY6        0.0000 
     78 CA          4.3200  -87.6400  -70.4400 C.3       6 GLY6        0.0000 
     79 CA          5.5200  -88.0100  -71.2700 C.3       6 GLY6        0.0000 
     80 CA         12.6900  -90.2800  -76.2100 C.3       6 GLY6        0.0000 
     81 CA          3.7400  -86.9200  -71.6200 C.3       6 GLY6        0.0000 
     82 CA          4.9300  -87.3000  -72.4500 C.3       6 GLY6        0.0000 
     83 CA          4.9900  -87.4300  -66.8400 C.3       6 GLY6        0.0000 
     84 CA         14.5600  -90.4500  -73.4200 C.3       6 GLY6        0.0000 
     85 CA          4.4100  -86.7100  -68.0200 C.3       6 GLY6        0.0000 
     86 CA          5.6000  -87.0900  -68.8400 C.3       6 GLY6        0.0000 
     87 CA          9.1900  -88.2200  -71.3100 C.3       6 GLY6        0.0000 
     88 CA         13.9700  -89.7300  -74.6000 C.3       6 GLY6        0.0000 
     89 CA         12.1900  -88.6400  -74.9600 C.3       6 GLY6        0.0000 
     90 CA         13.3800  -89.0200  -75.7800 C.3       6 GLY6        0.0000 
     91 CA         14.6400  -89.5200  -71.0000 C.3       6 GLY6        0.0000 
     92 CA         15.2500  -89.1900  -73.0000 C.3       6 GLY6        0.0000 
     93 CA         12.2700  -87.7100  -72.5300 C.3       6 GLY6        0.0000 
     94 CA         14.6600  -88.4700  -74.1800 C.3       6 GLY6        0.0000 
     95 DU          3.6100  -89.9500  -67.6800 H         7 CUB7        0.0000 
     96 DU         13.8700  -91.7100  -73.8500 H         7 CUB7        0.0000 
     97 DU         13.2800  -91.0000  -75.0300 H         7 CUB7        0.0000 
     98 DU         12.1100  -89.5700  -77.3900 H         7 CUB7        0.0000 
@<TRIPOS>BOND
@<TRIPOS>SUBSTRUCTURE
     1 SER1        1 GROUP   
     2 ALA2       10 GROUP   
     3 ASP3       51 GROUP   
     4 LYS4       60 GROUP   
     5 PHE5       68 GROUP   
     6 GLY6       75 GROUP   
     7 CUB7       95 GROUP   
@<TRIPOS>SET

