#    Name: 6mzg_1_GTP_CAVITY_N1_4
#    Modification time : Fri May 22 19:36:24 2020

@<TRIPOS>MOLECULE
6mzg_1_GTP_CAVITY_N1_4
   75     0     7     0     0
SMALL
NO_CHARGES


@<TRIPOS>ATOM
      1 OG         -1.2500   16.8500   -6.2400 O.3       1 SER1        0.0000 
      2 OG         -3.0400   17.9500   -6.6000 O.3       1 SER1        0.0000 
      3 OG         -1.8400   17.5700   -7.4200 O.3       1 SER1        0.0000 
      4 OG         -0.6400   17.1900   -8.2500 O.3       1 SER1        0.0000 
      5 OG         -2.4300   18.2800   -8.6100 O.3       1 SER1        0.0000 
      6 OG          4.8100   15.8900   -7.9300 O.3       1 SER1        0.0000 
      7 OG         -3.5400   19.5900   -5.3600 O.3       1 SER1        0.0000 
      8 OG         -2.3500   19.2100   -6.1800 O.3       1 SER1        0.0000 
      9 OG          0.1300   19.3800   -5.4000 O.3       1 SER1        0.0000 
     10 OG          1.3200   19.0000   -6.2200 O.3       1 SER1        0.0000 
     11 OG          2.5200   18.6200   -7.0500 O.3       1 SER1        0.0000 
     12 OG         -2.8500   20.8500   -4.9300 O.3       1 SER1        0.0000 
     13 OG         -4.6300   21.9400   -5.2900 O.3       1 SER1        0.0000 
     14 OG         -3.4400   21.5700   -6.1100 O.3       1 SER1        0.0000 
     15 OG         -2.2400   21.1900   -6.9400 O.3       1 SER1        0.0000 
     16 OG          3.7900   19.1700   -5.4400 O.3       1 SER1        0.0000 
     17 O           2.9200   15.0000   -7.5300 O.2       2 ALA2        0.0000 
     18 O           4.1200   14.6300   -8.3600 O.2       2 ALA2        0.0000 
     19 N          -0.0600   16.4700   -7.0700 N.am      2 ALA2        0.0000 
     20 N           1.1400   16.1000   -7.8900 N.am      2 ALA2        0.0000 
     21 N          -4.2300   18.3200   -5.7800 N.am      2 ALA2        0.0000 
     22 N          -1.2300   17.9100   -9.4300 N.am      2 ALA2        0.0000 
     23 N          -0.6200   18.2400  -11.4300 N.am      2 ALA2        0.0000 
     24 O          -2.3700   18.1600   -2.9900 O.2       2 ALA2        0.0000 
     25 O          -1.1700   17.7800   -3.8200 O.2       2 ALA2        0.0000 
     26 O           3.6100   16.2700   -7.1100 O.2       2 ALA2        0.0000 
     27 O          -4.1500   19.2500   -3.3500 O.2       2 ALA2        0.0000 
     28 O          -0.5600   18.1200   -5.8200 O.2       2 ALA2        0.0000 
     29 O          -4.7400   19.9600   -4.5300 O.2       2 ALA2        0.0000 
     30 O          -1.7400   19.5500   -8.1800 O.2       2 ALA2        0.0000 
     31 O          -0.5400   19.1700   -9.0100 O.2       2 ALA2        0.0000 
     32 O           4.3000   17.5300   -6.6900 O.2       2 ALA2        0.0000 
     33 O          -3.4600   20.5100   -2.9300 O.2       2 ALA2        0.0000 
     34 O           3.2100   19.8900   -6.6200 O.2       2 ALA2        0.0000 
     35 O          -3.9400   23.2100   -4.8700 O.2       2 ALA2        0.0000 
     36 N          -5.0400   25.5600   -4.8000 N.am      2 ALA2        0.0000 
     37 N          -3.8400   25.1800   -5.6300 N.am      2 ALA2        0.0000 
     38 N          -2.6400   24.8100   -6.4500 N.am      2 ALA2        0.0000 
     39 OD1         2.3300   15.7200   -8.7100 O.co2     3 ASP3        0.0000 
     40 OD1         3.5300   15.3400   -9.5400 O.co2     3 ASP3        0.0000 
     41 OD1         0.5500   16.8100   -9.0700 O.co2     3 ASP3        0.0000 
     42 OD1        -0.0400   17.5300  -10.2500 O.co2     3 ASP3        0.0000 
     43 OD1         3.0200   16.9800   -8.2900 O.co2     3 ASP3        0.0000 
     44 OD1         4.2200   16.6000   -9.1200 O.co2     3 ASP3        0.0000 
     45 OD1         1.2400   18.0800   -8.6500 O.co2     3 ASP3        0.0000 
     46 OD1         3.7100   18.2400   -7.8700 O.co2     3 ASP3        0.0000 
     47 NZ         -1.8600   16.5100   -4.2400 N.4       4 LYS4        0.0000 
     48 NZ         -4.8400   17.9900   -3.7700 N.4       4 LYS4        0.0000 
     49 NZ         -3.6400   17.6100   -4.6000 N.4       4 LYS4        0.0000 
     50 NZ         -2.4500   17.2300   -5.4200 N.4       4 LYS4        0.0000 
     51 CZ         -3.3300   23.5400   -6.8700 C.ar      5 PHE5        0.0000 
     52 CZ         -2.1400   23.1700   -7.7000 C.ar      5 PHE5        0.0000 
     53 CA         -3.5600   18.5300   -2.1700 C.3       6 GLY6        0.0000 
     54 CA          0.6300   17.7400   -6.6500 C.3       6 GLY6        0.0000 
     55 CA          1.8300   17.3600   -7.4700 C.3       6 GLY6        0.0000 
     56 CA          0.6500   18.7900   -9.8300 C.3       6 GLY6        0.0000 
     57 CA         -1.6800   19.4200   -2.5700 C.3       6 GLY6        0.0000 
     58 CA          3.1000   17.9100   -5.8700 C.3       6 GLY6        0.0000 
     59 CA         -2.2600   20.1300   -3.7500 C.3       6 GLY6        0.0000 
     60 CA         -1.0700   19.7600   -4.5800 C.3       6 GLY6        0.0000 
     61 CA         -1.6600   20.4700   -5.7600 C.3       6 GLY6        0.0000 
     62 CA         -0.4600   20.0900   -6.5800 C.3       6 GLY6        0.0000 
     63 CA          0.7400   19.7200   -7.4000 C.3       6 GLY6        0.0000 
     64 CA          1.9300   19.3400   -8.2300 C.3       6 GLY6        0.0000 
     65 CA          0.1500   20.4300   -8.5800 C.3       6 GLY6        0.0000 
     66 CA          4.4000   19.5100   -7.4500 C.3       6 GLY6        0.0000 
     67 CA         -2.1600   22.1100   -4.5100 C.3       6 GLY6        0.0000 
     68 CA         -2.7500   22.8300   -5.6900 C.3       6 GLY6        0.0000 
     69 CA         -1.5500   22.4500   -6.5100 C.3       6 GLY6        0.0000 
     70 CA         -3.2500   24.4700   -4.4500 C.3       6 GLY6        0.0000 
     71 CA         -2.0600   24.0900   -5.2700 C.3       6 GLY6        0.0000 
     72 DU         -2.9500   18.8700   -4.1800 H         7 CUB7        0.0000 
     73 DU         -1.7600   18.4900   -5.0000 H         7 CUB7        0.0000 
     74 DU         -1.1500   18.8300   -7.0000 H         7 CUB7        0.0000 
     75 DU          0.0500   18.4500   -7.8300 H         7 CUB7        0.0000 
@<TRIPOS>BOND
@<TRIPOS>SUBSTRUCTURE
     1 SER1        1 GROUP   
     2 ALA2       17 GROUP   
     3 ASP3       39 GROUP   
     4 LYS4       47 GROUP   
     5 PHE5       51 GROUP   
     6 GLY6       53 GROUP   
     7 CUB7       72 GROUP   
@<TRIPOS>SET

