#    Name: 6mzg_5_GTP_CAVITY_N1_8
#    Modification time : Fri May 22 19:36:58 2020

@<TRIPOS>MOLECULE
6mzg_5_GTP_CAVITY_N1_8
   30     0     5     0     0
SMALL
NO_CHARGES


@<TRIPOS>ATOM
      1 O         -60.5000  -54.0100  -59.7700 O.2       1 ALA2        0.0000 
      2 O         -59.8100  -52.7400  -59.3500 O.2       1 ALA2        0.0000 
      3 O         -58.6200  -53.1200  -60.1700 O.2       1 ALA2        0.0000 
      4 O         -61.5900  -51.6500  -59.7000 O.2       1 ALA2        0.0000 
      5 O         -60.4000  -52.0300  -60.5300 O.2       1 ALA2        0.0000 
      6 N         -57.9300  -51.8600  -59.7500 N.am      1 ALA2        0.0000 
      7 O         -59.7100  -50.7700  -60.1000 O.2       1 ALA2        0.0000 
      8 N         -59.0200  -49.5000  -59.6800 N.am      1 ALA2        0.0000 
      9 N         -57.1300  -48.6200  -60.0800 N.am      1 ALA2        0.0000 
     10 O         -58.9200  -47.5200  -60.4400 O.2       1 ALA2        0.0000 
     11 N         -57.7200  -47.9000  -61.2600 N.am      1 ALA2        0.0000 
     12 N         -59.5000  -46.8100  -61.6200 N.am      1 ALA2        0.0000 
     13 N         -58.8100  -45.5500  -61.2000 N.am      1 ALA2        0.0000 
     14 OD1       -57.0300  -46.6400  -60.8400 O.co2     2 ASP3        0.0000 
     15 OD1       -56.3400  -45.3800  -60.4200 O.co2     2 ASP3        0.0000 
     16 NZ        -55.9400  -49.0000  -60.9100 N.4       3 LYS4        0.0000 
     17 NZ        -57.6400  -46.9800  -58.8400 N.4       3 LYS4        0.0000 
     18 NZ        -56.4400  -47.3500  -59.6600 N.4       3 LYS4        0.0000 
     19 NZ        -56.3600  -46.4300  -57.2300 N.4       3 LYS4        0.0000 
     20 NZ        -56.9500  -45.7100  -58.4100 N.4       3 LYS4        0.0000 
     21 NZ        -56.2600  -44.4500  -57.9900 N.4       3 LYS4        0.0000 
     22 NZ        -55.6500  -44.1100  -60.0000 N.4       3 LYS4        0.0000 
     23 CA        -57.2400  -50.6000  -59.3200 C.3       4 GLY6        0.0000 
     24 CA        -56.5500  -49.3300  -58.9000 C.3       4 GLY6        0.0000 
     25 CA        -59.4200  -45.8800  -59.1900 C.3       4 GLY6        0.0000 
     26 CA        -58.2200  -46.2600  -60.0200 C.3       4 GLY6        0.0000 
     27 CA        -57.5300  -45.0000  -59.5900 C.3       4 GLY6        0.0000 
     28 CA        -58.1200  -44.2800  -60.7700 C.3       4 GLY6        0.0000 
     29 CA        -56.8400  -43.7300  -59.1700 C.3       4 GLY6        0.0000 
     30 DU        -58.3300  -48.2400  -59.2600 H         5 CUB7        0.0000 
@<TRIPOS>BOND
@<TRIPOS>SUBSTRUCTURE
     1 ALA2        1 GROUP   
     2 ASP3       14 GROUP   
     3 LYS4       16 GROUP   
     4 GLY6       23 GROUP   
     5 CUB7       30 GROUP   
@<TRIPOS>SET

