#    Name: 5ymx_1_IMD
#    Modification time : Fri May 22 19:13:36 2020

@<TRIPOS>MOLECULE
5ymx_1_IMD
   10    10     1     0     0
SMALL
NO_CHARGES


@<TRIPOS>ATOM
      1 N1         -6.1960   10.8010  -18.3390 N.pl3     1 IMD302      0.0000 
      2 C2         -6.2250    9.5790  -17.7530 C.2       1 IMD302      0.0000 
      3 N3         -7.5040    9.2760  -17.4410 N.2       1 IMD302      0.0000 
      4 C4         -8.2910   10.3000  -17.8280 C.2       1 IMD302      0.0000 
      5 C5         -7.4670   11.2660  -18.3920 C.2       1 IMD302      0.0000 
      6 HN1        -5.3980   11.2670  -18.6640 H         1 IMD302      0.0000 
      7 H2         -5.4450    9.0090  -17.5840 H         1 IMD302      0.0000 
      8 HN3        -7.8080    8.4500  -17.0090 H         1 IMD302      0.0000 
      9 H4         -9.2640   10.3550  -17.7250 H         1 IMD302      0.0000 
     10 H5         -7.7530   12.1250  -18.7650 H         1 IMD302      0.0000 
@<TRIPOS>BOND
     1    1    2 1    
     2    1    5 1    
     3    1    6 1    
     4    2    3 2    
     5    2    7 1    
     6    3    4 1    
     7    3    8 1    
     8    4    5 2    
     9    4    9 1    
    10    5   10 1    
@<TRIPOS>SUBSTRUCTURE
     1 IMD302      1 GROUP   
@<TRIPOS>SET

