#    Name: 5ymx_1_IMD_CAVITY_N1_ALL
#    Modification time : Fri May 22 19:13:36 2020

@<TRIPOS>MOLECULE
5ymx_1_IMD_CAVITY_N1_ALL
  105     0     6     0     0
SMALL
NO_CHARGES


@<TRIPOS>ATOM
      1 OG         -4.1100    0.4900  -22.2200 O.3       1 SER1        0.0000 
      2 OG         -1.7200    1.1900  -14.9900 O.3       1 SER1        0.0000 
      3 OG         -1.6900    1.9000  -16.3100 O.3       1 SER1        0.0000 
      4 OG          2.3100    5.8000  -15.8400 O.3       1 SER1        0.0000 
      5 OG          0.8200    5.4200  -14.3700 O.3       1 SER1        0.0000 
      6 OG          1.1800    6.7000  -13.6800 O.3       1 SER1        0.0000 
      7 N          -0.0300   -0.3600  -25.9800 N.am      2 ALA2        0.0000 
      8 N          -1.5200   -0.7400  -24.5100 N.am      2 ALA2        0.0000 
      9 N           0.2900    0.2200  -23.9600 N.am      2 ALA2        0.0000 
     10 N          -1.1600    0.5400  -23.8200 N.am      2 ALA2        0.0000 
     11 O          -1.1000    1.9600  -26.4700 O.2       2 ALA2        0.0000 
     12 N          -2.5600    2.2800  -26.3300 N.am      2 ALA2        0.0000 
     13 N           0.6100    0.8000  -21.9500 N.am      2 ALA2        0.0000 
     14 N           0.6500    1.5000  -23.2700 N.am      2 ALA2        0.0000 
     15 N          -0.8100    1.8300  -23.1300 N.am      2 ALA2        0.0000 
     16 N          -0.7800    2.5300  -24.4500 N.am      2 ALA2        0.0000 
     17 O          -0.7500    3.2400  -25.7800 O.2       2 ALA2        0.0000 
     18 N           0.9400    1.3700  -19.9300 N.am      2 ALA2        0.0000 
     19 N           0.9700    2.0800  -21.2500 N.am      2 ALA2        0.0000 
     20 N          -0.4900    2.4000  -21.1100 N.am      2 ALA2        0.0000 
     21 N          -1.9500    2.7300  -20.9700 N.am      2 ALA2        0.0000 
     22 N          -1.9200    3.4400  -22.3000 N.am      2 ALA2        0.0000 
     23 N           1.2900    2.6600  -19.2400 N.am      2 ALA2        0.0000 
     24 N           1.3200    3.3600  -20.5600 N.am      2 ALA2        0.0000 
     25 N          -0.2300    1.5700  -16.4500 N.am      2 ALA2        0.0000 
     26 N          -0.2000    2.2800  -17.7700 N.am      2 ALA2        0.0000 
     27 N          -0.1700    2.9800  -19.1000 N.am      2 ALA2        0.0000 
     28 O          -0.1400    3.6900  -20.4200 O.2       2 ALA2        0.0000 
     29 N          -1.6300    3.3100  -18.9600 N.am      2 ALA2        0.0000 
     30 O          -1.6000    4.0100  -20.2800 O.2       2 ALA2        0.0000 
     31 O           1.5800    2.5300  -15.9000 O.2       2 ALA2        0.0000 
     32 N           1.6100    3.2300  -17.2200 N.am      2 ALA2        0.0000 
     33 N           0.1500    3.5600  -17.0800 N.am      2 ALA2        0.0000 
     34 N           0.1800    4.2600  -18.4100 N.am      2 ALA2        0.0000 
     35 N          -1.3400    3.1800  -15.6200 N.am      2 ALA2        0.0000 
     36 N          -1.3100    3.8800  -16.9400 N.am      2 ALA2        0.0000 
     37 N           1.9300    3.8100  -15.2000 N.am      2 ALA2        0.0000 
     38 N           0.4700    4.1400  -15.0700 N.am      2 ALA2        0.0000 
     39 N           0.5000    4.8400  -16.3900 N.am      2 ALA2        0.0000 
     40 N          -0.9900    4.4600  -14.9300 N.am      2 ALA2        0.0000 
     41 N          -2.4400    4.7900  -14.7900 N.am      2 ALA2        0.0000 
     42 N           2.2800    5.0900  -14.5100 N.am      2 ALA2        0.0000 
     43 N           0.7900    4.7100  -13.0500 N.am      2 ALA2        0.0000 
     44 O          -0.6600    5.0400  -12.9100 O.2       2 ALA2        0.0000 
     45 O          -0.6300    5.7400  -14.2300 O.2       2 ALA2        0.0000 
     46 N           2.6400    6.3800  -13.8200 N.am      2 ALA2        0.0000 
     47 N           1.1100    5.2900  -11.0300 N.am      2 ALA2        0.0000 
     48 N           1.1500    6.0000  -12.3600 N.am      2 ALA2        0.0000 
     49 O          -0.3100    6.3200  -12.2200 O.2       2 ALA2        0.0000 
     50 O           2.9200    6.2500  -10.4800 O.2       2 ALA2        0.0000 
     51 O           1.4400    5.8700   -9.0200 O.2       2 ALA2        0.0000 
     52 O           1.4700    6.5700  -10.3400 O.2       2 ALA2        0.0000 
     53 O           1.5300    7.9800  -12.9900 O.2       2 ALA2        0.0000 
     54 N           3.3400    8.9400  -12.4300 N.am      2 ALA2        0.0000 
     55 N          -1.1000    8.5100   -9.3700 N.am      2 ALA2        0.0000 
     56 NZ          0.0400    7.6000  -11.5300 N.4       3 LYS4        0.0000 
     57 NZ          0.0700    8.3100  -12.8500 N.4       3 LYS4        0.0000 
     58 NZ          1.8800    9.2700  -12.3000 N.4       3 LYS4        0.0000 
     59 NZ          0.3900    8.8900  -10.8300 N.4       3 LYS4        0.0000 
     60 NZ         -1.0600    9.2100  -10.6900 N.4       3 LYS4        0.0000 
     61 NZ          2.1700    9.1400   -8.9600 N.4       3 LYS4        0.0000 
     62 CZ          0.3200    0.9200  -25.2800 C.ar      4 PHE5        0.0000 
     63 CZ         -4.0800    1.2000  -23.5400 C.ar      4 PHE5        0.0000 
     64 CZ          0.6800    2.2100  -24.5900 C.ar      4 PHE5        0.0000 
     65 CZ         -2.3000    1.4500  -21.6700 C.ar      4 PHE5        0.0000 
     66 CZ         -2.2700    2.1500  -22.9900 C.ar      4 PHE5        0.0000 
     67 CZ         -2.2400    2.8600  -24.3100 C.ar      4 PHE5        0.0000 
     68 CZ         -3.7900    1.0700  -20.2100 C.ar      4 PHE5        0.0000 
     69 CZ         -3.7600    1.7700  -21.5300 C.ar      4 PHE5        0.0000 
     70 CZ         -0.5200    1.7000  -19.7900 C.ar      4 PHE5        0.0000 
     71 CZ         -1.9800    2.0200  -19.6500 C.ar      4 PHE5        0.0000 
     72 CZ         -1.6600    2.6000  -17.6400 C.ar      4 PHE5        0.0000 
     73 CZ          0.1200    2.8500  -15.7600 C.ar      4 PHE5        0.0000 
     74 CZ         -1.3700    2.4700  -14.3000 C.ar      4 PHE5        0.0000 
     75 CZ          0.4400    3.4300  -13.7400 C.ar      4 PHE5        0.0000 
     76 CZ         -1.0200    3.7600  -13.6000 C.ar      4 PHE5        0.0000 
     77 CZ         -1.4800    6.5200   -8.7400 C.ar      4 PHE5        0.0000 
     78 CZ         -1.4500    7.2200  -10.0600 C.ar      4 PHE5        0.0000 
     79 CZ         -1.1300    7.8000   -8.0500 C.ar      4 PHE5        0.0000 
     80 CA         -2.9700   -0.4100  -24.3800 C.3       5 GLY6        0.0000 
     81 CA          0.3600    1.6300  -26.6100 C.3       5 GLY6        0.0000 
     82 CA         -2.6500    0.1600  -22.3600 C.3       5 GLY6        0.0000 
     83 CA         -0.8400    1.1200  -21.8100 C.3       5 GLY6        0.0000 
     84 CA         -2.2100    3.5600  -25.6400 C.3       5 GLY6        0.0000 
     85 CA          1.6400    3.9400  -18.5400 C.3       5 GLY6        0.0000 
     86 CA          1.9600    4.5200  -16.5300 C.3       5 GLY6        0.0000 
     87 CA          2.9600    6.9500  -11.8000 C.3       5 GLY6        0.0000 
     88 CA          3.3100    8.2300  -11.1100 C.3       5 GLY6        0.0000 
     89 CA          1.7900    7.1500   -8.3300 C.3       5 GLY6        0.0000 
     90 CA          1.8200    7.8500   -9.6500 C.3       5 GLY6        0.0000 
     91 CA          2.2000    9.8400  -10.2800 C.3       5 GLY6        0.0000 
     92 CA          0.7100    9.4600   -8.8200 C.3       5 GLY6        0.0000 
     93 DU         -1.4900   -0.0300  -25.8400 H         6 CUB7        0.0000 
     94 DU         -1.1300    1.2500  -25.1500 H         6 CUB7        0.0000 
     95 DU         -2.6200    0.8700  -23.6800 H         6 CUB7        0.0000 
     96 DU         -2.5900    1.5800  -25.0100 H         6 CUB7        0.0000 
     97 DU         -0.3700    4.9100   -9.5700 H         6 CUB7        0.0000 
     98 DU         -0.3400    5.6200  -10.9000 H         6 CUB7        0.0000 
     99 DU          2.9900    7.6600  -13.1300 H         6 CUB7        0.0000 
    100 DU          1.5000    7.2800  -11.6600 H         6 CUB7        0.0000 
    101 DU         -0.0200    6.1900   -8.8800 H         6 CUB7        0.0000 
    102 DU          0.0100    6.9000  -10.2000 H         6 CUB7        0.0000 
    103 DU          1.8500    8.5600  -10.9700 H         6 CUB7        0.0000 
    104 DU          0.3300    7.4700   -8.1900 H         6 CUB7        0.0000 
    105 DU          0.3600    8.1800   -9.5100 H         6 CUB7        0.0000 
@<TRIPOS>BOND
@<TRIPOS>SUBSTRUCTURE
     1 SER1        1 GROUP   
     2 ALA2        7 GROUP   
     3 LYS4       56 GROUP   
     4 PHE5       62 GROUP   
     5 GLY6       80 GROUP   
     6 CUB7       93 GROUP   
@<TRIPOS>SET

