#    Name: 5ymx_1_IMD_CAVITY_N1_8
#    Modification time : Fri May 22 19:13:36 2020

@<TRIPOS>MOLECULE
5ymx_1_IMD_CAVITY_N1_8
    6     0     1     0     0
SMALL
NO_CHARGES


@<TRIPOS>ATOM
      1 N          -1.6300    3.3100  -18.9600 N.am      1 ALA2        0.0000 
      2 O          -1.6000    4.0100  -20.2800 O.2       1 ALA2        0.0000 
      3 N          -1.3100    3.8800  -16.9400 N.am      1 ALA2        0.0000 
      4 N          -0.9900    4.4600  -14.9300 N.am      1 ALA2        0.0000 
      5 N          -2.4400    4.7900  -14.7900 N.am      1 ALA2        0.0000 
      6 O          -0.6300    5.7400  -14.2300 O.2       1 ALA2        0.0000 
@<TRIPOS>BOND
@<TRIPOS>SUBSTRUCTURE
     1 ALA2        1 GROUP   
@<TRIPOS>SET

