#    Name: 6a0o_4_FMN
#    Modification time : Fri May 22 19:25:08 2020

@<TRIPOS>MOLECULE
6a0o_4_FMN
   31    33     1     0     1
SMALL
NO_CHARGES


@<TRIPOS>ATOM
      1 N1         29.6020   -9.0420   22.1770 N.2       1 FMN401      0.0000 
      2 C2         30.7890   -9.1240   21.5440 C.2       1 FMN401      0.0000 
      3 O2         30.8790   -9.1950   20.2980 O.2       1 FMN401      0.0000 
      4 N3         31.9360   -9.1670   22.3670 N.am      1 FMN401      0.0000 
      5 C4         31.8770   -9.0650   23.6730 C.2       1 FMN401      0.0000 
      6 O4         32.9680   -9.0890   24.3780 O.2       1 FMN401      0.0000 
      7 C4A        30.6520   -8.9750   24.3680 C.2       1 FMN401      0.0000 
      8 N5         30.5310   -8.8800   25.7060 N.2       1 FMN401      0.0000 
      9 C5A        29.3030   -8.8090   26.3030 C.ar      1 FMN401      0.0000 
     10 C6         29.1360   -8.7390   27.6660 C.ar      1 FMN401      0.0000 
     11 C7         27.9470   -8.7460   28.2730 C.ar      1 FMN401      0.0000 
     12 C7M        27.7990   -8.7090   29.7890 C.3       1 FMN401      0.0000 
     13 C8         26.7430   -8.8340   27.4910 C.ar      1 FMN401      0.0000 
     14 C8M        25.4070   -8.9030   28.1710 C.3       1 FMN401      0.0000 
     15 C9         26.8740   -8.9200   26.1000 C.ar      1 FMN401      0.0000 
     16 C9A        28.0840   -8.8780   25.4790 C.ar      1 FMN401      0.0000 
     17 N10        28.2440   -8.9310   24.0970 N.pl3     1 FMN401      0.0000 
     18 C10        29.4540   -8.9620   23.5120 C.2       1 FMN401      0.0000 
     19 C1'        27.0280   -8.9740   23.2200 C.3       1 FMN401      0.0000 
     20 C2'        26.4790  -10.4010   23.0520 C.3       1 FMN401      0.0000 
     21 O2'        27.4030  -11.1600   22.2590 O.3       1 FMN401      0.0000 
     22 C3'        25.0750  -10.4190   22.3910 C.3       1 FMN401      0.0000 
     23 O3'        25.1740   -9.6800   21.1530 O.3       1 FMN401      0.0000 
     24 C4'        24.0570   -9.7720   23.2820 C.3       1 FMN401      0.0000 
     25 O4'        24.2250  -10.1500   24.6720 O.3       1 FMN401      0.0000 
     26 C5'        22.5990   -9.9870   22.8420 C.3       1 FMN401      0.0000 
     27 O5'        22.1150  -11.1170   23.1970 O.3       1 FMN401      0.0000 
     28 P          21.1860  -11.4830   24.5470 P.3       1 FMN401      0.0000 
     29 O1P        22.1010  -11.1770   25.7080 O.co2     1 FMN401      0.0000 
     30 O2P        19.9110  -10.7080   24.6580 O.co2     1 FMN401      0.0000 
     31 O3P        20.9740  -12.9200   24.2410 O.co2     1 FMN401      0.0000 
@<TRIPOS>BOND
     1    1    2 1    
     2    1   18 2    
     3    2    3 2    
     4    2    4 am   
     5    4    5 am   
     6    5    6 2    
     7    5    7 1    
     8    7    8 2    
     9    7   18 1    
    10    8    9 1    
    11    9   10 ar   
    12    9   16 ar   
    13   10   11 ar   
    14   11   12 1    
    15   11   13 ar   
    16   13   14 1    
    17   13   15 ar   
    18   15   16 ar   
    19   16   17 1    
    20   17   18 1    
    21   17   19 1    
    22   19   20 1    
    23   20   21 1    
    24   20   22 1    
    25   22   23 1    
    26   22   24 1    
    27   24   25 1    
    28   24   26 1    
    29   26   27 1    
    30   27   28 1    
    31   28   29 ar   
    32   28   30 ar   
    33   28   31 ar   
@<TRIPOS>SUBSTRUCTURE
     1 FMN401      1 GROUP   
@<TRIPOS>SET
ATOM$ORANGE STATIC     ATOMS   COLORGROUP SYSTEM 
34 2 2 5 5 7 7 9 9 10 10 11 11 12 12 13 13 14 \
14 15 15 16 16 18 18 19 19 20 20 22 22 24 24 26 26 

