#    Name: 6no4_1_ADP
#    Modification time : Fri May 22 19:33:11 2020

@<TRIPOS>MOLECULE
6no4_1_ADP
   42    44     1     0     1
SMALL
NO_CHARGES


@<TRIPOS>ATOM
      1 PB         14.8370   32.3860   -3.6090 P.3       1 ADP301      0.0000 
      2 O1B        14.8830   31.9110   -5.0240 O.co2     1 ADP301      0.0000 
      3 O2B        14.2640   31.3390   -2.6480 O.co2     1 ADP301      0.0000 
      4 O3B        14.0370   33.6810   -3.4320 O.co2     1 ADP301      0.0000 
      5 PA         17.7360   32.1120   -3.4540 P.3       1 ADP301      0.0000 
      6 O1A        18.5640   33.0950   -4.1910 O.co2     1 ADP301      0.0000 
      7 O2A        18.3460   31.5970   -2.1520 O.co2     1 ADP301      0.0000 
      8 O3A        16.3080   32.7120   -3.0860 O.3       1 ADP301      0.0000 
      9 O5'        17.4050   30.8220   -4.3500 O.3       1 ADP301      0.0000 
     10 C5'        18.0570   30.4530   -5.5850 C.3       1 ADP301      0.0000 
     11 C4'        18.7240   29.1160   -5.4030 C.3       1 ADP301      0.0000 
     12 O4'        19.5660   28.8430   -6.5450 O.3       1 ADP301      0.0000 
     13 C3'        19.6340   29.0000   -4.1840 C.3       1 ADP301      0.0000 
     14 O3'        18.9000   28.5450   -3.0520 O.3       1 ADP301      0.0000 
     15 C2'        20.6660   27.9650   -4.6340 C.3       1 ADP301      0.0000 
     16 O2'        20.2120   26.6300   -4.4460 O.3       1 ADP301      0.0000 
     17 C1'        20.7960   28.2790   -6.1270 C.3       1 ADP301      0.0000 
     18 N9         21.8640   29.2190   -6.4400 N.pl3     1 ADP301      0.0000 
     19 C8         21.9410   30.5390   -6.0790 C.2       1 ADP301      0.0000 
     20 N7         23.0480   31.1320   -6.4550 N.2       1 ADP301      0.0000 
     21 C5         23.7470   30.1340   -7.1170 C.ar      1 ADP301      0.0000 
     22 C6         25.0020   30.1160   -7.7540 C.ar      1 ADP301      0.0000 
     23 N6         25.8170   31.1740   -7.8200 N.pl3     1 ADP301      0.0000 
     24 N1         25.4020   28.9550   -8.3180 N.ar      1 ADP301      0.0000 
     25 C2         24.5980   27.8910   -8.2420 C.ar      1 ADP301      0.0000 
     26 N3         23.3980   27.7900   -7.6680 N.ar      1 ADP301      0.0000 
     27 C4         23.0270   28.9510   -7.1190 C.ar      1 ADP301      0.0000 
     28 HOB2       13.2790   31.2220   -2.6070 H         1 ADP301      0.0000 
     29 HOB3       13.8710   34.2090   -2.6080 H         1 ADP301      0.0000 
     30 HOA2       18.1760   31.9490   -1.2390 H         1 ADP301      0.0000 
     31 H5'1       17.3200   30.3810   -6.3830 H         1 ADP301      0.0000 
     32 H5'2       18.8080   31.1970   -5.8430 H         1 ADP301      0.0000 
     33 H4'        17.9910   28.3110   -5.4230 H         1 ADP301      0.0000 
     34 H3'        20.0980   29.9500   -3.9260 H         1 ADP301      0.0000 
     35 HO3'       19.5450   28.5040   -2.2980 H         1 ADP301      0.0000 
     36 H2'        21.6100   28.1180   -4.1130 H         1 ADP301      0.0000 
     37 HO2'       20.9490   26.0650   -4.7960 H         1 ADP301      0.0000 
     38 H1'        20.9540   27.3810   -6.7240 H         1 ADP301      0.0000 
     39 H8         21.1540   31.0520   -5.5290 H         1 ADP301      0.0000 
     40 HN61       26.7120   31.1030   -8.2930 H         1 ADP301      0.0000 
     41 HN62       25.5460   32.0560   -7.3970 H         1 ADP301      0.0000 
     42 H2         24.9880   26.9920   -8.7170 H         1 ADP301      0.0000 
@<TRIPOS>BOND
     1    1    2 ar   
     2    1    3 ar   
     3    1    4 ar   
     4    1    8 1    
     5    3   28 1    
     6    4   29 1    
     7    5    6 ar   
     8    5    7 ar   
     9    5    8 1    
    10    5    9 1    
    11    7   30 1    
    12    9   10 1    
    13   10   11 1    
    14   10   31 1    
    15   10   32 1    
    16   11   12 1    
    17   11   13 1    
    18   11   33 1    
    19   12   17 1    
    20   13   14 1    
    21   13   15 1    
    22   13   34 1    
    23   14   35 1    
    24   15   16 1    
    25   15   17 1    
    26   15   36 1    
    27   16   37 1    
    28   17   18 1    
    29   17   38 1    
    30   18   19 1    
    31   18   27 1    
    32   19   20 2    
    33   19   39 1    
    34   20   21 1    
    35   21   22 ar   
    36   21   27 ar   
    37   22   23 1    
    38   22   24 ar   
    39   23   40 1    
    40   23   41 1    
    41   24   25 ar   
    42   25   26 ar   
    43   25   42 1    
    44   26   27 ar   
@<TRIPOS>SUBSTRUCTURE
     1 ADP301      1 GROUP   
@<TRIPOS>SET
ATOM$ORANGE STATIC     ATOMS   COLORGROUP SYSTEM 
20 10 10 11 11 13 13 15 15 17 17 19 19 21 21 22 22 25 \
25 27 27 

