#    Name: 6pk7_2_ADP_CAVITY_N1_4
#    Modification time : Fri May 22 19:26:50 2020

@<TRIPOS>MOLECULE
6pk7_2_ADP_CAVITY_N1_4
   75     0     6     0     0
SMALL
NO_CHARGES


@<TRIPOS>ATOM
      1 OG        169.7200  162.5000  131.0200 O.3       1 SER1        0.0000 
      2 N         168.7300  163.0200  132.0200 N.am      2 ALA2        0.0000 
      3 N         169.6800  161.8900  133.5400 N.am      2 ALA2        0.0000 
      4 N         168.8600  163.8000  133.9900 N.am      2 ALA2        0.0000 
      5 N         169.8500  163.2700  132.9900 N.am      2 ALA2        0.0000 
      6 O         169.9700  164.0500  134.9600 O.2       2 ALA2        0.0000 
      7 O         170.9200  162.9200  136.4800 O.2       2 ALA2        0.0000 
      8 O         171.4300  167.0700  134.8100 O.2       2 ALA2        0.0000 
      9 N         171.6900  160.4100  138.5700 N.am      2 ALA2        0.0000 
     10 N         170.8700  162.3200  139.0100 N.am      2 ALA2        0.0000 
     11 N         171.8600  161.8000  138.0100 N.am      2 ALA2        0.0000 
     12 O         171.0400  163.7000  138.4500 O.2       2 ALA2        0.0000 
     13 O         171.2100  165.0900  137.9000 O.2       2 ALA2        0.0000 
     14 O         172.2000  164.5600  136.9000 O.2       2 ALA2        0.0000 
     15 O         172.3700  165.9400  136.3400 O.2       2 ALA2        0.0000 
     16 N         171.8200  161.1900  140.5400 N.am      2 ALA2        0.0000 
     17 O         172.3300  165.3400  138.8700 O.2       2 ALA2        0.0000 
     18 O         173.4900  166.2000  137.3100 O.2       2 ALA2        0.0000 
     19 O         172.9300  161.4500  141.5100 O.2       2 ALA2        0.0000 
     20 O         173.1000  162.8300  140.9500 O.2       2 ALA2        0.0000 
     21 OD1       168.9000  164.4000  131.4600 O.co2     3 ASP3        0.0000 
     22 OD1       169.0700  165.7800  130.9000 O.co2     3 ASP3        0.0000 
     23 OD1       171.9900  162.5800  139.9800 O.co2     3 ASP3        0.0000 
     24 OD1       174.2200  163.0800  141.9200 O.co2     3 ASP3        0.0000 
     25 OD1       175.2100  162.5600  140.9300 O.co2     3 ASP3        0.0000 
     26 NZ        173.9700  161.5300  137.9900 N.4       4 LYS4        0.0000 
     27 NZ        173.1500  163.4300  138.4300 N.4       4 LYS4        0.0000 
     28 NZ        174.1400  162.9100  137.4300 N.4       4 LYS4        0.0000 
     29 NZ        173.3200  164.8200  137.8700 N.4       4 LYS4        0.0000 
     30 NZ        174.3100  164.2900  136.8700 N.4       4 LYS4        0.0000 
     31 NZ        174.0900  162.3100  139.9500 N.4       4 LYS4        0.0000 
     32 NZ        175.0800  161.7800  138.9600 N.4       4 LYS4        0.0000 
     33 NZ        173.2700  164.2100  140.4000 N.4       4 LYS4        0.0000 
     34 NZ        174.2600  163.6900  139.4000 N.4       4 LYS4        0.0000 
     35 NZ        174.4300  165.0700  138.8400 N.4       4 LYS4        0.0000 
     36 CA        169.0300  165.1800  133.4300 C.3       5 GLY6        0.0000 
     37 CA        169.2000  166.5600  132.8700 C.3       5 GLY6        0.0000 
     38 CA        170.1900  166.0400  131.8700 C.3       5 GLY6        0.0000 
     39 CA        170.3600  167.4200  131.3200 C.3       5 GLY6        0.0000 
     40 CA        171.3500  166.9000  130.3200 C.3       5 GLY6        0.0000 
     41 CA        170.6200  160.7600  135.0700 C.3       5 GLY6        0.0000 
     42 CA        169.8000  162.6700  135.5100 C.3       5 GLY6        0.0000 
     43 CA        170.7900  162.1500  134.5200 C.3       5 GLY6        0.0000 
     44 CA        170.9600  163.5300  133.9600 C.3       5 GLY6        0.0000 
     45 CA        171.1300  164.9100  133.4000 C.3       5 GLY6        0.0000 
     46 CA        171.3000  166.2900  132.8400 C.3       5 GLY6        0.0000 
     47 CA        171.5700  159.6400  136.6000 C.3       5 GLY6        0.0000 
     48 CA        170.7500  161.5400  137.0400 C.3       5 GLY6        0.0000 
     49 CA        171.7400  161.0200  136.0400 C.3       5 GLY6        0.0000 
     50 CA        171.0900  164.3100  135.9300 C.3       5 GLY6        0.0000 
     51 CA        171.2600  165.6900  135.3700 C.3       5 GLY6        0.0000 
     52 CA        171.5200  159.0300  139.1300 C.3       5 GLY6        0.0000 
     53 CA        171.6500  159.8100  141.1000 C.3       5 GLY6        0.0000 
     54 CA        172.1600  163.9600  139.4300 C.3       5 GLY6        0.0000 
     55 CA        172.1100  163.3500  141.9500 C.3       5 GLY6        0.0000 
     56 DU        169.8900  163.8800  130.4600 H         6 CUB7        0.0000 
     57 DU        170.0600  165.2600  129.9000 H         6 CUB7        0.0000 
     58 DU        170.0200  164.6600  132.4300 H         6 CUB7        0.0000 
     59 DU        171.1800  165.5100  130.8700 H         6 CUB7        0.0000 
     60 DU        171.7800  161.6200  133.5200 H         6 CUB7        0.0000 
     61 DU        172.2900  165.7700  131.8500 H         6 CUB7        0.0000 
     62 DU        171.9100  162.4000  135.4900 H         6 CUB7        0.0000 
     63 DU        172.0800  163.7800  134.9300 H         6 CUB7        0.0000 
     64 DU        172.2500  165.1600  134.3700 H         6 CUB7        0.0000 
     65 DU        172.6800  159.8900  137.5700 H         6 CUB7        0.0000 
     66 DU        172.8500  161.2700  137.0100 H         6 CUB7        0.0000 
     67 DU        172.0300  163.1800  137.4600 H         6 CUB7        0.0000 
     68 DU        173.0200  162.6500  136.4600 H         6 CUB7        0.0000 
     69 DU        173.1900  164.0400  135.9000 H         6 CUB7        0.0000 
     70 DU        173.3600  165.4200  135.3400 H         6 CUB7        0.0000 
     71 DU        172.6400  159.2900  140.1000 H         6 CUB7        0.0000 
     72 DU        172.8100  160.6700  139.5400 H         6 CUB7        0.0000 
     73 DU        173.8000  160.1400  138.5400 H         6 CUB7        0.0000 
     74 DU        172.9800  162.0500  138.9800 H         6 CUB7        0.0000 
     75 DU        173.9200  160.9200  140.5100 H         6 CUB7        0.0000 
@<TRIPOS>BOND
@<TRIPOS>SUBSTRUCTURE
     1 SER1        1 GROUP   
     2 ALA2        2 GROUP   
     3 ASP3       21 GROUP   
     4 LYS4       26 GROUP   
     5 GLY6       36 GROUP   
     6 CUB7       56 GROUP   
@<TRIPOS>SET

