#    Name: 6pk7_1_ADP_CAVITY_N1_8
#    Modification time : Fri May 22 19:26:33 2020

@<TRIPOS>MOLECULE
6pk7_1_ADP_CAVITY_N1_8
   78     0     7     0     0
SMALL
NO_CHARGES


@<TRIPOS>ATOM
      1 OG        136.8900  155.6500  140.3800 O.3       1 SER1        0.0000 
      2 O         140.2500  149.2400  133.5700 O.2       2 ALA2        0.0000 
      3 O         142.3100  148.3600  136.0700 O.2       2 ALA2        0.0000 
      4 O         142.4800  149.7500  135.5100 O.2       2 ALA2        0.0000 
      5 O         142.6100  150.5200  137.4800 O.2       2 ALA2        0.0000 
      6 O         143.7700  151.3800  135.9200 O.2       2 ALA2        0.0000 
      7 O         143.7200  150.7800  138.4500 O.2       2 ALA2        0.0000 
      8 N         142.9000  152.6900  138.8900 N.am      2 ALA2        0.0000 
      9 N         143.8900  152.1600  137.8900 N.am      2 ALA2        0.0000 
     10 N         143.0700  154.0700  138.3300 N.am      2 ALA2        0.0000 
     11 O         141.8700  152.6100  142.4100 O.2       2 ALA2        0.0000 
     12 O         141.0500  154.5100  142.8600 O.2       2 ALA2        0.0000 
     13 O         142.0400  153.9900  141.8600 O.2       2 ALA2        0.0000 
     14 N         144.0200  152.9400  139.8600 N.am      2 ALA2        0.0000 
     15 N         143.2000  154.8500  140.3000 N.am      2 ALA2        0.0000 
     16 OD1       140.4600  150.1900  140.0300 O.co2     3 ASP3        0.0000 
     17 OD1       138.6500  152.6200  141.4700 O.co2     3 ASP3        0.0000 
     18 OD1       139.7600  152.8800  142.4400 O.co2     3 ASP3        0.0000 
     19 OD1       140.7500  152.3500  141.4400 O.co2     3 ASP3        0.0000 
     20 OD1       141.7400  151.8300  140.4400 O.co2     3 ASP3        0.0000 
     21 OD1       142.8600  152.0800  141.4200 O.co2     3 ASP3        0.0000 
     22 OD1       143.8500  151.5600  140.4200 O.co2     3 ASP3        0.0000 
     23 OD1       143.0300  153.4600  140.8600 O.co2     3 ASP3        0.0000 
     24 OD1       144.1400  153.7200  141.8300 O.co2     3 ASP3        0.0000 
     25 NZ        140.2100  148.6300  136.0900 N.4       4 LYS4        0.0000 
     26 NZ        140.3800  150.0200  135.5400 N.4       4 LYS4        0.0000 
     27 NZ        140.3300  149.4100  138.0600 N.4       4 LYS4        0.0000 
     28 NZ        137.5400  152.3700  140.5000 N.4       4 LYS4        0.0000 
     29 NZ        141.4900  150.2700  136.5100 N.4       4 LYS4        0.0000 
     30 NZ        136.7200  154.2700  140.9400 N.4       4 LYS4        0.0000 
     31 NZ        137.7100  153.7500  139.9400 N.4       4 LYS4        0.0000 
     32 NZ        140.6700  152.1800  136.9500 N.4       4 LYS4        0.0000 
     33 NZ        141.4500  149.6700  139.0300 N.4       4 LYS4        0.0000 
     34 NZ        137.6600  153.1400  142.4700 N.4       4 LYS4        0.0000 
     35 NZ        139.6400  152.1000  140.4700 N.4       4 LYS4        0.0000 
     36 NZ        140.6300  151.5700  139.4700 N.4       4 LYS4        0.0000 
     37 NZ        141.6200  151.0500  138.4800 N.4       4 LYS4        0.0000 
     38 NZ        139.8100  153.4800  139.9100 N.4       4 LYS4        0.0000 
     39 NZ        140.8000  152.9500  138.9200 N.4       4 LYS4        0.0000 
     40 NZ        141.7900  152.4300  137.9200 N.4       4 LYS4        0.0000 
     41 NZ        141.5700  150.4400  141.0000 N.4       4 LYS4        0.0000 
     42 NZ        142.5600  149.9200  140.0000 N.4       4 LYS4        0.0000 
     43 NZ        138.7800  153.4000  143.4400 N.4       4 LYS4        0.0000 
     44 CZ        137.0600  157.0400  139.8300 C.ar      5 PHE5        0.0000 
     45 CZ        137.8300  154.5300  141.9100 C.ar      5 PHE5        0.0000 
     46 CA        141.2000  148.1100  135.0900 C.3       6 GLY6        0.0000 
     47 CA        141.3200  148.8900  137.0600 C.3       6 GLY6        0.0000 
     48 CA        143.4700  149.2200  134.5100 C.3       6 GLY6        0.0000 
     49 CA        143.6400  150.6000  133.9500 C.3       6 GLY6        0.0000 
     50 CA        143.6000  150.0000  136.4800 C.3       6 GLY6        0.0000 
     51 CA        144.7600  150.8600  134.9200 C.3       6 GLY6        0.0000 
     52 CA        143.9400  152.7700  135.3600 C.3       6 GLY6        0.0000 
     53 CA        142.7300  151.3000  139.4500 C.3       6 GLY6        0.0000 
     54 CA        138.9500  154.7800  142.8800 C.3       6 GLY6        0.0000 
     55 CA        140.0600  155.0400  143.8500 C.3       6 GLY6        0.0000 
     56 CA        140.2300  156.4200  143.3000 C.3       6 GLY6        0.0000 
     57 CA        143.3700  156.2300  139.7400 C.3       6 GLY6        0.0000 
     58 CA        141.3400  156.6700  144.2700 C.3       6 GLY6        0.0000 
     59 CA        142.3300  156.1500  143.2700 C.3       6 GLY6        0.0000 
     60 CA        143.3200  155.6200  142.2700 C.3       6 GLY6        0.0000 
     61 DU        141.3700  149.4900  134.5400 H         7 CUB7        0.0000 
     62 DU        142.3600  148.9700  133.5400 H         7 CUB7        0.0000 
     63 DU        141.5400  150.8700  133.9800 H         7 CUB7        0.0000 
     64 DU        141.6600  151.6500  135.9500 H         7 CUB7        0.0000 
     65 DU        142.6500  151.1300  134.9500 H         7 CUB7        0.0000 
     66 DU        137.8800  155.1300  139.3900 H         7 CUB7        0.0000 
     67 DU        138.8200  154.0000  140.9100 H         7 CUB7        0.0000 
     68 DU        142.7800  151.9100  136.9200 H         7 CUB7        0.0000 
     69 DU        138.0000  155.9100  141.3500 H         7 CUB7        0.0000 
     70 DU        140.9700  154.3400  138.3600 H         7 CUB7        0.0000 
     71 DU        141.9600  153.8100  137.3600 H         7 CUB7        0.0000 
     72 DU        139.9300  154.2600  141.8800 H         7 CUB7        0.0000 
     73 DU        140.9200  153.7300  140.8900 H         7 CUB7        0.0000 
     74 DU        141.9100  153.2100  139.8900 H         7 CUB7        0.0000 
     75 DU        139.1200  156.1600  142.3300 H         7 CUB7        0.0000 
     76 DU        142.0800  154.5900  139.3300 H         7 CUB7        0.0000 
     77 DU        141.2200  155.8900  142.3000 H         7 CUB7        0.0000 
     78 DU        142.2100  155.3700  141.3000 H         7 CUB7        0.0000 
@<TRIPOS>BOND
@<TRIPOS>SUBSTRUCTURE
     1 SER1        1 GROUP   
     2 ALA2        2 GROUP   
     3 ASP3       16 GROUP   
     4 LYS4       25 GROUP   
     5 PHE5       44 GROUP   
     6 GLY6       46 GROUP   
     7 CUB7       61 GROUP   
@<TRIPOS>SET

