#    Name: 6pk7_4_ADP_CAVITY_N1_6
#    Modification time : Fri May 22 19:27:24 2020

@<TRIPOS>MOLECULE
6pk7_4_ADP_CAVITY_N1_6
   88     0     5     0     0
SMALL
NO_CHARGES


@<TRIPOS>ATOM
      1 N         171.0300  151.3600  176.4700 N.am      1 ALA2        0.0000 
      2 N         171.2000  152.7400  175.9100 N.am      1 ALA2        0.0000 
      3 N         171.3700  154.1200  175.3500 N.am      1 ALA2        0.0000 
      4 O         173.3500  153.0800  173.3600 O.2       1 ALA2        0.0000 
      5 O         173.5200  154.4600  172.8000 O.2       1 ALA2        0.0000 
      6 O         174.5000  153.9300  171.8000 O.2       1 ALA2        0.0000 
      7 O         171.8000  148.8500  178.5500 O.2       1 ALA2        0.0000 
      8 O         171.9700  150.2300  178.0000 O.2       1 ALA2        0.0000 
      9 O         172.9600  149.7100  177.0000 O.2       1 ALA2        0.0000 
     10 O         171.1500  152.1400  178.4400 O.2       1 ALA2        0.0000 
     11 O         172.7500  147.7200  180.0800 O.2       1 ALA2        0.0000 
     12 O         172.9200  149.1000  179.5300 O.2       1 ALA2        0.0000 
     13 N         177.1100  156.7800  179.6500 N.am      1 ALA2        0.0000 
     14 OD1       171.2400  153.3500  173.3900 O.co2     2 ASP3        0.0000 
     15 OD1       172.1900  152.2200  174.9100 O.co2     2 ASP3        0.0000 
     16 OD1       173.1800  151.6900  173.9100 O.co2     2 ASP3        0.0000 
     17 OD1       174.1600  151.1700  172.9200 O.co2     2 ASP3        0.0000 
     18 OD1       172.3600  153.6000  174.3600 O.co2     2 ASP3        0.0000 
     19 OD1       175.4500  152.8100  173.3300 O.co2     2 ASP3        0.0000 
     20 NZ        171.5800  156.1100  172.2700 N.4       3 LYS4        0.0000 
     21 NZ        173.0100  150.3100  174.4700 N.4       3 LYS4        0.0000 
     22 NZ        173.1300  151.0900  176.4400 N.4       3 LYS4        0.0000 
     23 NZ        174.1200  150.5700  175.4400 N.4       3 LYS4        0.0000 
     24 NZ        173.3000  152.4700  175.8800 N.4       3 LYS4        0.0000 
     25 NZ        174.2900  151.9500  174.8900 N.4       3 LYS4        0.0000 
     26 NZ        176.4400  152.2800  172.3300 N.4       3 LYS4        0.0000 
     27 NZ        174.0800  149.9600  177.9700 N.4       3 LYS4        0.0000 
     28 NZ        173.2600  151.8700  178.4100 N.4       3 LYS4        0.0000 
     29 NZ        174.2500  151.3400  177.4100 N.4       3 LYS4        0.0000 
     30 NZ        174.4200  152.7300  176.8600 N.4       3 LYS4        0.0000 
     31 NZ        174.5900  154.1100  176.3000 N.4       3 LYS4        0.0000 
     32 NZ        175.5700  153.5800  175.3000 N.4       3 LYS4        0.0000 
     33 NZ        176.5600  153.0600  174.3000 N.4       3 LYS4        0.0000 
     34 NZ        174.0300  149.3600  180.5000 N.4       3 LYS4        0.0000 
     35 NZ        174.3700  152.1200  179.3800 N.4       3 LYS4        0.0000 
     36 NZ        175.7000  154.3600  177.2700 N.4       3 LYS4        0.0000 
     37 NZ        176.6900  153.8400  176.2700 N.4       3 LYS4        0.0000 
     38 NZ        177.6800  153.3200  175.2700 N.4       3 LYS4        0.0000 
     39 NZ        175.4900  152.3800  180.3500 N.4       3 LYS4        0.0000 
     40 NZ        175.6600  153.7600  179.8000 N.4       3 LYS4        0.0000 
     41 NZ        176.6400  153.2400  178.8000 N.4       3 LYS4        0.0000 
     42 NZ        176.8100  154.6200  178.2400 N.4       3 LYS4        0.0000 
     43 NZ        177.8000  154.0900  177.2400 N.4       3 LYS4        0.0000 
     44 NZ        175.6100  153.1600  182.3200 N.4       3 LYS4        0.0000 
     45 NZ        176.6000  152.6300  181.3200 N.4       3 LYS4        0.0000 
     46 NZ        175.7800  154.5400  181.7600 N.4       3 LYS4        0.0000 
     47 NZ        176.7700  154.0100  180.7700 N.4       3 LYS4        0.0000 
     48 NZ        174.9600  156.4400  182.2100 N.4       3 LYS4        0.0000 
     49 NZ        175.9500  155.9200  181.2100 N.4       3 LYS4        0.0000 
     50 NZ        176.9400  155.4000  180.2100 N.4       3 LYS4        0.0000 
     51 NZ        178.0500  155.6500  181.1800 N.4       3 LYS4        0.0000 
     52 CA        172.0600  151.4400  172.9400 C.3       4 GLY6        0.0000 
     53 CA        171.4100  154.7300  172.8300 C.3       4 GLY6        0.0000 
     54 CA        172.5700  155.5900  171.2700 C.3       4 GLY6        0.0000 
     55 CA        171.8500  149.4500  176.0300 C.3       4 GLY6        0.0000 
     56 CA        172.0200  150.8400  175.4700 C.3       4 GLY6        0.0000 
     57 CA        174.3300  152.5500  172.3600 C.3       4 GLY6        0.0000 
     58 CA        171.5400  155.5100  174.8000 C.3       4 GLY6        0.0000 
     59 CA        173.6800  155.8400  172.2400 C.3       4 GLY6        0.0000 
     60 CA        170.9800  150.7600  179.0000 C.3       4 GLY6        0.0000 
     61 CA        171.3200  153.5200  177.8800 C.3       4 GLY6        0.0000 
     62 CA        171.4900  154.9000  177.3200 C.3       4 GLY6        0.0000 
     63 CA        171.9300  149.6300  180.5200 C.3       4 GLY6        0.0000 
     64 CA        173.9100  148.5800  178.5300 C.3       4 GLY6        0.0000 
     65 CA        177.7600  153.4900  179.7700 C.3       4 GLY6        0.0000 
     66 CA        178.7500  152.9700  178.7700 C.3       4 GLY6        0.0000 
     67 CA        177.9300  154.8700  179.2100 C.3       4 GLY6        0.0000 
     68 CA        179.0400  155.1300  180.1800 C.3       4 GLY6        0.0000 
     69 DU        172.5300  154.9800  173.8000 H         5 CUB7        0.0000 
     70 DU        172.1400  151.6100  177.4400 H         5 CUB7        0.0000 
     71 DU        172.3100  153.0000  176.8800 H         5 CUB7        0.0000 
     72 DU        172.4800  154.3800  176.3300 H         5 CUB7        0.0000 
     73 DU        173.4700  153.8500  175.3300 H         5 CUB7        0.0000 
     74 DU        174.4600  153.3300  174.3300 H         5 CUB7        0.0000 
     75 DU        174.6300  154.7100  173.7700 H         5 CUB7        0.0000 
     76 DU        175.6200  154.1900  172.7700 H         5 CUB7        0.0000 
     77 DU        171.1100  151.5300  180.9600 H         5 CUB7        0.0000 
     78 DU        172.1000  151.0100  179.9700 H         5 CUB7        0.0000 
     79 DU        173.0900  150.4900  178.9700 H         5 CUB7        0.0000 
     80 DU        172.2700  152.3900  179.4100 H         5 CUB7        0.0000 
     81 DU        172.4400  153.7700  178.8500 H         5 CUB7        0.0000 
     82 DU        173.4300  153.2500  177.8500 H         5 CUB7        0.0000 
     83 DU        175.7400  154.9700  174.7400 H         5 CUB7        0.0000 
     84 DU        176.7300  154.4400  173.7400 H         5 CUB7        0.0000 
     85 DU        176.8600  155.2200  175.7100 H         5 CUB7        0.0000 
     86 DU        175.8300  155.1400  179.2400 H         5 CUB7        0.0000 
     87 DU        176.0000  156.5200  178.6800 H         5 CUB7        0.0000 
     88 DU        176.1200  157.3000  180.6500 H         5 CUB7        0.0000 
@<TRIPOS>BOND
@<TRIPOS>SUBSTRUCTURE
     1 ALA2        1 GROUP   
     2 ASP3       14 GROUP   
     3 LYS4       20 GROUP   
     4 GLY6       52 GROUP   
     5 CUB7       69 GROUP   
@<TRIPOS>SET

