#    Name: 6pk7_2_ADP
#    Modification time : Fri May 22 19:26:48 2020

@<TRIPOS>MOLECULE
6pk7_2_ADP
   27    29     1     0     1
SMALL
NO_CHARGES


@<TRIPOS>ATOM
      1 PB        171.4330  163.3660  138.0690 P.3       1 ADP601      0.0000 
      2 O1B       170.2530  164.2740  138.3250 O.co2     1 ADP601      0.0000 
      3 O2B       172.7750  163.9860  138.3780 O.co2     1 ADP601      0.0000 
      4 O3B       171.2610  161.9590  138.5890 O.co2     1 ADP601      0.0000 
      5 PA        172.3190  164.1770  135.5450 P.3       1 ADP601      0.0000 
      6 O1A       171.7470  165.5700  135.6680 O.co2     1 ADP601      0.0000 
      7 O2A       173.7790  163.9340  135.8430 O.co2     1 ADP601      0.0000 
      8 O3A       171.4460  163.1900  136.4690 O.3       1 ADP601      0.0000 
      9 O5'       172.0120  163.6360  134.0610 O.3       1 ADP601      0.0000 
     10 C5'       172.0010  164.5310  132.9510 C.3       1 ADP601      0.0000 
     11 C4'       173.2330  164.2900  132.0900 C.3       1 ADP601      0.0000 
     12 O4'       173.6040  165.5020  131.4270 O.3       1 ADP601      0.0000 
     13 C3'       174.4160  163.8410  132.9330 C.3       1 ADP601      0.0000 
     14 O3'       174.8690  162.5560  132.4960 O.3       1 ADP601      0.0000 
     15 C2'       175.5040  164.8740  132.7240 C.3       1 ADP601      0.0000 
     16 O2'       176.6610  164.2580  132.1480 O.3       1 ADP601      0.0000 
     17 C1'       174.9330  165.9060  131.7650 C.3       1 ADP601      0.0000 
     18 N9        174.9000  167.2360  132.4240 N.pl3     1 ADP601      0.0000 
     19 C8        174.1990  167.5490  133.5300 C.2       1 ADP601      0.0000 
     20 N7        174.3840  168.8480  133.8760 N.2       1 ADP601      0.0000 
     21 C5        175.2240  169.3910  132.9760 C.ar      1 ADP601      0.0000 
     22 C6        175.8360  170.7220  132.7520 C.ar      1 ADP601      0.0000 
     23 N6        175.5780  171.7610  133.5840 N.pl3     1 ADP601      0.0000 
     24 N1        176.6590  170.8650  131.6900 N.ar      1 ADP601      0.0000 
     25 C2        176.9230  169.8420  130.8560 C.ar      1 ADP601      0.0000 
     26 N3        176.4040  168.6100  130.9980 N.ar      1 ADP601      0.0000 
     27 C4        175.5620  168.3240  132.0200 C.ar      1 ADP601      0.0000 
@<TRIPOS>BOND
     1    1    2 ar   
     2    1    3 ar   
     3    1    4 ar   
     4    1    8 1    
     5    5    6 ar   
     6    5    7 ar   
     7    5    8 1    
     8    5    9 1    
     9    9   10 1    
    10   10   11 1    
    11   11   12 1    
    12   11   13 1    
    13   12   17 1    
    14   13   14 1    
    15   13   15 1    
    16   15   16 1    
    17   15   17 1    
    18   17   18 1    
    19   18   19 1    
    20   18   27 1    
    21   19   20 2    
    22   20   21 1    
    23   21   22 ar   
    24   21   27 ar   
    25   22   23 1    
    26   22   24 ar   
    27   24   25 ar   
    28   25   26 ar   
    29   26   27 ar   
@<TRIPOS>SUBSTRUCTURE
     1 ADP601      1 GROUP   
@<TRIPOS>SET
ATOM$ORANGE STATIC     ATOMS   COLORGROUP SYSTEM 
20 10 10 11 11 13 13 15 15 17 17 19 19 21 21 22 22 25 \
25 27 27 

