#    Name: 6pk7_4_ADP_CAVITY_N1_4
#    Modification time : Fri May 22 19:27:24 2020

@<TRIPOS>MOLECULE
6pk7_4_ADP_CAVITY_N1_4
   57     0     5     0     0
SMALL
NO_CHARGES


@<TRIPOS>ATOM
      1 N         171.0300  151.3600  176.4700 N.am      1 ALA2        0.0000 
      2 N         171.2000  152.7400  175.9100 N.am      1 ALA2        0.0000 
      3 N         171.3700  154.1200  175.3500 N.am      1 ALA2        0.0000 
      4 O         173.3500  153.0800  173.3600 O.2       1 ALA2        0.0000 
      5 O         171.8000  148.8500  178.5500 O.2       1 ALA2        0.0000 
      6 O         171.9700  150.2300  178.0000 O.2       1 ALA2        0.0000 
      7 O         172.9600  149.7100  177.0000 O.2       1 ALA2        0.0000 
      8 O         171.1500  152.1400  178.4400 O.2       1 ALA2        0.0000 
      9 O         172.7500  147.7200  180.0800 O.2       1 ALA2        0.0000 
     10 O         172.9200  149.1000  179.5300 O.2       1 ALA2        0.0000 
     11 OD1       171.2400  153.3500  173.3900 O.co2     2 ASP3        0.0000 
     12 OD1       172.1900  152.2200  174.9100 O.co2     2 ASP3        0.0000 
     13 OD1       173.1800  151.6900  173.9100 O.co2     2 ASP3        0.0000 
     14 OD1       174.1600  151.1700  172.9200 O.co2     2 ASP3        0.0000 
     15 OD1       172.3600  153.6000  174.3600 O.co2     2 ASP3        0.0000 
     16 NZ        173.0100  150.3100  174.4700 N.4       3 LYS4        0.0000 
     17 NZ        173.1300  151.0900  176.4400 N.4       3 LYS4        0.0000 
     18 NZ        174.1200  150.5700  175.4400 N.4       3 LYS4        0.0000 
     19 NZ        173.3000  152.4700  175.8800 N.4       3 LYS4        0.0000 
     20 NZ        174.2900  151.9500  174.8900 N.4       3 LYS4        0.0000 
     21 NZ        174.0800  149.9600  177.9700 N.4       3 LYS4        0.0000 
     22 NZ        173.2600  151.8700  178.4100 N.4       3 LYS4        0.0000 
     23 NZ        174.2500  151.3400  177.4100 N.4       3 LYS4        0.0000 
     24 NZ        174.4200  152.7300  176.8600 N.4       3 LYS4        0.0000 
     25 NZ        174.5900  154.1100  176.3000 N.4       3 LYS4        0.0000 
     26 NZ        174.0300  149.3600  180.5000 N.4       3 LYS4        0.0000 
     27 NZ        174.3700  152.1200  179.3800 N.4       3 LYS4        0.0000 
     28 NZ        175.4900  152.3800  180.3500 N.4       3 LYS4        0.0000 
     29 NZ        175.6600  153.7600  179.8000 N.4       3 LYS4        0.0000 
     30 NZ        176.6400  153.2400  178.8000 N.4       3 LYS4        0.0000 
     31 NZ        175.6100  153.1600  182.3200 N.4       3 LYS4        0.0000 
     32 NZ        176.6000  152.6300  181.3200 N.4       3 LYS4        0.0000 
     33 NZ        175.7800  154.5400  181.7600 N.4       3 LYS4        0.0000 
     34 NZ        176.7700  154.0100  180.7700 N.4       3 LYS4        0.0000 
     35 NZ        175.9500  155.9200  181.2100 N.4       3 LYS4        0.0000 
     36 CA        172.0600  151.4400  172.9400 C.3       4 GLY6        0.0000 
     37 CA        171.4100  154.7300  172.8300 C.3       4 GLY6        0.0000 
     38 CA        171.8500  149.4500  176.0300 C.3       4 GLY6        0.0000 
     39 CA        172.0200  150.8400  175.4700 C.3       4 GLY6        0.0000 
     40 CA        171.5400  155.5100  174.8000 C.3       4 GLY6        0.0000 
     41 CA        170.9800  150.7600  179.0000 C.3       4 GLY6        0.0000 
     42 CA        171.3200  153.5200  177.8800 C.3       4 GLY6        0.0000 
     43 CA        171.4900  154.9000  177.3200 C.3       4 GLY6        0.0000 
     44 CA        171.9300  149.6300  180.5200 C.3       4 GLY6        0.0000 
     45 CA        173.9100  148.5800  178.5300 C.3       4 GLY6        0.0000 
     46 DU        172.5300  154.9800  173.8000 H         5 CUB7        0.0000 
     47 DU        172.1400  151.6100  177.4400 H         5 CUB7        0.0000 
     48 DU        172.3100  153.0000  176.8800 H         5 CUB7        0.0000 
     49 DU        172.4800  154.3800  176.3300 H         5 CUB7        0.0000 
     50 DU        173.4700  153.8500  175.3300 H         5 CUB7        0.0000 
     51 DU        174.4600  153.3300  174.3300 H         5 CUB7        0.0000 
     52 DU        171.1100  151.5300  180.9600 H         5 CUB7        0.0000 
     53 DU        172.1000  151.0100  179.9700 H         5 CUB7        0.0000 
     54 DU        173.0900  150.4900  178.9700 H         5 CUB7        0.0000 
     55 DU        172.2700  152.3900  179.4100 H         5 CUB7        0.0000 
     56 DU        172.4400  153.7700  178.8500 H         5 CUB7        0.0000 
     57 DU        173.4300  153.2500  177.8500 H         5 CUB7        0.0000 
@<TRIPOS>BOND
@<TRIPOS>SUBSTRUCTURE
     1 ALA2        1 GROUP   
     2 ASP3       11 GROUP   
     3 LYS4       16 GROUP   
     4 GLY6       36 GROUP   
     5 CUB7       46 GROUP   
@<TRIPOS>SET

