#    Name: 6pk7_3_ADP_CAVITY_N1_6
#    Modification time : Fri May 22 19:27:07 2020

@<TRIPOS>MOLECULE
6pk7_3_ADP_CAVITY_N1_6
   64     0     5     0     0
SMALL
NO_CHARGES


@<TRIPOS>ATOM
      1 O         140.1900  161.5300  172.1200 O.2       1 ALA2        0.0000 
      2 O         141.3100  161.7900  173.1000 O.2       1 ALA2        0.0000 
      3 O         142.4200  162.0400  174.0700 O.2       1 ALA2        0.0000 
      4 O         143.4100  161.5200  173.0700 O.2       1 ALA2        0.0000 
      5 N         143.3700  160.9200  175.5900 N.am      1 ALA2        0.0000 
      6 N         143.5400  162.3000  175.0400 N.am      1 ALA2        0.0000 
      7 N         143.6600  163.0800  177.0100 N.am      1 ALA2        0.0000 
      8 O         141.8500  165.5100  178.4500 O.2       1 ALA2        0.0000 
      9 O         142.8400  164.9800  177.4500 O.2       1 ALA2        0.0000 
     10 O         143.8300  164.4600  176.4500 O.2       1 ALA2        0.0000 
     11 O         143.7900  163.8600  178.9800 O.2       1 ALA2        0.0000 
     12 O         144.7800  163.3300  177.9800 O.2       1 ALA2        0.0000 
     13 N         144.7300  162.7300  180.5000 N.am      1 ALA2        0.0000 
     14 O         144.9000  164.1100  179.9500 O.2       1 ALA2        0.0000 
     15 OD1       139.2000  162.0600  173.1200 O.co2     2 ASP3        0.0000 
     16 OD1       140.3200  162.3100  174.0900 O.co2     2 ASP3        0.0000 
     17 OD1       141.6000  163.9500  174.5100 O.co2     2 ASP3        0.0000 
     18 NZ        137.0500  161.7200  175.6800 N.4       3 LYS4        0.0000 
     19 NZ        138.0400  161.2000  174.6800 N.4       3 LYS4        0.0000 
     20 NZ        138.2100  162.5800  174.1200 N.4       3 LYS4        0.0000 
     21 NZ        138.0000  160.6000  177.2100 N.4       3 LYS4        0.0000 
     22 NZ        139.1600  161.4500  175.6500 N.4       3 LYS4        0.0000 
     23 NZ        139.3300  162.8400  175.0900 N.4       3 LYS4        0.0000 
     24 NZ        140.2700  161.7100  176.6200 N.4       3 LYS4        0.0000 
     25 NZ        140.4400  163.0900  176.0600 N.4       3 LYS4        0.0000 
     26 NZ        140.6100  164.4700  175.5100 N.4       3 LYS4        0.0000 
     27 NZ        139.4100  163.0100  179.5900 N.4       3 LYS4        0.0000 
     28 NZ        140.4000  162.4900  178.5900 N.4       3 LYS4        0.0000 
     29 NZ        141.3900  161.9600  177.5900 N.4       3 LYS4        0.0000 
     30 NZ        140.5700  163.8700  178.0300 N.4       3 LYS4        0.0000 
     31 NZ        141.5600  163.3500  177.0300 N.4       3 LYS4        0.0000 
     32 NZ        140.7400  165.2500  177.4800 N.4       3 LYS4        0.0000 
     33 NZ        141.7300  164.7300  176.4800 N.4       3 LYS4        0.0000 
     34 NZ        140.6900  164.6500  180.0000 N.4       3 LYS4        0.0000 
     35 NZ        141.6800  164.1200  179.0000 N.4       3 LYS4        0.0000 
     36 CA        141.4800  163.1700  172.5400 C.3       4 GLY6        0.0000 
     37 CA        143.2400  160.1400  173.6300 C.3       4 GLY6        0.0000 
     38 CA        142.5900  163.4300  173.5100 C.3       4 GLY6        0.0000 
     39 CA        143.2000  159.5300  176.1500 C.3       4 GLY6        0.0000 
     40 CA        142.7200  164.2000  175.4800 C.3       4 GLY6        0.0000 
     41 CA        143.7100  163.6800  174.4800 C.3       4 GLY6        0.0000 
     42 CA        143.3200  160.3100  178.1200 C.3       4 GLY6        0.0000 
     43 CA        143.4900  161.6900  177.5600 C.3       4 GLY6        0.0000 
     44 CA        143.4500  161.0900  180.0900 C.3       4 GLY6        0.0000 
     45 CA        143.6200  162.4700  179.5300 C.3       4 GLY6        0.0000 
     46 CA        142.9700  165.7600  179.4200 C.3       4 GLY6        0.0000 
     47 CA        143.9600  165.2400  178.4200 C.3       4 GLY6        0.0000 
     48 DU        139.0300  160.6800  173.6800 H         5 CUB7        0.0000 
     49 DU        140.0200  160.1500  172.6800 H         5 CUB7        0.0000 
     50 DU        140.1500  160.9300  174.6500 H         5 CUB7        0.0000 
     51 DU        141.1400  160.4100  173.6500 H         5 CUB7        0.0000 
     52 DU        141.2600  161.1900  175.6200 H         5 CUB7        0.0000 
     53 DU        142.2500  160.6600  174.6200 H         5 CUB7        0.0000 
     54 DU        141.4300  162.5700  175.0600 H         5 CUB7        0.0000 
     55 DU        142.2100  160.0600  177.1500 H         5 CUB7        0.0000 
     56 DU        142.3800  161.4400  176.5900 H         5 CUB7        0.0000 
     57 DU        142.5500  162.8200  176.0400 H         5 CUB7        0.0000 
     58 DU        142.3300  160.8400  179.1200 H         5 CUB7        0.0000 
     59 DU        141.5100  162.7400  179.5600 H         5 CUB7        0.0000 
     60 DU        142.5000  162.2200  178.5600 H         5 CUB7        0.0000 
     61 DU        142.6700  163.6000  178.0000 H         5 CUB7        0.0000 
     62 DU        141.8100  164.9000  180.9700 H         5 CUB7        0.0000 
     63 DU        142.8000  164.3800  179.9700 H         5 CUB7        0.0000 
     64 DU        143.7400  163.2500  181.5000 H         5 CUB7        0.0000 
@<TRIPOS>BOND
@<TRIPOS>SUBSTRUCTURE
     1 ALA2        1 GROUP   
     2 ASP3       15 GROUP   
     3 LYS4       18 GROUP   
     4 GLY6       36 GROUP   
     5 CUB7       48 GROUP   
@<TRIPOS>SET

