#    Name: 6pk7_3_ADP
#    Modification time : Fri May 22 19:27:06 2020

@<TRIPOS>MOLECULE
6pk7_3_ADP
   27    29     1     0     1
SMALL
NO_CHARGES


@<TRIPOS>ATOM
      1 PB        143.5680  163.3660  176.9570 P.3       1 ADP601      0.0000 
      2 O1B       143.7390  161.9600  176.4370 O.co2     1 ADP601      0.0000 
      3 O2B       142.2260  163.9870  176.6480 O.co2     1 ADP601      0.0000 
      4 O3B       144.7480  164.2740  176.7010 O.co2     1 ADP601      0.0000 
      5 PA        142.6820  164.1770  179.4810 P.3       1 ADP601      0.0000 
      6 O1A       141.2220  163.9350  179.1830 O.co2     1 ADP601      0.0000 
      7 O2A       143.2540  165.5700  179.3580 O.co2     1 ADP601      0.0000 
      8 O3A       143.5550  163.1900  178.5570 O.3       1 ADP601      0.0000 
      9 O5'       142.9890  163.6360  180.9650 O.3       1 ADP601      0.0000 
     10 C5'       143.0000  164.5310  182.0750 C.3       1 ADP601      0.0000 
     11 C4'       141.7680  164.2910  182.9360 C.3       1 ADP601      0.0000 
     12 O4'       141.3970  165.5030  183.5990 O.3       1 ADP601      0.0000 
     13 C3'       140.5850  163.8410  182.0930 C.3       1 ADP601      0.0000 
     14 O3'       140.1320  162.5560  182.5300 O.3       1 ADP601      0.0000 
     15 C2'       139.4970  164.8740  182.3030 C.3       1 ADP601      0.0000 
     16 O2'       138.3400  164.2580  182.8780 O.3       1 ADP601      0.0000 
     17 C1'       140.0670  165.9070  183.2610 C.3       1 ADP601      0.0000 
     18 N9        140.1010  167.2360  182.6020 N.pl3     1 ADP601      0.0000 
     19 C8        140.8020  167.5500  181.4960 C.2       1 ADP601      0.0000 
     20 N7        140.6170  168.8480  181.1500 N.2       1 ADP601      0.0000 
     21 C5        139.7770  169.3920  182.0500 C.ar      1 ADP601      0.0000 
     22 C6        139.1650  170.7220  182.2740 C.ar      1 ADP601      0.0000 
     23 N6        139.4230  171.7610  181.4420 N.pl3     1 ADP601      0.0000 
     24 N1        138.3420  170.8660  183.3360 N.ar      1 ADP601      0.0000 
     25 C2        138.0780  169.8430  184.1700 C.ar      1 ADP601      0.0000 
     26 N3        138.5970  168.6100  184.0280 N.ar      1 ADP601      0.0000 
     27 C4        139.4390  168.3250  183.0060 C.ar      1 ADP601      0.0000 
@<TRIPOS>BOND
     1    1    2 ar   
     2    1    3 ar   
     3    1    4 ar   
     4    1    8 1    
     5    5    6 ar   
     6    5    7 ar   
     7    5    8 1    
     8    5    9 1    
     9    9   10 1    
    10   10   11 1    
    11   11   12 1    
    12   11   13 1    
    13   12   17 1    
    14   13   14 1    
    15   13   15 1    
    16   15   16 1    
    17   15   17 1    
    18   17   18 1    
    19   18   19 1    
    20   18   27 1    
    21   19   20 2    
    22   20   21 1    
    23   21   22 ar   
    24   21   27 ar   
    25   22   23 1    
    26   22   24 ar   
    27   24   25 ar   
    28   25   26 ar   
    29   26   27 ar   
@<TRIPOS>SUBSTRUCTURE
     1 ADP601      1 GROUP   
@<TRIPOS>SET
ATOM$ORANGE STATIC     ATOMS   COLORGROUP SYSTEM 
20 10 10 11 11 13 13 15 15 17 17 19 19 21 21 22 22 25 \
25 27 27 

