#    Name: 6pk7_4_ADP
#    Modification time : Fri May 22 19:27:22 2020

@<TRIPOS>MOLECULE
6pk7_4_ADP
   27    29     1     0     1
SMALL
NO_CHARGES


@<TRIPOS>ATOM
      1 PB        171.4370  151.6340  176.9540 P.3       1 ADP601      0.0000 
      2 O1B       171.2650  153.0400  176.4340 O.co2     1 ADP601      0.0000 
      3 O2B       172.7780  151.0130  176.6450 O.co2     1 ADP601      0.0000 
      4 O3B       170.2570  150.7250  176.6980 O.co2     1 ADP601      0.0000 
      5 PA        172.3240  150.8220  179.4780 P.3       1 ADP601      0.0000 
      6 O1A       173.7840  151.0650  179.1790 O.co2     1 ADP601      0.0000 
      7 O2A       171.7510  149.4300  179.3550 O.co2     1 ADP601      0.0000 
      8 O3A       171.4500  151.8100  178.5540 O.3       1 ADP601      0.0000 
      9 O5'       172.0160  151.3640  180.9620 O.3       1 ADP601      0.0000 
     10 C5'       172.0060  150.4690  182.0720 C.3       1 ADP601      0.0000 
     11 C4'       173.2390  150.7090  182.9330 C.3       1 ADP601      0.0000 
     12 O4'       173.6090  149.4970  183.5960 O.3       1 ADP601      0.0000 
     13 C3'       174.4210  151.1590  182.0900 C.3       1 ADP601      0.0000 
     14 O3'       174.8740  152.4440  182.5260 O.3       1 ADP601      0.0000 
     15 C2'       175.5090  150.1260  182.2990 C.3       1 ADP601      0.0000 
     16 O2'       176.6670  150.7420  182.8740 O.3       1 ADP601      0.0000 
     17 C1'       174.9390  149.0930  183.2570 C.3       1 ADP601      0.0000 
     18 N9        174.9050  147.7640  182.5980 N.pl3     1 ADP601      0.0000 
     19 C8        174.2030  147.4500  181.4920 C.2       1 ADP601      0.0000 
     20 N7        174.3890  146.1520  181.1460 N.2       1 ADP601      0.0000 
     21 C5        175.2280  145.6080  182.0470 C.ar      1 ADP601      0.0000 
     22 C6        175.8410  144.2780  182.2700 C.ar      1 ADP601      0.0000 
     23 N6        175.5820  143.2390  181.4380 N.pl3     1 ADP601      0.0000 
     24 N1        176.6640  144.1340  183.3320 N.ar      1 ADP601      0.0000 
     25 C2        176.9290  145.1570  184.1660 C.ar      1 ADP601      0.0000 
     26 N3        176.4090  146.3900  184.0240 N.ar      1 ADP601      0.0000 
     27 C4        175.5670  146.6750  183.0020 C.ar      1 ADP601      0.0000 
@<TRIPOS>BOND
     1    1    2 ar   
     2    1    3 ar   
     3    1    4 ar   
     4    1    8 1    
     5    5    6 ar   
     6    5    7 ar   
     7    5    8 1    
     8    5    9 1    
     9    9   10 1    
    10   10   11 1    
    11   11   12 1    
    12   11   13 1    
    13   12   17 1    
    14   13   14 1    
    15   13   15 1    
    16   15   16 1    
    17   15   17 1    
    18   17   18 1    
    19   18   19 1    
    20   18   27 1    
    21   19   20 2    
    22   20   21 1    
    23   21   22 ar   
    24   21   27 ar   
    25   22   23 1    
    26   22   24 ar   
    27   24   25 ar   
    28   25   26 ar   
    29   26   27 ar   
@<TRIPOS>SUBSTRUCTURE
     1 ADP601      1 GROUP   
@<TRIPOS>SET
ATOM$ORANGE STATIC     ATOMS   COLORGROUP SYSTEM 
20 10 10 11 11 13 13 15 15 17 17 19 19 21 21 22 22 25 \
25 27 27 

