#    Name: 6pk7_1_ADP
#    Modification time : Fri May 22 19:26:31 2020

@<TRIPOS>MOLECULE
6pk7_1_ADP
   27    29     1     0     1
SMALL
NO_CHARGES


@<TRIPOS>ATOM
      1 PB        143.5640  151.6340  138.0720 P.3       1 ADP601      0.0000 
      2 O1B       144.7430  150.7260  138.3280 O.co2     1 ADP601      0.0000 
      3 O2B       142.2220  151.0140  138.3810 O.co2     1 ADP601      0.0000 
      4 O3B       143.7350  153.0410  138.5920 O.co2     1 ADP601      0.0000 
      5 PA        142.6770  150.8230  135.5480 P.3       1 ADP601      0.0000 
      6 O1A       143.2500  149.4300  135.6710 O.co2     1 ADP601      0.0000 
      7 O2A       141.2170  151.0660  135.8470 O.co2     1 ADP601      0.0000 
      8 O3A       143.5500  151.8100  136.4720 O.3       1 ADP601      0.0000 
      9 O5'       142.9840  151.3640  134.0640 O.3       1 ADP601      0.0000 
     10 C5'       142.9950  150.4690  132.9540 C.3       1 ADP601      0.0000 
     11 C4'       141.7620  150.7100  132.0930 C.3       1 ADP601      0.0000 
     12 O4'       141.3920  149.4980  131.4310 O.3       1 ADP601      0.0000 
     13 C3'       140.5800  151.1590  132.9360 C.3       1 ADP601      0.0000 
     14 O3'       140.1260  152.4440  132.5000 O.3       1 ADP601      0.0000 
     15 C2'       139.4910  150.1260  132.7270 C.3       1 ADP601      0.0000 
     16 O2'       138.3340  150.7420  132.1520 O.3       1 ADP601      0.0000 
     17 C1'       140.0620  149.0940  131.7690 C.3       1 ADP601      0.0000 
     18 N9        140.0950  147.7640  132.4280 N.pl3     1 ADP601      0.0000 
     19 C8        140.7970  147.4510  133.5340 C.2       1 ADP601      0.0000 
     20 N7        140.6120  146.1520  133.8800 N.2       1 ADP601      0.0000 
     21 C5        139.7720  145.6090  132.9790 C.ar      1 ADP601      0.0000 
     22 C6        139.1600  144.2780  132.7560 C.ar      1 ADP601      0.0000 
     23 N6        139.4180  143.2390  133.5880 N.pl3     1 ADP601      0.0000 
     24 N1        138.3360  144.1350  131.6940 N.ar      1 ADP601      0.0000 
     25 C2        138.0720  145.1580  130.8600 C.ar      1 ADP601      0.0000 
     26 N3        138.5910  146.3900  131.0020 N.ar      1 ADP601      0.0000 
     27 C4        139.4340  146.6760  132.0240 C.ar      1 ADP601      0.0000 
@<TRIPOS>BOND
     1    1    2 ar   
     2    1    3 ar   
     3    1    4 ar   
     4    1    8 1    
     5    5    6 ar   
     6    5    7 ar   
     7    5    8 1    
     8    5    9 1    
     9    9   10 1    
    10   10   11 1    
    11   11   12 1    
    12   11   13 1    
    13   12   17 1    
    14   13   14 1    
    15   13   15 1    
    16   15   16 1    
    17   15   17 1    
    18   17   18 1    
    19   18   19 1    
    20   18   27 1    
    21   19   20 2    
    22   20   21 1    
    23   21   22 ar   
    24   21   27 ar   
    25   22   23 1    
    26   22   24 ar   
    27   24   25 ar   
    28   25   26 ar   
    29   26   27 ar   
@<TRIPOS>SUBSTRUCTURE
     1 ADP601      1 GROUP   
@<TRIPOS>SET
ATOM$ORANGE STATIC     ATOMS   COLORGROUP SYSTEM 
20 10 10 11 11 13 13 15 15 17 17 19 19 21 21 22 22 25 \
25 27 27 

