#    Name: 5o6h_1_MYA
#    Modification time : Fri May 22 19:16:44 2020

@<TRIPOS>MOLECULE
5o6h_1_MYA
   63    65     1     0     0
SMALL
NO_CHARGES


@<TRIPOS>ATOM
      1 S1        -19.3710    9.2460  -12.2150 S.3       1 MYA2001     0.0000 
      2 C2        -17.7470    8.4910  -12.2000 C.3       1 MYA2001     0.0000 
      3 C3        -17.4260    7.9650  -10.7660 C.3       1 MYA2001     0.0000 
      4 N4        -16.0820    7.4550  -10.6670 N.am      1 MYA2001     0.0000 
      5 C5        -15.7180    6.1490  -10.7160 C.2       1 MYA2001     0.0000 
      6 O5        -16.5640    5.2550  -10.9130 O.2       1 MYA2001     0.0000 
      7 C6        -14.2980    5.8530  -10.6300 C.3       1 MYA2001     0.0000 
      8 C7        -13.9430    4.5080   -9.9430 C.3       1 MYA2001     0.0000 
      9 N8        -14.5410    4.4830   -8.5790 N.am      1 MYA2001     0.0000 
     10 C9        -14.1780    5.2670   -7.5600 C.2       1 MYA2001     0.0000 
     11 O9        -13.2300    6.0810   -7.7050 O.2       1 MYA2001     0.0000 
     12 C10       -14.8880    5.1230   -6.2340 C.3       1 MYA2001     0.0000 
     13 O10       -15.5000    3.7750   -6.2470 O.3       1 MYA2001     0.0000 
     14 C11       -15.9980    6.1990   -6.0380 C.3       1 MYA2001     0.0000 
     15 C12       -16.8360    5.8550   -4.7710 C.3       1 MYA2001     0.0000 
     16 C13       -16.9770    6.3450   -7.2240 C.3       1 MYA2001     0.0000 
     17 C14       -15.2550    7.5480   -5.7770 C.3       1 MYA2001     0.0000 
     18 N1A       -21.6700    8.9250   -7.5030 N.ar      1 MYA2001     0.0000 
     19 O1A       -16.2110    6.4450   -0.3500 O.co2     1 MYA2001     0.0000 
     20 P1A       -17.2100    5.3650   -0.3630 P.3       1 MYA2001     0.0000 
     21 C1X       -21.8590    6.4160   -3.0180 C.3       1 MYA2001     0.0000 
     22 C2A       -22.2450    9.2660   -6.3510 C.ar      1 MYA2001     0.0000 
     23 O2A       -17.1630    4.2860    0.7370 O.co2     1 MYA2001     0.0000 
     24 P2A       -15.9170    4.3650   -2.7310 P.3       1 MYA2001     0.0000 
     25 C2M       -19.0450   10.8660  -11.6360 C.2       1 MYA2001     0.0000 
     26 O2M       -17.9010   11.2470  -11.5850 O.2       1 MYA2001     0.0000 
     27 C2X       -22.4590    5.0950   -2.5350 C.3       1 MYA2001     0.0000 
     28 O2X       -23.7810    4.8490   -3.0550 O.3       1 MYA2001     0.0000 
     29 N3A       -22.2510    8.4960   -5.2200 N.ar      1 MYA2001     0.0000 
     30 O3A       -17.1860    4.5690   -1.7840 O.3       1 MYA2001     0.0000 
     31 C3M       -20.2310   11.7050  -11.1900 C.3       1 MYA2001     0.0000 
     32 C3X       -22.3220    5.3540   -1.0310 C.3       1 MYA2001     0.0000 
     33 O3X       -23.3710    6.2830   -0.6580 O.3       1 MYA2001     0.0000 
     34 P3X       -24.5750    5.6970    0.2270 P.3       1 MYA2001     0.0000 
     35 C4A       -21.5600    7.3650   -5.3200 C.ar      1 MYA2001     0.0000 
     36 O4A       -16.2820    3.2030   -3.6510 O.co2     1 MYA2001     0.0000 
     37 C4M       -20.1430   11.8130   -9.6610 C.3       1 MYA2001     0.0000 
     38 C4X       -20.9810    6.0720   -0.8980 C.3       1 MYA2001     0.0000 
     39 O4X       -20.7320    6.7040   -2.2030 O.3       1 MYA2001     0.0000 
     40 C5A       -20.9460    6.9370   -6.4820 C.ar      1 MYA2001     0.0000 
     41 O5A       -14.6480    4.2870   -2.0360 O.co2     1 MYA2001     0.0000 
     42 C5M       -21.3970   12.5060   -9.0960 C.3       1 MYA2001     0.0000 
     43 C5X       -19.8020    5.1670   -0.5500 C.3       1 MYA2001     0.0000 
     44 O5X       -18.6700    5.9910   -0.4150 O.3       1 MYA2001     0.0000 
     45 C6A       -20.9930    7.7690   -7.6340 C.ar      1 MYA2001     0.0000 
     46 N6A       -20.4100    7.4600   -8.8610 N.pl3     1 MYA2001     0.0000 
     47 O6A       -15.9350    5.6850   -3.6390 O.3       1 MYA2001     0.0000 
     48 C6M       -21.3050   12.6940   -7.5440 C.3       1 MYA2001     0.0000 
     49 N7A       -20.3720    5.7430   -6.2450 N.2       1 MYA2001     0.0000 
     50 O7A       -25.0290    4.5120   -0.6710 O.co2     1 MYA2001     0.0000 
     51 C7M       -22.5410   13.3390   -6.9180 C.3       1 MYA2001     0.0000 
     52 C8A       -20.6420    5.4390   -4.9610 C.2       1 MYA2001     0.0000 
     53 O8A       -23.9710    5.2940    1.5850 O.co2     1 MYA2001     0.0000 
     54 C8M       -22.7010   14.8370   -7.2320 C.3       1 MYA2001     0.0000 
     55 N9A       -21.4030    6.3840   -4.3860 N.pl3     1 MYA2001     0.0000 
     56 O9A       -25.5780    6.7710    0.3890 O.co2     1 MYA2001     0.0000 
     57 C9M       -23.9380   15.4520   -6.5930 C.3       1 MYA2001     0.0000 
     58 CAM       -23.9930   17.0030   -6.8250 C.3       1 MYA2001     0.0000 
     59 CBM       -22.9250   17.8300   -6.1100 C.3       1 MYA2001     0.0000 
     60 CCM       -23.0540   19.2990   -6.4760 C.3       1 MYA2001     0.0000 
     61 CDM       -24.3380   20.0210   -5.9850 C.3       1 MYA2001     0.0000 
     62 CEM       -24.2670   21.5280   -6.2090 C.3       1 MYA2001     0.0000 
     63 CFM       -25.6070   22.2340   -5.9000 C.3       1 MYA2001     0.0000 
@<TRIPOS>BOND
     1    1    2 1    
     2    1   25 1    
     3    2    3 1    
     4    3    4 1    
     5    4    5 am   
     6    5    6 2    
     7    5    7 1    
     8    7    8 1    
     9    8    9 1    
    10    9   10 am   
    11   10   11 2    
    12   10   12 1    
    13   12   13 1    
    14   12   14 1    
    15   14   15 1    
    16   14   16 1    
    17   14   17 1    
    18   15   47 1    
    19   18   22 ar   
    20   18   45 ar   
    21   19   20 ar   
    22   20   23 ar   
    23   20   30 1    
    24   20   44 1    
    25   21   27 1    
    26   21   39 1    
    27   21   55 1    
    28   22   29 ar   
    29   24   30 1    
    30   24   36 ar   
    31   24   41 ar   
    32   24   47 1    
    33   25   26 2    
    34   25   31 1    
    35   27   28 1    
    36   27   32 1    
    37   29   35 ar   
    38   31   37 1    
    39   32   33 1    
    40   32   38 1    
    41   33   34 1    
    42   34   50 ar   
    43   34   53 ar   
    44   34   56 ar   
    45   35   40 ar   
    46   35   55 1    
    47   37   42 1    
    48   38   39 1    
    49   38   43 1    
    50   40   45 ar   
    51   40   49 1    
    52   42   48 1    
    53   43   44 1    
    54   45   46 1    
    55   48   51 1    
    56   49   52 2    
    57   51   54 1    
    58   52   55 1    
    59   54   57 1    
    60   57   58 1    
    61   58   59 1    
    62   59   60 1    
    63   60   61 1    
    64   61   62 1    
    65   62   63 1    
@<TRIPOS>SUBSTRUCTURE
     1 MYA2001     1 GROUP   
@<TRIPOS>SET

