#    Name: 5o6h_2_MYA
#    Modification time : Fri May 22 19:16:53 2020

@<TRIPOS>MOLECULE
5o6h_2_MYA
   63    65     1     0     0
SMALL
NO_CHARGES


@<TRIPOS>ATOM
      1 S1        -22.4580   56.1320  -17.4670 S.3       1 MYA2001     0.0000 
      2 C2        -20.9340   57.0850  -17.4750 C.3       1 MYA2001     0.0000 
      3 C3        -20.7100   57.6910  -18.8590 C.3       1 MYA2001     0.0000 
      4 N4        -19.4370   58.3620  -18.9960 N.am      1 MYA2001     0.0000 
      5 C5        -19.2290   59.6630  -18.9350 C.2       1 MYA2001     0.0000 
      6 O5        -20.2150   60.4740  -18.7370 O.2       1 MYA2001     0.0000 
      7 C6        -17.8440   60.1970  -19.0240 C.3       1 MYA2001     0.0000 
      8 C7        -17.7330   61.5660  -19.7450 C.3       1 MYA2001     0.0000 
      9 N8        -18.2890   61.5080  -21.1070 N.am      1 MYA2001     0.0000 
     10 C9        -17.8220   60.7730  -22.1040 C.2       1 MYA2001     0.0000 
     11 O9        -16.8070   60.1000  -21.9430 O.2       1 MYA2001     0.0000 
     12 C10       -18.5300   60.8090  -23.4160 C.3       1 MYA2001     0.0000 
     13 O10       -19.3320   62.0390  -23.3870 O.3       1 MYA2001     0.0000 
     14 C11       -19.4750   59.6100  -23.6430 C.3       1 MYA2001     0.0000 
     15 C12       -20.3150   59.7620  -24.9020 C.3       1 MYA2001     0.0000 
     16 C13       -20.4720   59.3330  -22.4930 C.3       1 MYA2001     0.0000 
     17 C14       -18.5170   58.3790  -23.8410 C.3       1 MYA2001     0.0000 
     18 N1A       -24.7160   56.1830  -22.1400 N.ar      1 MYA2001     0.0000 
     19 O1A       -19.6070   59.2990  -29.3230 O.co2     1 MYA2001     0.0000 
     20 P1A       -20.7460   60.2580  -29.3010 P.3       1 MYA2001     0.0000 
     21 C1X       -25.2520   58.5630  -26.6920 C.3       1 MYA2001     0.0000 
     22 C2A       -25.3010   55.7380  -23.2550 C.ar      1 MYA2001     0.0000 
     23 O2A       -20.7590   61.2600  -30.4140 O.co2     1 MYA2001     0.0000 
     24 P2A       -19.6020   61.4180  -26.9020 P.3       1 MYA2001     0.0000 
     25 C2M       -21.9000   54.5490  -18.0430 C.2       1 MYA2001     0.0000 
     26 O2M       -20.7060   54.2690  -18.0930 O.2       1 MYA2001     0.0000 
     27 C2X       -25.9550   59.8200  -27.1950 C.3       1 MYA2001     0.0000 
     28 O2X       -27.3060   59.8570  -26.7070 O.3       1 MYA2001     0.0000 
     29 N3A       -25.4090   56.4480  -24.4250 N.ar      1 MYA2001     0.0000 
     30 O3A       -20.8150   61.0480  -27.8710 O.3       1 MYA2001     0.0000 
     31 C3M       -22.9530   53.5340  -18.4870 C.3       1 MYA2001     0.0000 
     32 C3X       -25.8370   59.5510  -28.6890 C.3       1 MYA2001     0.0000 
     33 O3X       -26.7620   58.5270  -29.0800 O.3       1 MYA2001     0.0000 
     34 P3X       -28.0340   58.9930  -29.9430 P.3       1 MYA2001     0.0000 
     35 C4A       -24.8740   57.7020  -24.3350 C.ar      1 MYA2001     0.0000 
     36 O4A       -20.1500   62.5140  -25.9960 O.co2     1 MYA2001     0.0000 
     37 C4M       -22.9120   53.4490  -20.0200 C.3       1 MYA2001     0.0000 
     38 C4X       -24.4210   59.0270  -28.8020 C.3       1 MYA2001     0.0000 
     39 O4X       -24.1090   58.4350  -27.5020 O.3       1 MYA2001     0.0000 
     40 C5A       -24.2950   58.2270  -23.1980 C.ar      1 MYA2001     0.0000 
     41 O5A       -18.3690   61.6500  -27.6180 O.co2     1 MYA2001     0.0000 
     42 C5M       -24.0130   52.6100  -20.6110 C.3       1 MYA2001     0.0000 
     43 C5X       -23.3950   60.0720  -29.0890 C.3       1 MYA2001     0.0000 
     44 O5X       -22.1040   59.4390  -29.2360 O.3       1 MYA2001     0.0000 
     45 C6A       -24.2390   57.4140  -22.0640 C.ar      1 MYA2001     0.0000 
     46 N6A       -23.7130   57.7870  -20.8900 N.pl3     1 MYA2001     0.0000 
     47 O6A       -19.4080   60.0850  -26.0180 O.3       1 MYA2001     0.0000 
     48 C6M       -23.9120   52.4260  -22.1070 C.3       1 MYA2001     0.0000 
     49 N7A       -23.8270   59.4890  -23.4770 N.2       1 MYA2001     0.0000 
     50 O7A       -28.6430   60.1280  -29.0590 O.co2     1 MYA2001     0.0000 
     51 C7M       -25.0550   51.6290  -22.7430 C.3       1 MYA2001     0.0000 
     52 C8A       -24.1210   59.7270  -24.7470 C.2       1 MYA2001     0.0000 
     53 O8A       -27.6240   59.5530  -31.2540 O.co2     1 MYA2001     0.0000 
     54 C8M       -24.9930   50.1300  -22.4220 C.3       1 MYA2001     0.0000 
     55 N9A       -24.7680   58.6720  -25.2640 N.pl3     1 MYA2001     0.0000 
     56 O9A       -28.8960   57.8010  -30.0700 O.co2     1 MYA2001     0.0000 
     57 C9M       -26.1430   49.3400  -23.0690 C.3       1 MYA2001     0.0000 
     58 CAM       -26.0270   47.8080  -22.8300 C.3       1 MYA2001     0.0000 
     59 CBM       -24.8260   47.1350  -23.5860 C.3       1 MYA2001     0.0000 
     60 CCM       -24.7230   45.6610  -23.2610 C.3       1 MYA2001     0.0000 
     61 CDM       -25.9390   44.8090  -23.6950 C.3       1 MYA2001     0.0000 
     62 CEM       -25.6530   43.2560  -23.4980 C.3       1 MYA2001     0.0000 
     63 CFM       -26.9080   42.4130  -23.7900 C.3       1 MYA2001     0.0000 
@<TRIPOS>BOND
     1    1    2 1    
     2    1   25 1    
     3    2    3 1    
     4    3    4 1    
     5    4    5 am   
     6    5    6 2    
     7    5    7 1    
     8    7    8 1    
     9    8    9 1    
    10    9   10 am   
    11   10   11 2    
    12   10   12 1    
    13   12   13 1    
    14   12   14 1    
    15   14   15 1    
    16   14   16 1    
    17   14   17 1    
    18   15   47 1    
    19   18   22 ar   
    20   18   45 ar   
    21   19   20 ar   
    22   20   23 ar   
    23   20   30 1    
    24   20   44 1    
    25   21   27 1    
    26   21   39 1    
    27   21   55 1    
    28   22   29 ar   
    29   24   30 1    
    30   24   36 ar   
    31   24   41 ar   
    32   24   47 1    
    33   25   26 2    
    34   25   31 1    
    35   27   28 1    
    36   27   32 1    
    37   29   35 ar   
    38   31   37 1    
    39   32   33 1    
    40   32   38 1    
    41   33   34 1    
    42   34   50 ar   
    43   34   53 ar   
    44   34   56 ar   
    45   35   40 ar   
    46   35   55 1    
    47   37   42 1    
    48   38   39 1    
    49   38   43 1    
    50   40   45 ar   
    51   40   49 1    
    52   42   48 1    
    53   43   44 1    
    54   45   46 1    
    55   48   51 1    
    56   49   52 2    
    57   51   54 1    
    58   52   55 1    
    59   54   57 1    
    60   57   58 1    
    61   58   59 1    
    62   59   60 1    
    63   60   61 1    
    64   61   62 1    
    65   62   63 1    
@<TRIPOS>SUBSTRUCTURE
     1 MYA2001     1 GROUP   
@<TRIPOS>SET

