#    Name: 6q84_1_GTP_CAVITY_N1_4
#    Modification time : Fri May 22 19:27:45 2020

@<TRIPOS>MOLECULE
6q84_1_GTP_CAVITY_N1_4
   96     0     7     0     0
SMALL
NO_CHARGES


@<TRIPOS>ATOM
      1 OG        -51.9100   -0.8600  159.3800 O.3       1 SER1        0.0000 
      2 OG        -51.6700   -0.3000  160.7500 O.3       1 SER1        0.0000 
      3 OG        -50.2900   -0.9100  160.7500 O.3       1 SER1        0.0000 
      4 OG        -50.6000   -1.6000  162.7300 O.3       1 SER1        0.0000 
      5 OG        -51.4200    0.2500  162.1300 O.3       1 SER1        0.0000 
      6 OG        -50.0500   -0.3500  162.1200 O.3       1 SER1        0.0000 
      7 OG        -52.2700   -1.7000  164.7100 O.3       1 SER1        0.0000 
      8 OG        -50.9000   -2.3000  164.7100 O.3       1 SER1        0.0000 
      9 OG        -51.7200   -0.4500  164.1100 O.3       1 SER1        0.0000 
     10 N         -51.6400    3.5100  157.5600 N.am      2 ALA2        0.0000 
     11 N         -48.9200   -1.5100  160.7500 N.am      2 ALA2        0.0000 
     12 N         -51.1200    0.9500  160.1500 N.am      2 ALA2        0.0000 
     13 N         -50.5700    2.2100  159.5400 N.am      2 ALA2        0.0000 
     14 N         -51.3900    4.0700  158.9300 N.am      2 ALA2        0.0000 
     15 N         -50.0200    3.4700  158.9300 N.am      2 ALA2        0.0000 
     16 N         -50.8400    5.3200  158.3200 N.am      2 ALA2        0.0000 
     17 O         -49.2200   -2.2100  162.7300 O.2       2 ALA2        0.0000 
     18 N         -48.6700   -0.9500  162.1200 N.am      2 ALA2        0.0000 
     19 N         -50.8700    1.5100  161.5200 N.am      2 ALA2        0.0000 
     20 N         -48.1200    0.3000  161.5100 N.am      2 ALA2        0.0000 
     21 N         -50.3200    2.7700  160.9100 N.am      2 ALA2        0.0000 
     22 N         -49.7700    4.0200  160.3000 N.am      2 ALA2        0.0000 
     23 O         -47.0200    2.8100  160.2900 O.2       2 ALA2        0.0000 
     24 N         -51.1700    0.8100  163.5000 N.am      2 ALA2        0.0000 
     25 N         -52.0300   -1.1400  166.0800 N.am      2 ALA2        0.0000 
     26 N         -50.6500   -1.7500  166.0800 N.am      2 ALA2        0.0000 
     27 O         -51.4800    0.1100  165.4800 O.2       2 ALA2        0.0000 
     28 OD1       -52.0700    2.5400  151.4700 O.co2     3 ASP3        0.0000 
     29 OD1       -52.1300    2.4000  154.8200 O.co2     3 ASP3        0.0000 
     30 OD1       -51.5800    3.6600  154.2100 O.co2     3 ASP3        0.0000 
     31 OD1       -49.4400    1.0500  158.1600 O.co2     3 ASP3        0.0000 
     32 OD1       -47.5200    1.7000  157.5500 O.co2     3 ASP3        0.0000 
     33 OD1       -49.7400    0.3500  160.1400 O.co2     3 ASP3        0.0000 
     34 OD1       -48.3700   -0.2500  160.1400 O.co2     3 ASP3        0.0000 
     35 OD1       -47.8200    1.0000  159.5300 O.co2     3 ASP3        0.0000 
     36 OD1       -47.2700    2.2600  158.9200 O.co2     3 ASP3        0.0000 
     37 OD1       -47.5700    1.5600  160.9000 O.co2     3 ASP3        0.0000 
     38 OD1       -46.2000    0.9600  160.9000 O.co2     3 ASP3        0.0000 
     39 NZ        -51.5500   -0.0200  154.0500 N.4       4 LYS4        0.0000 
     40 CZ        -52.4100   -1.9700  156.6400 C.ar      5 PHE5        0.0000 
     41 CZ        -51.8600   -0.7100  156.0300 C.ar      5 PHE5        0.0000 
     42 CZ        -52.6800    1.1400  155.4300 C.ar      5 PHE5        0.0000 
     43 CZ        -51.3100    0.5400  155.4200 C.ar      5 PHE5        0.0000 
     44 CZ        -52.1600   -1.4100  158.0100 C.ar      5 PHE5        0.0000 
     45 CZ        -51.6100   -0.1600  157.4000 C.ar      5 PHE5        0.0000 
     46 CZ        -51.0600    1.1000  156.8000 C.ar      5 PHE5        0.0000 
     47 CZ        -51.8800    2.9600  156.1900 C.ar      5 PHE5        0.0000 
     48 CZ        -47.7600    1.1500  156.1800 C.ar      5 PHE5        0.0000 
     49 CZ        -48.5900    3.0000  155.5800 C.ar      5 PHE5        0.0000 
     50 CZ        -51.3600    0.4000  158.7800 C.ar      5 PHE5        0.0000 
     51 CZ        -52.1900    2.2600  158.1700 C.ar      5 PHE5        0.0000 
     52 CZ        -50.8100    1.6500  158.1700 C.ar      5 PHE5        0.0000 
     53 CZ        -53.0100    4.1200  157.5600 C.ar      5 PHE5        0.0000 
     54 CZ        -49.5300   -2.9100  164.7100 C.ar      5 PHE5        0.0000 
     55 CZ        -50.3500   -1.0500  164.1000 C.ar      5 PHE5        0.0000 
     56 CZ        -48.9800   -1.6500  164.1000 C.ar      5 PHE5        0.0000 
     57 CZ        -49.8000    0.2100  163.4900 C.ar      5 PHE5        0.0000 
     58 CZ        -46.5000    0.2600  162.8800 C.ar      5 PHE5        0.0000 
     59 CA        -50.7000    1.9400  151.4700 C.3       6 GLY6        0.0000 
     60 CA        -50.1500    3.2000  150.8600 C.3       6 GLY6        0.0000 
     61 CA        -52.1000   -1.2700  154.6600 C.3       6 GLY6        0.0000 
     62 CA        -50.7300   -1.8700  154.6600 C.3       6 GLY6        0.0000 
     63 CA        -50.1800   -0.6200  154.0500 C.3       6 GLY6        0.0000 
     64 CA        -51.0000    1.2400  153.4500 C.3       6 GLY6        0.0000 
     65 CA        -50.4500    2.5000  152.8400 C.3       6 GLY6        0.0000 
     66 CA        -49.9000    3.7500  152.2300 C.3       6 GLY6        0.0000 
     67 CA        -48.5300    3.1500  152.2300 C.3       6 GLY6        0.0000 
     68 CA        -51.0300   -2.5700  156.6400 C.3       6 GLY6        0.0000 
     69 CA        -50.4800   -1.3200  156.0300 C.3       6 GLY6        0.0000 
     70 CA        -49.9300   -0.0600  155.4200 C.3       6 GLY6        0.0000 
     71 CA        -49.3800    1.1900  154.8100 C.3       6 GLY6        0.0000 
     72 CA        -48.8300    2.4500  154.2000 C.3       6 GLY6        0.0000 
     73 CA        -52.7100   -2.6700  158.6200 C.3       6 GLY6        0.0000 
     74 CA        -50.7900   -2.0200  158.0100 C.3       6 GLY6        0.0000 
     75 CA        -50.2400   -0.7600  157.4000 C.3       6 GLY6        0.0000 
     76 CA        -49.6900    0.4900  156.7900 C.3       6 GLY6        0.0000 
     77 CA        -50.5400   -1.4600  159.3800 C.3       6 GLY6        0.0000 
     78 CA        -49.9900   -0.2100  158.7700 C.3       6 GLY6        0.0000 
     79 CA        -49.5000    0.9100  161.5100 C.3       6 GLY6        0.0000 
     80 CA        -48.9500    2.1600  160.9100 C.3       6 GLY6        0.0000 
     81 CA        -48.4000    3.4200  160.3000 C.3       6 GLY6        0.0000 
     82 CA        -50.6200    2.0700  162.8900 C.3       6 GLY6        0.0000 
     83 CA        -47.3300    2.1100  162.2700 C.3       6 GLY6        0.0000 
     84 CA        -48.1500    3.9700  161.6700 C.3       6 GLY6        0.0000 
     85 CA        -53.4000   -0.5400  166.0900 C.3       6 GLY6        0.0000 
     86 CA        -53.1500    0.0200  167.4600 C.3       6 GLY6        0.0000 
     87 DU        -50.7600    1.8000  154.8200 H         7 CUB7        0.0000 
     88 DU        -50.2100    3.0500  154.2100 H         7 CUB7        0.0000 
     89 DU        -49.6600    4.3100  153.6000 H         7 CUB7        0.0000 
     90 DU        -50.5100    2.3500  156.1900 H         7 CUB7        0.0000 
     91 DU        -49.1400    1.7500  156.1800 H         7 CUB7        0.0000 
     92 DU        -49.9600    3.6100  155.5800 H         7 CUB7        0.0000 
     93 DU        -50.2600    2.9100  157.5600 H         7 CUB7        0.0000 
     94 DU        -48.8900    2.3100  157.5600 H         7 CUB7        0.0000 
     95 DU        -49.1900    1.6100  159.5400 H         7 CUB7        0.0000 
     96 DU        -48.6400    2.8600  158.9300 H         7 CUB7        0.0000 
@<TRIPOS>BOND
@<TRIPOS>SUBSTRUCTURE
     1 SER1        1 GROUP   
     2 ALA2       10 GROUP   
     3 ASP3       28 GROUP   
     4 LYS4       39 GROUP   
     5 PHE5       40 GROUP   
     6 GLY6       59 GROUP   
     7 CUB7       87 GROUP   
@<TRIPOS>SET

