#    Name: 6q84_2_GTP_CAVITY_N1_4
#    Modification time : Fri May 22 19:28:12 2020

@<TRIPOS>MOLECULE
6q84_2_GTP_CAVITY_N1_4
   85     0     7     0     0
SMALL
NO_CHARGES


@<TRIPOS>ATOM
      1 OG        -17.8300   36.1200   59.4700 O.3       1 SER1        0.0000 
      2 OG        -19.5100   36.0300   61.4500 O.3       1 SER1        0.0000 
      3 OG        -18.9500   37.2800   60.8400 O.3       1 SER1        0.0000 
      4 OG        -19.2600   36.5800   62.8200 O.3       1 SER1        0.0000 
      5 OG        -18.7100   37.8400   62.2100 O.3       1 SER1        0.0000 
      6 OG        -19.0100   37.1400   64.1900 O.3       1 SER1        0.0000 
      7 N         -17.5200   36.8200   57.4900 N.am      2 ALA2        0.0000 
      8 N         -23.6300   37.8400   61.4600 N.am      2 ALA2        0.0000 
      9 N         -22.2500   37.2300   61.4600 N.am      2 ALA2        0.0000 
     10 N         -19.5300   39.7000   61.6100 N.am      2 ALA2        0.0000 
     11 O         -20.1100   34.6300   65.4100 O.2       2 ALA2        0.0000 
     12 O         -22.5800   40.2100   63.5900 O.2       2 ALA2        0.0000 
     13 N         -19.8300   39.0000   63.5900 N.am      2 ALA2        0.0000 
     14 N         -18.4600   38.3900   63.5900 N.am      2 ALA2        0.0000 
     15 N         -20.6600   40.8600   62.9800 N.am      2 ALA2        0.0000 
     16 N         -19.5900   39.5500   64.9600 N.am      2 ALA2        0.0000 
     17 N         -20.4100   41.4100   64.3500 N.am      2 ALA2        0.0000 
     18 N         -20.1600   41.9700   65.7200 N.am      2 ALA2        0.0000 
     19 N         -18.7900   41.3700   65.7200 N.am      2 ALA2        0.0000 
     20 N         -18.2400   42.6200   65.1100 N.am      2 ALA2        0.0000 
     21 OD1       -23.3800   38.3900   62.8300 O.co2     3 ASP3        0.0000 
     22 OD1       -22.0000   37.7900   62.8300 O.co2     3 ASP3        0.0000 
     23 OD1       -20.6300   37.1900   62.8300 O.co2     3 ASP3        0.0000 
     24 OD1       -23.1300   38.9500   64.2000 O.co2     3 ASP3        0.0000 
     25 OD1       -21.7600   38.3500   64.2000 O.co2     3 ASP3        0.0000 
     26 OD1       -22.8800   39.5100   65.5700 O.co2     3 ASP3        0.0000 
     27 OD1       -21.5100   38.9000   65.5700 O.co2     3 ASP3        0.0000 
     28 OD1       -19.4000   39.9700   69.6800 O.co2     3 ASP3        0.0000 
     29 OD1       -17.4700   40.6200   69.0700 O.co2     3 ASP3        0.0000 
     30 OD1       -19.1500   40.5200   71.0500 O.co2     3 ASP3        0.0000 
     31 NZ        -19.3700   36.3000   69.5200 N.4       4 LYS4        0.0000 
     32 NZ        -19.0900   40.6700   67.7000 N.4       4 LYS4        0.0000 
     33 NZ        -18.8500   41.2200   69.0700 N.4       4 LYS4        0.0000 
     34 CZ        -19.2000   36.7300   59.4700 C.ar      5 PHE5        0.0000 
     35 CZ        -20.8800   36.6300   61.4500 C.ar      5 PHE5        0.0000 
     36 CZ        -23.0700   39.0900   60.8500 C.ar      5 PHE5        0.0000 
     37 CZ        -21.7000   38.4900   60.8500 C.ar      5 PHE5        0.0000 
     38 CZ        -20.3300   37.8900   60.8500 C.ar      5 PHE5        0.0000 
     39 CZ        -18.4900   34.5800   66.7800 C.ar      5 PHE5        0.0000 
     40 CZ        -19.3100   36.4400   66.1700 C.ar      5 PHE5        0.0000 
     41 CZ        -18.7600   37.7000   65.5600 C.ar      5 PHE5        0.0000 
     42 CZ        -18.2100   38.9500   64.9600 C.ar      5 PHE5        0.0000 
     43 CZ        -23.1900   38.8100   67.5500 C.ar      5 PHE5        0.0000 
     44 CZ        -19.0700   37.0000   67.5400 C.ar      5 PHE5        0.0000 
     45 CZ        -18.5200   38.2500   66.9400 C.ar      5 PHE5        0.0000 
     46 CZ        -17.9700   39.5100   66.3300 C.ar      5 PHE5        0.0000 
     47 CZ        -18.8200   37.5500   68.9200 C.ar      5 PHE5        0.0000 
     48 CZ        -21.0200   40.0100   68.3100 C.ar      5 PHE5        0.0000 
     49 CZ        -18.2700   38.8100   68.3100 C.ar      5 PHE5        0.0000 
     50 CZ        -17.7200   40.0600   67.7000 C.ar      5 PHE5        0.0000 
     51 CA        -16.4000   35.6600   56.1200 C.3       6 GLY6        0.0000 
     52 CA        -18.0800   35.5700   58.1000 C.3       6 GLY6        0.0000 
     53 CA        -16.1500   36.2200   57.4900 C.3       6 GLY6        0.0000 
     54 CA        -21.1800   35.9300   63.4300 C.3       6 GLY6        0.0000 
     55 CA        -19.8100   35.3300   63.4300 C.3       6 GLY6        0.0000 
     56 CA        -22.8300   39.6500   62.2200 C.3       6 GLY6        0.0000 
     57 CA        -21.4500   39.0500   62.2200 C.3       6 GLY6        0.0000 
     58 CA        -20.0800   38.4400   62.2200 C.3       6 GLY6        0.0000 
     59 CA        -22.2800   40.9000   61.6100 C.3       6 GLY6        0.0000 
     60 CA        -19.5600   35.8800   64.8000 C.3       6 GLY6        0.0000 
     61 CA        -18.1900   35.2800   64.8000 C.3       6 GLY6        0.0000 
     62 CA        -20.3800   37.7400   64.2000 C.3       6 GLY6        0.0000 
     63 CA        -17.6400   36.5400   64.1900 C.3       6 GLY6        0.0000 
     64 CA        -19.8700   35.1800   66.7800 C.3       6 GLY6        0.0000 
     65 CA        -20.6900   37.0400   66.1800 C.3       6 GLY6        0.0000 
     66 CA        -20.1400   38.3000   65.5700 C.3       6 GLY6        0.0000 
     67 CA        -19.6200   35.7400   68.1500 C.3       6 GLY6        0.0000 
     68 CA        -21.8100   38.2000   67.5500 C.3       6 GLY6        0.0000 
     69 CA        -20.4400   37.6000   67.5500 C.3       6 GLY6        0.0000 
     70 CA        -17.4200   40.7600   65.7200 C.3       6 GLY6        0.0000 
     71 CA        -20.7400   36.9000   69.5300 C.3       6 GLY6        0.0000 
     72 CA        -21.5700   38.7600   68.9200 C.3       6 GLY6        0.0000 
     73 CA        -20.1900   38.1600   68.9200 C.3       6 GLY6        0.0000 
     74 CA        -19.9500   38.7100   70.2900 C.3       6 GLY6        0.0000 
     75 CA        -18.5700   38.1100   70.2900 C.3       6 GLY6        0.0000 
     76 CA        -20.7700   40.5700   69.6800 C.3       6 GLY6        0.0000 
     77 CA        -18.0200   39.3600   69.6800 C.3       6 GLY6        0.0000 
     78 CA        -20.5200   41.1300   71.0500 C.3       6 GLY6        0.0000 
     79 DU        -21.2100   39.6000   63.5900 H         7 CUB7        0.0000 
     80 DU        -20.9600   40.1600   64.9600 H         7 CUB7        0.0000 
     81 DU        -21.2600   39.4600   66.9400 H         7 CUB7        0.0000 
     82 DU        -19.8900   38.8600   66.9400 H         7 CUB7        0.0000 
     83 DU        -20.7100   40.7100   66.3300 H         7 CUB7        0.0000 
     84 DU        -19.3400   40.1100   66.3300 H         7 CUB7        0.0000 
     85 DU        -19.6400   39.4100   68.3100 H         7 CUB7        0.0000 
@<TRIPOS>BOND
@<TRIPOS>SUBSTRUCTURE
     1 SER1        1 GROUP   
     2 ALA2        7 GROUP   
     3 ASP3       21 GROUP   
     4 LYS4       31 GROUP   
     5 PHE5       34 GROUP   
     6 GLY6       51 GROUP   
     7 CUB7       79 GROUP   
@<TRIPOS>SET

