#    Name: 6q84_1_GTP
#    Modification time : Fri May 22 19:27:43 2020

@<TRIPOS>MOLECULE
6q84_1_GTP
   32    34     1     0     1
SMALL
NO_CHARGES


@<TRIPOS>ATOM
      1 PG        -47.4490   -4.0040  167.5790 P.3       1 GTP217      0.0000 
      2 O1G       -48.6080   -3.0570  167.7730 O.co2     1 GTP217      0.0000 
      3 O2G       -46.2090   -3.4330  168.2240 O.co2     1 GTP217      0.0000 
      4 O3G       -47.7740   -5.3420  168.2000 O.co2     1 GTP217      0.0000 
      5 O3B       -47.1900   -4.2350  166.0070 O.3       1 GTP217      0.0000 
      6 PB        -48.4280   -4.4850  165.0090 P.3       1 GTP217      0.0000 
      7 O1B       -48.0360   -5.5060  163.9680 O.co2     1 GTP217      0.0000 
      8 O2B       -49.6510   -4.9370  165.7710 O.co2     1 GTP217      0.0000 
      9 O3A       -48.7020   -3.0690  164.2900 O.3       1 GTP217      0.0000 
     10 PA        -50.1600   -2.3910  164.3690 P.3       1 GTP217      0.0000 
     11 O1A       -51.2230   -3.3860  163.9670 O.co2     1 GTP217      0.0000 
     12 O2A       -50.4330   -1.8640  165.7580 O.co2     1 GTP217      0.0000 
     13 O5'       -50.1090   -1.1850  163.2990 O.3       1 GTP217      0.0000 
     14 C5'       -49.1580   -1.1550  162.2550 C.3       1 GTP217      0.0000 
     15 C4'       -49.5220   -0.0510  161.2680 C.3       1 GTP217      0.0000 
     16 O4'       -49.4530   -0.5930  159.9660 O.3       1 GTP217      0.0000 
     17 C3'       -50.9560    0.4190  161.4520 C.3       1 GTP217      0.0000 
     18 O3'       -50.9800    1.6970  162.0460 O.3       1 GTP217      0.0000 
     19 C2'       -51.5450    0.4720  160.0550 C.3       1 GTP217      0.0000 
     20 O2'       -51.8930    1.7950  159.7270 O.3       1 GTP217      0.0000 
     21 C1'       -50.4460   -0.0320  159.1330 C.3       1 GTP217      0.0000 
     22 N9        -50.9680   -1.1020  158.2640 N.pl3     1 GTP217      0.0000 
     23 C8        -51.3500   -2.3460  158.6900 C.2       1 GTP217      0.0000 
     24 N7        -51.7670   -3.0650  157.6270 N.2       1 GTP217      0.0000 
     25 C5        -51.6550   -2.2990  156.5250 C.2       1 GTP217      0.0000 
     26 C6        -51.9460   -2.5580  155.1970 C.2       1 GTP217      0.0000 
     27 O6        -52.3900   -3.6600  154.8760 O.2       1 GTP217      0.0000 
     28 N1        -51.7310   -1.5750  154.2540 N.am      1 GTP217      0.0000 
     29 C2        -51.2320   -0.3490  154.6450 C.2       1 GTP217      0.0000 
     30 N2        -51.0240    0.6020  153.7400 N.pl3     1 GTP217      0.0000 
     31 N3        -50.9450   -0.1010  155.9740 N.2       1 GTP217      0.0000 
     32 C4        -51.1530   -1.0610  156.9030 C.2       1 GTP217      0.0000 
@<TRIPOS>BOND
     1    1    2 ar   
     2    1    3 ar   
     3    1    4 ar   
     4    1    5 1    
     5    5    6 1    
     6    6    7 ar   
     7    6    8 ar   
     8    6    9 1    
     9    9   10 1    
    10   10   11 ar   
    11   10   12 ar   
    12   10   13 1    
    13   13   14 1    
    14   14   15 1    
    15   15   16 1    
    16   15   17 1    
    17   16   21 1    
    18   17   18 1    
    19   17   19 1    
    20   19   20 1    
    21   19   21 1    
    22   21   22 1    
    23   22   23 1    
    24   22   32 1    
    25   23   24 2    
    26   24   25 1    
    27   25   26 1    
    28   25   32 2    
    29   26   27 2    
    30   26   28 am   
    31   28   29 1    
    32   29   30 1    
    33   29   31 2    
    34   31   32 1    
@<TRIPOS>SUBSTRUCTURE
     1 GTP217      1 GROUP   
@<TRIPOS>SET
ATOM$ORANGE STATIC     ATOMS   COLORGROUP SYSTEM 
20 14 14 15 15 17 17 19 19 21 21 23 23 25 25 26 26 29 \
29 32 32 

