#    Name: 6q84_2_GTP
#    Modification time : Fri May 22 19:28:09 2020

@<TRIPOS>MOLECULE
6q84_2_GTP
   32    34     1     0     1
SMALL
NO_CHARGES


@<TRIPOS>ATOM
      1 PG        -22.3930   33.6670   55.6540 P.3       1 GTP217      0.0000 
      2 O1G       -23.5220   34.3660   54.9350 O.co2     1 GTP217      0.0000 
      3 O2G       -22.1480   32.3190   55.0170 O.co2     1 GTP217      0.0000 
      4 O3G       -21.1380   34.5020   55.5680 O.co2     1 GTP217      0.0000 
      5 O3B       -22.7920   33.4290   57.1970 O.3       1 GTP217      0.0000 
      6 PB        -21.6690   33.0440   58.2870 P.3       1 GTP217      0.0000 
      7 O1B       -20.4350   32.4920   57.6150 O.co2     1 GTP217      0.0000 
      8 O2B       -22.2440   32.0450   59.2630 O.co2     1 GTP217      0.0000 
      9 O3A       -21.3310   34.4160   59.0620 O.3       1 GTP217      0.0000 
     10 PA        -19.8170   34.9640   59.1260 P.3       1 GTP217      0.0000 
     11 O1A       -19.3680   35.4730   57.7770 O.co2     1 GTP217      0.0000 
     12 O2A       -18.8960   33.8700   59.6120 O.co2     1 GTP217      0.0000 
     13 O5'       -19.8580   36.1590   60.2110 O.3       1 GTP217      0.0000 
     14 C5'       -20.8840   36.2500   61.1780 C.3       1 GTP217      0.0000 
     15 C4'       -20.5400   37.3280   62.2010 C.3       1 GTP217      0.0000 
     16 O4'       -20.7320   36.7890   63.4930 O.3       1 GTP217      0.0000 
     17 C3'       -19.0800   37.7400   62.1290 C.3       1 GTP217      0.0000 
     18 O3'       -18.9590   39.0160   61.5430 O.3       1 GTP217      0.0000 
     19 C2'       -18.6030   37.7730   63.5690 C.3       1 GTP217      0.0000 
     20 O2'       -18.2330   39.0840   63.9230 O.3       1 GTP217      0.0000 
     21 C1'       -19.7870   37.3130   64.4040 C.3       1 GTP217      0.0000 
     22 N9        -19.3630   36.2290   65.3070 N.pl3     1 GTP217      0.0000 
     23 C8        -18.9660   34.9810   64.9070 C.2       1 GTP217      0.0000 
     24 N7        -18.6600   34.2450   65.9950 N.2       1 GTP217      0.0000 
     25 C5        -18.8710   34.9990   67.0910 C.2       1 GTP217      0.0000 
     26 C6        -18.7150   34.7190   68.4360 C.2       1 GTP217      0.0000 
     27 O6        -18.3200   33.6060   68.7820 O.2       1 GTP217      0.0000 
     28 N1        -19.0080   35.6930   69.3680 N.am      1 GTP217      0.0000 
     29 C2        -19.4500   36.9320   68.9470 C.2       1 GTP217      0.0000 
     30 N2        -19.7320   37.8740   69.8400 N.pl3     1 GTP217      0.0000 
     31 N3        -19.6010   37.2010   67.6000 N.2       1 GTP217      0.0000 
     32 C4        -19.3170   36.2490   66.6820 C.2       1 GTP217      0.0000 
@<TRIPOS>BOND
     1    1    2 ar   
     2    1    3 ar   
     3    1    4 ar   
     4    1    5 1    
     5    5    6 1    
     6    6    7 ar   
     7    6    8 ar   
     8    6    9 1    
     9    9   10 1    
    10   10   11 ar   
    11   10   12 ar   
    12   10   13 1    
    13   13   14 1    
    14   14   15 1    
    15   15   16 1    
    16   15   17 1    
    17   16   21 1    
    18   17   18 1    
    19   17   19 1    
    20   19   20 1    
    21   19   21 1    
    22   21   22 1    
    23   22   23 1    
    24   22   32 1    
    25   23   24 2    
    26   24   25 1    
    27   25   26 1    
    28   25   32 2    
    29   26   27 2    
    30   26   28 am   
    31   28   29 1    
    32   29   30 1    
    33   29   31 2    
    34   31   32 1    
@<TRIPOS>SUBSTRUCTURE
     1 GTP217      1 GROUP   
@<TRIPOS>SET
ATOM$ORANGE STATIC     ATOMS   COLORGROUP SYSTEM 
20 14 14 15 15 17 17 19 19 21 21 23 23 25 25 26 26 29 \
29 32 32 

