#    Name: 6cio_1_TDL
#    Modification time : Fri May 22 19:37:26 2020

@<TRIPOS>MOLECULE
6cio_1_TDL
   32    33     1     0     0
SMALL
NO_CHARGES


@<TRIPOS>ATOM
      1 O1B       -34.2010  -38.0050   44.9300 O.co2     1 TDL1204     0.0000 
      2 PB        -34.2910  -38.7220   46.2500 P.3       1 TDL1204     0.0000 
      3 O2B       -34.9570  -40.0680   46.0520 O.co2     1 TDL1204     0.0000 
      4 O3B       -35.1040  -37.9020   47.2160 O.co2     1 TDL1204     0.0000 
      5 O3A       -32.8220  -38.9510   46.8280 O.3       1 TDL1204     0.0000 
      6 PA        -32.4450  -38.8500   48.3720 P.3       1 TDL1204     0.0000 
      7 O1A       -30.9450  -38.9660   48.5300 O.co2     1 TDL1204     0.0000 
      8 O2A       -32.8920  -37.5250   48.9140 O.co2     1 TDL1204     0.0000 
      9 O7        -33.1740  -40.0010   49.1700 O.3       1 TDL1204     0.0000 
     10 C7        -33.1920  -41.3340   48.6380 C.3       1 TDL1204     0.0000 
     11 C6        -33.3960  -42.2660   49.8680 C.3       1 TDL1204     0.0000 
     12 C5        -33.2350  -43.7560   49.6120 C.2       1 TDL1204     0.0000 
     13 S1        -33.3870  -44.4680   47.9480 S.3       1 TDL1204     0.0000 
     14 C4        -32.9770  -44.7330   50.5070 C.2       1 TDL1204     0.0000 
     15 CM4       -32.8020  -44.4930   51.9730 C.3       1 TDL1204     0.0000 
     16 N3        -32.8770  -46.0390   49.9330 N.pl3     1 TDL1204     0.0000 
     17 C2        -33.0650  -46.0910   48.5960 C.2       1 TDL1204     0.0000 
     18 CLA       -33.0730  -47.3590   47.6550 C.3       1 TDL1204     0.0000 
     19 OL1       -31.9450  -48.1500   47.7750 O.3       1 TDL1204     0.0000 
     20 CLB       -33.2300  -46.8670   46.1720 C.3       1 TDL1204     0.0000 
     21 CLC       -34.4800  -48.0760   47.9890 C.2       1 TDL1204     0.0000 
     22 OL2       -35.5340  -47.3140   47.8390 O.co2     1 TDL1204     0.0000 
     23 OL3       -34.4970  -49.2970   48.3700 O.co2     1 TDL1204     0.0000 
     24 C7'       -32.6270  -47.1990   50.7290 C.3       1 TDL1204     0.0000 
     25 C5'       -31.1530  -47.3470   51.2900 C.ar      1 TDL1204     0.0000 
     26 C6'       -30.8610  -47.1220   52.6660 C.ar      1 TDL1204     0.0000 
     27 N1'       -29.6120  -47.2580   53.1150 N.ar      1 TDL1204     0.0000 
     28 C2'       -28.6350  -47.6170   52.3050 C.ar      1 TDL1204     0.0000 
     29 CM2       -27.2170  -47.7660   52.8750 C.3       1 TDL1204     0.0000 
     30 N3'       -28.8450  -47.8510   51.0180 N.ar      1 TDL1204     0.0000 
     31 C4'       -30.0740  -47.7300   50.4780 C.ar      1 TDL1204     0.0000 
     32 N4'       -30.2640  -47.9910   49.0900 N.pl3     1 TDL1204     0.0000 
@<TRIPOS>BOND
     1    1    2 ar   
     2    2    3 ar   
     3    2    4 ar   
     4    2    5 1    
     5    5    6 1    
     6    6    7 ar   
     7    6    8 ar   
     8    6    9 1    
     9    9   10 1    
    10   10   11 1    
    11   11   12 1    
    12   12   13 1    
    13   12   14 2    
    14   13   17 1    
    15   14   15 1    
    16   14   16 1    
    17   16   17 2    
    18   16   24 1    
    19   17   18 1    
    20   18   19 1    
    21   18   20 1    
    22   18   21 1    
    23   21   22 ar   
    24   21   23 ar   
    25   24   25 1    
    26   25   26 ar   
    27   25   31 ar   
    28   26   27 ar   
    29   27   28 ar   
    30   28   29 1    
    31   28   30 ar   
    32   30   31 ar   
    33   31   32 1    
@<TRIPOS>SUBSTRUCTURE
     1 TDL1204     1 GROUP   
@<TRIPOS>SET

