#    Name: 6cio_5_TPP
#    Modification time : Fri May 22 19:38:23 2020

@<TRIPOS>MOLECULE
6cio_5_TPP
   26    27     1     0     1
SMALL
NO_CHARGES


@<TRIPOS>ATOM
      1 N1'       -10.8650  -47.5520   61.4860 N.ar      1 TPP1204     0.0000 
      2 C2'       -11.7460  -48.0310   62.3470 C.ar      1 TPP1204     0.0000 
      3 CM2       -13.2190  -48.1610   61.9180 C.3       1 TPP1204     0.0000 
      4 N3'       -11.3990  -48.4010   63.5710 N.ar      1 TPP1204     0.0000 
      5 C4'       -10.1220  -48.3070   63.9940 C.ar      1 TPP1204     0.0000 
      6 N4'        -9.7520  -48.7110   65.3200 N.pl3     1 TPP1204     0.0000 
      7 C5'        -9.1540  -47.8090   63.1160 C.ar      1 TPP1204     0.0000 
      8 C6'        -9.5790  -47.4260   61.8160 C.ar      1 TPP1204     0.0000 
      9 C7'        -7.6510  -47.6910   63.5710 C.3       1 TPP1204     0.0000 
     10 N3         -7.4830  -46.5550   64.3990 N.pl3     1 TPP1204     0.0000 
     11 C2         -7.4540  -46.5330   65.7890 C.2       1 TPP1204     0.0000 
     12 S1         -7.2450  -45.0730   66.4870 S.3       1 TPP1204     0.0000 
     13 C5         -7.1760  -44.4100   64.9970 C.2       1 TPP1204     0.0000 
     14 C4         -7.3160  -45.2980   63.9360 C.2       1 TPP1204     0.0000 
     15 CM4        -7.2820  -44.8870   62.4680 C.3       1 TPP1204     0.0000 
     16 C6         -6.9720  -42.9170   64.7880 C.3       1 TPP1204     0.0000 
     17 C7         -7.1480  -42.0370   66.0630 C.3       1 TPP1204     0.0000 
     18 O7         -7.0200  -40.6740   65.6270 O.3       1 TPP1204     0.0000 
     19 PA         -7.6390  -39.5350   66.5270 P.3       1 TPP1204     0.0000 
     20 O1A        -7.0470  -38.2100   66.1560 O.co2     1 TPP1204     0.0000 
     21 O2A        -9.1330  -39.4750   66.3070 O.co2     1 TPP1204     0.0000 
     22 O3A        -7.3300  -39.8650   68.0530 O.3       1 TPP1204     0.0000 
     23 PB         -5.8870  -39.7700   68.7340 P.3       1 TPP1204     0.0000 
     24 O1B        -5.0060  -38.8390   67.9410 O.co2     1 TPP1204     0.0000 
     25 O2B        -5.2520  -41.1480   68.7820 O.co2     1 TPP1204     0.0000 
     26 O3B        -6.0380  -39.2460   70.1380 O.co2     1 TPP1204     0.0000 
@<TRIPOS>BOND
     1    1    2 ar   
     2    1    8 ar   
     3    2    3 1    
     4    2    4 ar   
     5    4    5 ar   
     6    5    6 1    
     7    5    7 ar   
     8    7    8 ar   
     9    7    9 1    
    10    9   10 1    
    11   10   11 2    
    12   10   14 1    
    13   11   12 1    
    14   12   13 1    
    15   13   14 2    
    16   13   16 1    
    17   14   15 1    
    18   16   17 1    
    19   17   18 1    
    20   18   19 1    
    21   19   20 ar   
    22   19   21 ar   
    23   19   22 1    
    24   22   23 1    
    25   23   24 ar   
    26   23   25 ar   
    27   23   26 ar   
@<TRIPOS>SUBSTRUCTURE
     1 TPP1204     1 GROUP   
@<TRIPOS>SET
ATOM$ORANGE STATIC     ATOMS   COLORGROUP SYSTEM 
24 2 2 3 3 5 5 7 7 8 8 9 9 11 11 13 13 14 \
14 15 15 16 16 17 17 

