#    Name: 6cio_6_TPP
#    Modification time : Fri May 22 19:38:36 2020

@<TRIPOS>MOLECULE
6cio_6_TPP
   26    27     1     0     1
SMALL
NO_CHARGES


@<TRIPOS>ATOM
      1 N1'       -85.4060  -87.3730   86.2320 N.ar      1 TPP1204     0.0000 
      2 C2'       -86.3550  -88.0780   85.6380 C.ar      1 TPP1204     0.0000 
      3 CM2       -87.8040  -87.5650   85.6840 C.3       1 TPP1204     0.0000 
      4 N3'       -86.0970  -89.2140   85.0070 N.ar      1 TPP1204     0.0000 
      5 C4'       -84.8420  -89.7000   84.9460 C.ar      1 TPP1204     0.0000 
      6 N4'       -84.5820  -90.9260   84.2560 N.pl3     1 TPP1204     0.0000 
      7 C5'       -83.8000  -88.9920   85.5680 C.ar      1 TPP1204     0.0000 
      8 C6'       -84.1340  -87.7770   86.2240 C.ar      1 TPP1204     0.0000 
      9 C7'       -82.3050  -89.4860   85.5170 C.3       1 TPP1204     0.0000 
     10 N3        -82.0040  -90.6510   86.2730 N.pl3     1 TPP1204     0.0000 
     11 C2        -82.0130  -91.9690   85.8190 C.2       1 TPP1204     0.0000 
     12 S1        -81.5910  -93.1210   86.8950 S.3       1 TPP1204     0.0000 
     13 C5        -81.3610  -91.9410   88.0000 C.2       1 TPP1204     0.0000 
     14 C4        -81.6040  -90.6400   87.5620 C.2       1 TPP1204     0.0000 
     15 CM4       -81.4500  -89.3860   88.4170 C.3       1 TPP1204     0.0000 
     16 C6        -80.9030  -92.2590   89.4130 C.3       1 TPP1204     0.0000 
     17 C7        -81.4620  -93.5840   90.0170 C.3       1 TPP1204     0.0000 
     18 O7        -81.0790  -93.5630   91.4030 O.3       1 TPP1204     0.0000 
     19 PA        -81.7910  -94.5060   92.4520 P.3       1 TPP1204     0.0000 
     20 O1A       -83.2340  -94.0830   92.5990 O.co2     1 TPP1204     0.0000 
     21 O2A       -81.0870  -94.3760   93.7710 O.co2     1 TPP1204     0.0000 
     22 O3A       -81.7390  -96.0120   91.9410 O.3       1 TPP1204     0.0000 
     23 PB        -80.3950  -96.8200   91.6310 P.3       1 TPP1204     0.0000 
     24 O1B       -80.0690  -96.7400   90.1480 O.co2     1 TPP1204     0.0000 
     25 O2B       -80.6250  -98.2640   91.9960 O.co2     1 TPP1204     0.0000 
     26 O3B       -79.2570  -96.2450   92.4430 O.co2     1 TPP1204     0.0000 
@<TRIPOS>BOND
     1    1    2 ar   
     2    1    8 ar   
     3    2    3 1    
     4    2    4 ar   
     5    4    5 ar   
     6    5    6 1    
     7    5    7 ar   
     8    7    8 ar   
     9    7    9 1    
    10    9   10 1    
    11   10   11 2    
    12   10   14 1    
    13   11   12 1    
    14   12   13 1    
    15   13   14 2    
    16   13   16 1    
    17   14   15 1    
    18   16   17 1    
    19   17   18 1    
    20   18   19 1    
    21   19   20 ar   
    22   19   21 ar   
    23   19   22 1    
    24   22   23 1    
    25   23   24 ar   
    26   23   25 ar   
    27   23   26 ar   
@<TRIPOS>SUBSTRUCTURE
     1 TPP1204     1 GROUP   
@<TRIPOS>SET
ATOM$ORANGE STATIC     ATOMS   COLORGROUP SYSTEM 
24 2 2 3 3 5 5 7 7 8 8 9 9 11 11 13 13 14 \
14 15 15 16 16 17 17 

