#    Name: 6cio_4_TDL
#    Modification time : Fri May 22 19:38:09 2020

@<TRIPOS>MOLECULE
6cio_4_TDL
   32    33     1     0     0
SMALL
NO_CHARGES


@<TRIPOS>ATOM
      1 O1B      -106.8310  -72.3320  100.6010 O.co2     1 TDL1204     0.0000 
      2 PB       -107.0680  -73.4510   99.6210 P.3       1 TDL1204     0.0000 
      3 O2B      -107.7200  -72.8820   98.3740 O.co2     1 TDL1204     0.0000 
      4 O3B      -107.9730  -74.4950  100.2270 O.co2     1 TDL1204     0.0000 
      5 O3A      -105.6620  -74.1070   99.2440 O.3       1 TDL1204     0.0000 
      6 PA       -105.4570  -75.6480   98.9010 P.3       1 TDL1204     0.0000 
      7 O1A      -104.0060  -75.8820   98.5390 O.co2     1 TDL1204     0.0000 
      8 O2A      -105.8430  -76.4700  100.0920 O.co2     1 TDL1204     0.0000 
      9 O7       -106.3710  -76.0520   97.6830 O.3       1 TDL1204     0.0000 
     10 C7       -106.3400  -75.2490   96.4900 C.3       1 TDL1204     0.0000 
     11 C6       -106.6340  -76.2340   95.3180 C.3       1 TDL1204     0.0000 
     12 C5       -106.5550  -75.6890   93.8970 C.2       1 TDL1204     0.0000 
     13 S1       -106.7510  -73.9230   93.4970 S.3       1 TDL1204     0.0000 
     14 C4       -106.3490  -76.3910   92.7630 C.2       1 TDL1204     0.0000 
     15 CM4      -106.1560  -77.8720   92.6990 C.3       1 TDL1204     0.0000 
     16 N3       -106.3200  -75.5940   91.5850 N.pl3     1 TDL1204     0.0000 
     17 C2       -106.5160  -74.2700   91.7690 C.2       1 TDL1204     0.0000 
     18 CLA      -106.5780  -73.1460   90.6560 C.3       1 TDL1204     0.0000 
     19 OL1      -105.4620  -73.1470   89.8380 O.3       1 TDL1204     0.0000 
     20 CLB      -106.7120  -71.7420   91.3540 C.3       1 TDL1204     0.0000 
     21 CLC      -107.9960  -73.3750   89.9170 C.2       1 TDL1204     0.0000 
     22 OL2      -109.0510  -73.2130   90.6690 O.co2     1 TDL1204     0.0000 
     23 OL3      -108.0210  -73.6720   88.6740 O.co2     1 TDL1204     0.0000 
     24 C7'      -106.1290  -76.1910   90.3040 C.3       1 TDL1204     0.0000 
     25 C5'      -104.6670  -76.7070   89.9790 C.ar      1 TDL1204     0.0000 
     26 C6'      -104.4200  -78.0890   89.7530 C.ar      1 TDL1204     0.0000 
     27 N1'      -103.1870  -78.5110   89.4670 N.ar      1 TDL1204     0.0000 
     28 C2'      -102.1840  -77.6590   89.3800 C.ar      1 TDL1204     0.0000 
     29 CM2      -100.7790  -78.1840   89.0450 C.3       1 TDL1204     0.0000 
     30 N3'      -102.3540  -76.3610   89.5700 N.ar      1 TDL1204     0.0000 
     31 C4'      -103.5630  -75.8480   89.8700 C.ar      1 TDL1204     0.0000 
     32 N4'      -103.7000  -74.4420   90.0710 N.pl3     1 TDL1204     0.0000 
@<TRIPOS>BOND
     1    1    2 ar   
     2    2    3 ar   
     3    2    4 ar   
     4    2    5 1    
     5    5    6 1    
     6    6    7 ar   
     7    6    8 ar   
     8    6    9 1    
     9    9   10 1    
    10   10   11 1    
    11   11   12 1    
    12   12   13 1    
    13   12   14 2    
    14   13   17 1    
    15   14   15 1    
    16   14   16 1    
    17   16   17 2    
    18   16   24 1    
    19   17   18 1    
    20   18   19 1    
    21   18   20 1    
    22   18   21 1    
    23   21   22 ar   
    24   21   23 ar   
    25   24   25 1    
    26   25   26 ar   
    27   25   31 ar   
    28   26   27 ar   
    29   27   28 ar   
    30   28   29 1    
    31   28   30 ar   
    32   30   31 ar   
    33   31   32 1    
@<TRIPOS>SUBSTRUCTURE
     1 TDL1204     1 GROUP   
@<TRIPOS>SET

