#    Name: 6cio_3_TDL
#    Modification time : Fri May 22 19:37:55 2020

@<TRIPOS>MOLECULE
6cio_3_TDL
   32    33     1     0     0
SMALL
NO_CHARGES


@<TRIPOS>ATOM
      1 O1B      -103.8890  -17.5940   11.5910 O.co2     1 TDL1204     0.0000 
      2 PB       -103.7760  -18.6690   12.6380 P.3       1 TDL1204     0.0000 
      3 O2B      -103.2210  -18.0650   13.9210 O.co2     1 TDL1204     0.0000 
      4 O3B      -102.8730  -19.7650   12.1270 O.co2     1 TDL1204     0.0000 
      5 O3A      -105.2190  -19.2740   12.9450 O.3       1 TDL1204     0.0000 
      6 PA       -105.4970  -20.8220   13.1660 P.3       1 TDL1204     0.0000 
      7 O1A      -106.9780  -21.0170   13.3760 O.co2     1 TDL1204     0.0000 
      8 O2A      -105.0460  -21.5910   11.9650 O.co2     1 TDL1204     0.0000 
      9 O7       -104.7060  -21.3460   14.4250 O.3       1 TDL1204     0.0000 
     10 C7       -104.7310  -20.5930   15.6500 C.3       1 TDL1204     0.0000 
     11 C6       -104.2030  -21.5730   16.7430 C.3       1 TDL1204     0.0000 
     12 C5       -104.3120  -21.1260   18.1950 C.2       1 TDL1204     0.0000 
     13 S1       -104.1090  -19.3850   18.6840 S.3       1 TDL1204     0.0000 
     14 C4       -104.5420  -21.8900   19.2870 C.2       1 TDL1204     0.0000 
     15 CM4      -104.7460  -23.3690   19.2750 C.3       1 TDL1204     0.0000 
     16 N3       -104.5880  -21.1570   20.5040 N.pl3     1 TDL1204     0.0000 
     17 C2       -104.3770  -19.8300   20.3840 C.2       1 TDL1204     0.0000 
     18 CLA      -104.3270  -18.7550   21.5380 C.3       1 TDL1204     0.0000 
     19 OL1      -105.4770  -18.7660   22.3080 O.3       1 TDL1204     0.0000 
     20 CLB      -104.1490  -17.3410   20.8750 C.3       1 TDL1204     0.0000 
     21 CLC      -102.9410  -19.0340   22.3170 C.2       1 TDL1204     0.0000 
     22 OL2      -101.8680  -18.9580   21.5750 O.co2     1 TDL1204     0.0000 
     23 OL3      -102.9560  -19.2970   23.5670 O.co2     1 TDL1204     0.0000 
     24 C7'      -104.7990  -21.8080   21.7570 C.3       1 TDL1204     0.0000 
     25 C5'      -106.2530  -22.3490   22.0700 C.ar      1 TDL1204     0.0000 
     26 C6'      -106.5010  -23.7470   22.1770 C.ar      1 TDL1204     0.0000 
     27 N1'      -107.7280  -24.1900   22.4590 N.ar      1 TDL1204     0.0000 
     28 C2'      -108.7250  -23.3430   22.6530 C.ar      1 TDL1204     0.0000 
     29 CM2      -110.1280  -23.8800   22.9780 C.3       1 TDL1204     0.0000 
     30 N3'      -108.5490  -22.0340   22.5770 N.ar      1 TDL1204     0.0000 
     31 C4'      -107.3470  -21.4990   22.2910 C.ar      1 TDL1204     0.0000 
     32 N4'      -107.2090  -20.0800   22.2150 N.pl3     1 TDL1204     0.0000 
@<TRIPOS>BOND
     1    1    2 ar   
     2    2    3 ar   
     3    2    4 ar   
     4    2    5 1    
     5    5    6 1    
     6    6    7 ar   
     7    6    8 ar   
     8    6    9 1    
     9    9   10 1    
    10   10   11 1    
    11   11   12 1    
    12   12   13 1    
    13   12   14 2    
    14   13   17 1    
    15   14   15 1    
    16   14   16 1    
    17   16   17 2    
    18   16   24 1    
    19   17   18 1    
    20   18   19 1    
    21   18   20 1    
    22   18   21 1    
    23   21   22 ar   
    24   21   23 ar   
    25   24   25 1    
    26   25   26 ar   
    27   25   31 ar   
    28   26   27 ar   
    29   27   28 ar   
    30   28   29 1    
    31   28   30 ar   
    32   30   31 ar   
    33   31   32 1    
@<TRIPOS>SUBSTRUCTURE
     1 TDL1204     1 GROUP   
@<TRIPOS>SET

