#    Name: 6cio_5_TPP_CAVITY_N1_4
#    Modification time : Fri May 22 19:38:24 2020

@<TRIPOS>MOLECULE
6cio_5_TPP_CAVITY_N1_4
   69     0     7     0     0
SMALL
NO_CHARGES


@<TRIPOS>ATOM
      1 OG         -5.7700  -43.3800   65.4900 O.3       1 SER1        0.0000 
      2 N          -8.4800  -46.4000   62.6000 N.am      2 ALA2        0.0000 
      3 N          -7.2000  -45.8600   63.1800 N.am      2 ALA2        0.0000 
      4 O          -6.7800  -48.1400   68.2900 O.2       2 ALA2        0.0000 
      5 O          -6.1600  -48.1300   66.9200 O.2       2 ALA2        0.0000 
      6 O          -7.2800  -46.7400   68.0700 O.2       2 ALA2        0.0000 
      7 O          -6.6600  -46.7300   66.7000 O.2       2 ALA2        0.0000 
      8 O          -7.1600  -45.3400   66.4900 O.2       2 ALA2        0.0000 
      9 N          -7.6600  -43.9400   66.2800 N.am      2 ALA2        0.0000 
     10 O          -5.8900  -44.7900   67.0700 O.2       2 ALA2        0.0000 
     11 O          -7.8800  -39.2000   66.2100 O.2       2 ALA2        0.0000 
     12 O          -6.2300  -41.4600   68.5900 O.2       2 ALA2        0.0000 
     13 O          -5.6100  -41.4500   67.2200 O.2       2 ALA2        0.0000 
     14 O          -7.3400  -40.0800   69.7400 O.2       2 ALA2        0.0000 
     15 OD1        -9.9900  -49.7600   65.1900 O.co2     3 ASP3        0.0000 
     16 OD1        -8.7100  -49.2200   65.7600 O.co2     3 ASP3        0.0000 
     17 OD1        -8.1000  -49.2100   64.3900 O.co2     3 ASP3        0.0000 
     18 OD1        -6.9400  -50.0700   66.5500 O.co2     3 ASP3        0.0000 
     19 OD1        -7.4400  -48.6700   66.3400 O.co2     3 ASP3        0.0000 
     20 OD1        -6.8200  -48.6600   64.9700 O.co2     3 ASP3        0.0000 
     21 OD1        -7.3800  -40.6000   66.4300 O.co2     3 ASP3        0.0000 
     22 OD1        -6.7300  -40.0700   68.3700 O.co2     3 ASP3        0.0000 
     23 NZ        -11.0200  -47.4800   61.4400 N.4       4 LYS4        0.0000 
     24 CZ        -11.6400  -47.4900   62.8100 C.ar      5 PHE5        0.0000 
     25 CZ        -10.3700  -46.9500   63.3900 C.ar      5 PHE5        0.0000 
     26 CZ         -9.7500  -46.9400   62.0200 C.ar      5 PHE5        0.0000 
     27 CZ         -9.7100  -46.4200   65.3400 C.ar      5 PHE5        0.0000 
     28 CZ         -9.0900  -46.4100   63.9700 C.ar      5 PHE5        0.0000 
     29 CZ         -7.8200  -45.8700   64.5400 C.ar      5 PHE5        0.0000 
     30 CZ         -8.9300  -44.4800   65.7000 C.ar      5 PHE5        0.0000 
     31 CZ         -8.3200  -44.4700   64.3300 C.ar      5 PHE5        0.0000 
     32 CZ         -7.0400  -43.9300   64.9100 C.ar      5 PHE5        0.0000 
     33 CZ         -6.4300  -43.9200   63.5400 C.ar      5 PHE5        0.0000 
     34 CZ         -8.1600  -42.5400   66.0600 C.ar      5 PHE5        0.0000 
     35 CZ         -7.5400  -42.5300   64.7000 C.ar      5 PHE5        0.0000 
     36 CZ         -9.2700  -41.1500   67.2200 C.ar      5 PHE5        0.0000 
     37 CZ         -8.6600  -41.1400   65.8500 C.ar      5 PHE5        0.0000 
     38 CZ         -8.0400  -41.1300   64.4800 C.ar      5 PHE5        0.0000 
     39 CZ         -6.7700  -40.5900   65.0600 C.ar      5 PHE5        0.0000 
     40 CA        -11.7600  -48.9000   64.3900 C.3       6 GLY6        0.0000 
     41 CA        -11.1400  -48.8900   63.0300 C.3       6 GLY6        0.0000 
     42 CA        -10.5300  -48.8800   61.6600 C.3       6 GLY6        0.0000 
     43 CA         -9.3700  -49.7500   63.8200 C.3       6 GLY6        0.0000 
     44 CA        -10.4800  -48.3600   64.9700 C.3       6 GLY6        0.0000 
     45 CA         -9.8700  -48.3500   63.6000 C.3       6 GLY6        0.0000 
     46 CA         -9.2500  -48.3400   62.2400 C.3       6 GLY6        0.0000 
     47 CA         -9.3300  -49.2300   67.1300 C.3       6 GLY6        0.0000 
     48 CA         -9.2100  -47.8200   65.5500 C.3       6 GLY6        0.0000 
     49 CA         -7.9800  -47.8000   62.8100 C.3       6 GLY6        0.0000 
     50 CA         -7.5500  -50.0800   67.9200 C.3       6 GLY6        0.0000 
     51 CA         -8.0500  -48.6900   67.7100 C.3       6 GLY6        0.0000 
     52 CA         -7.9400  -47.2800   66.1300 C.3       6 GLY6        0.0000 
     53 CA         -7.3200  -47.2700   64.7600 C.3       6 GLY6        0.0000 
     54 CA         -6.7000  -47.2600   63.3900 C.3       6 GLY6        0.0000 
     55 CA         -9.0500  -45.8900   67.2800 C.3       6 GLY6        0.0000 
     56 CA         -8.4300  -45.8800   65.9100 C.3       6 GLY6        0.0000 
     57 CA         -5.6700  -49.5300   67.1300 C.3       6 GLY6        0.0000 
     58 CA         -5.5500  -48.1200   65.5500 C.3       6 GLY6        0.0000 
     59 CA         -7.7800  -45.3500   67.8600 C.3       6 GLY6        0.0000 
     60 CA         -6.5500  -45.3200   65.1200 C.3       6 GLY6        0.0000 
     61 CA         -9.1600  -39.7400   65.6400 C.3       6 GLY6        0.0000 
     62 CA         -6.3900  -43.3900   66.8500 C.3       6 GLY6        0.0000 
     63 CA         -7.5000  -42.0100   68.0100 C.3       6 GLY6        0.0000 
     64 CA         -6.8800  -42.0000   66.6400 C.3       6 GLY6        0.0000 
     65 CA         -6.2700  -41.9900   65.2700 C.3       6 GLY6        0.0000 
     66 CA         -8.6100  -40.6200   69.1600 C.3       6 GLY6        0.0000 
     67 CA         -8.0000  -40.6100   67.7900 C.3       6 GLY6        0.0000 
     68 CA         -8.5000  -39.2100   67.5800 C.3       6 GLY6        0.0000 
     69 DU         -8.5900  -47.8100   64.1800 H         7 CUB7        0.0000 
@<TRIPOS>BOND
@<TRIPOS>SUBSTRUCTURE
     1 SER1        1 GROUP   
     2 ALA2        2 GROUP   
     3 ASP3       15 GROUP   
     4 LYS4       23 GROUP   
     5 PHE5       24 GROUP   
     6 GLY6       40 GROUP   
     7 CUB7       69 GROUP   
@<TRIPOS>SET

