#    Name: 6cio_2_TDL
#    Modification time : Fri May 22 19:37:41 2020

@<TRIPOS>MOLECULE
6cio_2_TDL
   32    33     1     0     0
SMALL
NO_CHARGES


@<TRIPOS>ATOM
      1 O1B      -131.3030  -42.7400   18.2690 O.co2     1 TDL1204     0.0000 
      2 PB       -131.3590  -41.2800   18.6240 P.3       1 TDL1204     0.0000 
      3 O2B      -131.8830  -41.1220   20.0370 O.co2     1 TDL1204     0.0000 
      4 O3B      -132.2770  -40.5550   17.6740 O.co2     1 TDL1204     0.0000 
      5 O3A      -129.8840  -40.6890   18.5420 O.3       1 TDL1204     0.0000 
      6 PA       -129.5940  -39.1480   18.3120 P.3       1 TDL1204     0.0000 
      7 O1A      -128.1020  -38.9100   18.2830 O.co2     1 TDL1204     0.0000 
      8 O2A      -130.1790  -38.7460   16.9930 O.co2     1 TDL1204     0.0000 
      9 O7       -130.2680  -38.3110   19.4730 O.3       1 TDL1204     0.0000 
     10 C7       -129.8710  -38.5100   20.8440 C.3       1 TDL1204     0.0000 
     11 C6       -130.0860  -37.1330   21.5450 C.3       1 TDL1204     0.0000 
     12 C5       -129.8210  -37.0640   23.0450 C.2       1 TDL1204     0.0000 
     13 S1       -129.9370  -38.5270   24.1170 S.3       1 TDL1204     0.0000 
     14 C4       -129.4910  -35.9830   23.7840 C.2       1 TDL1204     0.0000 
     15 CM4      -129.3290  -34.6050   23.2330 C.3       1 TDL1204     0.0000 
     16 N3       -129.3020  -36.2580   25.1720 N.pl3     1 TDL1204     0.0000 
     17 C2       -129.4960  -37.5440   25.5350 C.2       1 TDL1204     0.0000 
     18 CLA      -129.4030  -38.1430   26.9980 C.3       1 TDL1204     0.0000 
     19 OL1      -128.1870  -37.8660   27.6050 O.3       1 TDL1204     0.0000 
     20 CLB      -129.5880  -39.7050   26.9330 C.3       1 TDL1204     0.0000 
     21 CLC      -130.7330  -37.5950   27.7450 C.2       1 TDL1204     0.0000 
     22 OL2      -131.8690  -37.9410   27.1980 O.co2     1 TDL1204     0.0000 
     23 OL3      -130.6230  -36.8800   28.7990 O.co2     1 TDL1204     0.0000 
     24 C7'      -128.9650  -35.2310   26.1110 C.3       1 TDL1204     0.0000 
     25 C5'      -127.4920  -34.6500   26.0150 C.ar      1 TDL1204     0.0000 
     26 C6'      -127.2730  -33.3560   25.4670 C.ar      1 TDL1204     0.0000 
     27 N1'      -126.0400  -32.8610   25.3860 N.ar      1 TDL1204     0.0000 
     28 C2'      -125.0060  -33.5410   25.8310 C.ar      1 TDL1204     0.0000 
     29 CM2      -123.6120  -32.9020   25.7160 C.3       1 TDL1204     0.0000 
     30 N3'      -125.1410  -34.7460   26.3680 N.ar      1 TDL1204     0.0000 
     31 C4'      -126.3500  -35.3310   26.4810 C.ar      1 TDL1204     0.0000 
     32 N4'      -126.4360  -36.6300   27.0670 N.pl3     1 TDL1204     0.0000 
@<TRIPOS>BOND
     1    1    2 ar   
     2    2    3 ar   
     3    2    4 ar   
     4    2    5 1    
     5    5    6 1    
     6    6    7 ar   
     7    6    8 ar   
     8    6    9 1    
     9    9   10 1    
    10   10   11 1    
    11   11   12 1    
    12   12   13 1    
    13   12   14 2    
    14   13   17 1    
    15   14   15 1    
    16   14   16 1    
    17   16   17 2    
    18   16   24 1    
    19   17   18 1    
    20   18   19 1    
    21   18   20 1    
    22   18   21 1    
    23   21   22 ar   
    24   21   23 ar   
    25   24   25 1    
    26   25   26 ar   
    27   25   31 ar   
    28   26   27 ar   
    29   27   28 ar   
    30   28   29 1    
    31   28   30 ar   
    32   30   31 ar   
    33   31   32 1    
@<TRIPOS>SUBSTRUCTURE
     1 TDL1204     1 GROUP   
@<TRIPOS>SET

