#    Name: 5xz9_1_ATP
#    Modification time : Fri May 22 19:20:50 2020

@<TRIPOS>MOLECULE
5xz9_1_ATP
   31    33     1     0     1
SMALL
NO_CHARGES


@<TRIPOS>ATOM
      1 PG         18.5270  -19.4990   11.5380 P.3       1 ATP401      0.0000 
      2 O1G        19.8330  -18.7810   11.2160 O.co2     1 ATP401      0.0000 
      3 O2G        18.6590  -20.9840   11.3420 O.co2     1 ATP401      0.0000 
      4 O3G        17.3300  -18.9210   10.8040 O.co2     1 ATP401      0.0000 
      5 PB         17.2120  -18.2730   13.9670 P.3       1 ATP401      0.0000 
      6 O1B        16.4580  -17.3510   12.9760 O.co2     1 ATP401      0.0000 
      7 O2B        16.3700  -18.9480   15.0030 O.co2     1 ATP401      0.0000 
      8 O3B        18.1680  -19.3810   13.1710 O.3       1 ATP401      0.0000 
      9 PA         19.7060  -17.5200   15.3900 P.3       1 ATP401      0.0000 
     10 O1A        20.3080  -16.1370   15.3520 O.co2     1 ATP401      0.0000 
     11 O2A        20.4470  -18.6800   14.7670 O.co2     1 ATP401      0.0000 
     12 O3A        18.1570  -17.3210   14.8890 O.3       1 ATP401      0.0000 
     13 O5'        19.5270  -17.9060   16.9290 O.3       1 ATP401      0.0000 
     14 C5'        18.5240  -17.4180   17.8160 C.3       1 ATP401      0.0000 
     15 C4'        19.0320  -17.8150   19.2080 C.3       1 ATP401      0.0000 
     16 O4'        18.9530  -19.2360   19.2900 O.3       1 ATP401      0.0000 
     17 C3'        20.5130  -17.5660   19.5220 C.3       1 ATP401      0.0000 
     18 O3'        20.9260  -16.2580   19.8140 O.3       1 ATP401      0.0000 
     19 C2'        20.7190  -18.4920   20.7020 C.3       1 ATP401      0.0000 
     20 O2'        20.2280  -17.9990   21.9490 O.3       1 ATP401      0.0000 
     21 C1'        19.9060  -19.6880   20.2660 C.3       1 ATP401      0.0000 
     22 N9         20.7330  -20.7180   19.6010 N.pl3     1 ATP401      0.0000 
     23 C8         21.1460  -20.7570   18.2910 C.2       1 ATP401      0.0000 
     24 N7         21.8650  -21.9100   18.0580 N.2       1 ATP401      0.0000 
     25 C5         21.9350  -22.5850   19.2470 C.ar      1 ATP401      0.0000 
     26 C6         22.5330  -23.8420   19.7690 C.ar      1 ATP401      0.0000 
     27 N6         23.2190  -24.6290   18.9370 N.pl3     1 ATP401      0.0000 
     28 N1         22.3540  -24.1920   21.0790 N.ar      1 ATP401      0.0000 
     29 C2         21.6490  -23.4030   21.9220 C.ar      1 ATP401      0.0000 
     30 N3         21.1040  -22.2280   21.5100 N.ar      1 ATP401      0.0000 
     31 C4         21.1830  -21.7940   20.2450 C.ar      1 ATP401      0.0000 
@<TRIPOS>BOND
     1    1    2 ar   
     2    1    3 ar   
     3    1    4 ar   
     4    1    8 1    
     5    5    6 ar   
     6    5    7 ar   
     7    5    8 1    
     8    5   12 1    
     9    9   10 ar   
    10    9   11 ar   
    11    9   12 1    
    12    9   13 1    
    13   13   14 1    
    14   14   15 1    
    15   15   16 1    
    16   15   17 1    
    17   16   21 1    
    18   17   18 1    
    19   17   19 1    
    20   19   20 1    
    21   19   21 1    
    22   21   22 1    
    23   22   23 1    
    24   22   31 1    
    25   23   24 2    
    26   24   25 1    
    27   25   26 ar   
    28   25   31 ar   
    29   26   27 1    
    30   26   28 ar   
    31   28   29 ar   
    32   29   30 ar   
    33   30   31 ar   
@<TRIPOS>SUBSTRUCTURE
     1 ATP401      1 GROUP   
@<TRIPOS>SET
ATOM$ORANGE STATIC     ATOMS   COLORGROUP SYSTEM 
20 14 14 15 15 17 17 19 19 21 21 23 23 25 25 26 26 29 \
29 31 31 

