#    Name: 6djn_2_ADP
#    Modification time : Fri May 22 19:37:26 2020

@<TRIPOS>MOLECULE
6djn_2_ADP
   27    29     1     0     1
SMALL
NO_CHARGES


@<TRIPOS>ATOM
      1 PB        188.0910  166.6230  184.5470 P.3       1 ADP802      0.0000 
      2 O1B       188.6060  166.1840  183.2090 O.co2     1 ADP802      0.0000 
      3 O2B       189.1720  166.9080  185.5380 O.co2     1 ADP802      0.0000 
      4 O3B       187.0040  167.6440  184.4920 O.co2     1 ADP802      0.0000 
      5 PA        187.7850  163.8550  184.8670 P.3       1 ADP802      0.0000 
      6 O1A       187.6650  163.5020  183.4160 O.co2     1 ADP802      0.0000 
      7 O2A       189.0610  163.6290  185.6100 O.co2     1 ADP802      0.0000 
      8 O3A       187.3370  165.3590  185.1520 O.3       1 ADP802      0.0000 
      9 O5'       186.6030  163.1120  185.6240 O.3       1 ADP802      0.0000 
     10 C5'       186.3180  163.4300  186.9730 C.3       1 ADP802      0.0000 
     11 C4'       184.8720  163.0500  187.2290 C.3       1 ADP802      0.0000 
     12 O4'       184.6910  161.6890  186.8760 O.3       1 ADP802      0.0000 
     13 C3'       184.4990  163.1950  188.6800 C.3       1 ADP802      0.0000 
     14 O3'       183.3700  164.0540  188.7650 O.3       1 ADP802      0.0000 
     15 C2'       184.0510  161.8360  189.1370 C.3       1 ADP802      0.0000 
     16 O2'       182.7250  161.9660  189.6420 O.3       1 ADP802      0.0000 
     17 C1'       184.0350  160.9700  187.9050 C.3       1 ADP802      0.0000 
     18 N9        184.8290  159.7620  188.1620 N.pl3     1 ADP802      0.0000 
     19 C8        186.1250  159.7650  188.4860 C.2       1 ADP802      0.0000 
     20 N7        186.5810  158.5030  188.6540 N.2       1 ADP802      0.0000 
     21 C5        185.5500  157.6760  188.4380 C.ar      1 ADP802      0.0000 
     22 C6        185.3390  156.2210  188.4570 C.ar      1 ADP802      0.0000 
     23 N6        186.3500  155.3750  188.7490 N.pl3     1 ADP802      0.0000 
     24 N1        184.1080  155.7630  188.1760 N.ar      1 ADP802      0.0000 
     25 C2        183.1020  156.5940  187.8850 C.ar      1 ADP802      0.0000 
     26 N3        183.2170  157.9250  187.8490 N.ar      1 ADP802      0.0000 
     27 C4        184.3960  158.5110  188.1150 C.ar      1 ADP802      0.0000 
@<TRIPOS>BOND
     1    1    2 ar   
     2    1    3 ar   
     3    1    4 ar   
     4    1    8 1    
     5    5    6 ar   
     6    5    7 ar   
     7    5    8 1    
     8    5    9 1    
     9    9   10 1    
    10   10   11 1    
    11   11   12 1    
    12   11   13 1    
    13   12   17 1    
    14   13   14 1    
    15   13   15 1    
    16   15   16 1    
    17   15   17 1    
    18   17   18 1    
    19   18   19 1    
    20   18   27 1    
    21   19   20 2    
    22   20   21 1    
    23   21   22 ar   
    24   21   27 ar   
    25   22   23 1    
    26   22   24 ar   
    27   24   25 ar   
    28   25   26 ar   
    29   26   27 ar   
@<TRIPOS>SUBSTRUCTURE
     1 ADP802      1 GROUP   
@<TRIPOS>SET
ATOM$ORANGE STATIC     ATOMS   COLORGROUP SYSTEM 
20 10 10 11 11 13 13 15 15 17 17 19 19 21 21 22 22 25 \
25 27 27 

