#    Name: 6djn_3_ADP
#    Modification time : Fri May 22 19:37:30 2020

@<TRIPOS>MOLECULE
6djn_3_ADP
   27    29     1     0     1
SMALL
NO_CHARGES


@<TRIPOS>ATOM
      1 PB        156.2860  179.9170  157.0000 P.3       1 ADP802      0.0000 
      2 O1B       156.0220  180.2910  155.5730 O.co2     1 ADP802      0.0000 
      3 O2B       155.1380  180.2070  157.9070 O.co2     1 ADP802      0.0000 
      4 O3B       156.9350  178.5890  157.2140 O.co2     1 ADP802      0.0000 
      5 PA        157.2060  182.5130  157.4500 P.3       1 ADP802      0.0000 
      6 O1A       157.2090  183.0380  156.0480 O.co2     1 ADP802      0.0000 
      7 O2A       156.1030  182.8490  158.3950 O.co2     1 ADP802      0.0000 
      8 O3A       157.4260  180.9370  157.4220 O.3       1 ADP802      0.0000 
      9 O5'       158.5720  182.9100  158.1580 O.3       1 ADP802      0.0000 
     10 C5'       158.7890  182.4930  159.4970 C.3       1 ADP802      0.0000 
     11 C4'       160.2810  182.5190  159.7560 C.3       1 ADP802      0.0000 
     12 O4'       160.7740  183.7890  159.3680 O.3       1 ADP802      0.0000 
     13 C3'       160.6040  182.3360  161.2160 C.3       1 ADP802      0.0000 
     14 O3'       161.5470  181.2790  161.3460 O.3       1 ADP802      0.0000 
     15 C2'       161.3160  183.5850  161.6500 C.3       1 ADP802      0.0000 
     16 O2'       162.5630  183.2050  162.2250 O.3       1 ADP802      0.0000 
     17 C1'       161.5640  184.3690  160.3890 C.3       1 ADP802      0.0000 
     18 N9        161.0470  185.7210  160.6030 N.pl3     1 ADP802      0.0000 
     19 C8        159.7710  185.9950  160.8810 C.2       1 ADP802      0.0000 
     20 N7        159.5910  187.3250  161.0260 N.2       1 ADP802      0.0000 
     21 C5        160.7800  187.9100  160.8400 C.ar      1 ADP802      0.0000 
     22 C6        161.2900  189.2860  160.8570 C.ar      1 ADP802      0.0000 
     23 N6        160.4630  190.3230  161.1080 N.pl3     1 ADP802      0.0000 
     24 N1        162.5970  189.4740  160.6160 N.ar      1 ADP802      0.0000 
     25 C2        163.4190  188.4470  160.3700 C.ar      1 ADP802      0.0000 
     26 N3        163.0270  187.1700  160.3390 N.ar      1 ADP802      0.0000 
     27 C4        161.7420  186.8480  160.5640 C.ar      1 ADP802      0.0000 
@<TRIPOS>BOND
     1    1    2 ar   
     2    1    3 ar   
     3    1    4 ar   
     4    1    8 1    
     5    5    6 ar   
     6    5    7 ar   
     7    5    8 1    
     8    5    9 1    
     9    9   10 1    
    10   10   11 1    
    11   11   12 1    
    12   11   13 1    
    13   12   17 1    
    14   13   14 1    
    15   13   15 1    
    16   15   16 1    
    17   15   17 1    
    18   17   18 1    
    19   18   19 1    
    20   18   27 1    
    21   19   20 2    
    22   20   21 1    
    23   21   22 ar   
    24   21   27 ar   
    25   22   23 1    
    26   22   24 ar   
    27   24   25 ar   
    28   25   26 ar   
    29   26   27 ar   
@<TRIPOS>SUBSTRUCTURE
     1 ADP802      1 GROUP   
@<TRIPOS>SET
ATOM$ORANGE STATIC     ATOMS   COLORGROUP SYSTEM 
20 10 10 11 11 13 13 15 15 17 17 19 19 21 21 22 22 25 \
25 27 27 

