#    Name: 6djn_4_ADP
#    Modification time : Fri May 22 19:37:35 2020

@<TRIPOS>MOLECULE
6djn_4_ADP
   27    29     1     0     1
SMALL
NO_CHARGES


@<TRIPOS>ATOM
      1 PB        184.1000  159.5630  129.5370 P.3       1 ADP802      0.0000 
      2 O1B       184.2800  159.0290  128.1490 O.co2     1 ADP802      0.0000 
      3 O2B       185.1410  159.0780  130.4860 O.co2     1 ADP802      0.0000 
      4 O3B       183.7870  161.0170  129.6420 O.co2     1 ADP802      0.0000 
      5 PA        182.5710  157.2940  130.0010 P.3       1 ADP802      0.0000 
      6 O1A       182.4290  156.8280  128.5860 O.co2     1 ADP802      0.0000 
      7 O2A       183.5740  156.6820  130.9180 O.co2     1 ADP802      0.0000 
      8 O3A       182.7540  158.8750  130.0230 O.3       1 ADP802      0.0000 
      9 O5'       181.1510  157.2170  130.7070 O.3       1 ADP802      0.0000 
     10 C5'       181.0630  157.4610  132.0990 C.3       1 ADP802      0.0000 
     11 C4'       179.6460  157.9140  132.3810 C.3       1 ADP802      0.0000 
     12 O4'       178.7760  156.8830  131.9520 O.3       1 ADP802      0.0000 
     13 C3'       179.4030  158.1260  133.8510 C.3       1 ADP802      0.0000 
     14 O3'       178.9300  159.4500  134.0470 O.3       1 ADP802      0.0000 
     15 C2'       178.2790  157.2090  134.2350 C.3       1 ADP802      0.0000 
     16 O2'       177.1890  158.0230  134.6570 O.3       1 ADP802      0.0000 
     17 C1'       177.8830  156.4830  132.9770 C.3       1 ADP802      0.0000 
     18 N9        178.0920  155.0430  133.1720 N.pl3     1 ADP802      0.0000 
     19 C8        179.2810  154.4740  133.3880 C.2       1 ADP802      0.0000 
     20 N7        179.1560  153.1350  133.5220 N.2       1 ADP802      0.0000 
     21 C5        177.8560  152.8430  133.3910 C.ar      1 ADP802      0.0000 
     22 C6        177.0370  151.6200  133.4280 C.ar      1 ADP802      0.0000 
     23 N6        177.5990  150.4110  133.6390 N.pl3     1 ADP802      0.0000 
     24 N1        175.7140  151.7450  133.2480 N.ar      1 ADP802      0.0000 
     25 C2        175.1510  152.9390  133.0420 C.ar      1 ADP802      0.0000 
     26 N3        175.8250  154.0920  132.9960 N.ar      1 ADP802      0.0000 
     27 C4        177.1580  154.1050  133.1620 C.ar      1 ADP802      0.0000 
@<TRIPOS>BOND
     1    1    2 ar   
     2    1    3 ar   
     3    1    4 ar   
     4    1    8 1    
     5    5    6 ar   
     6    5    7 ar   
     7    5    8 1    
     8    5    9 1    
     9    9   10 1    
    10   10   11 1    
    11   11   12 1    
    12   11   13 1    
    13   12   17 1    
    14   13   14 1    
    15   13   15 1    
    16   15   16 1    
    17   15   17 1    
    18   17   18 1    
    19   18   19 1    
    20   18   27 1    
    21   19   20 2    
    22   20   21 1    
    23   21   22 ar   
    24   21   27 ar   
    25   22   23 1    
    26   22   24 ar   
    27   24   25 ar   
    28   25   26 ar   
    29   26   27 ar   
@<TRIPOS>SUBSTRUCTURE
     1 ADP802      1 GROUP   
@<TRIPOS>SET
ATOM$ORANGE STATIC     ATOMS   COLORGROUP SYSTEM 
20 10 10 11 11 13 13 15 15 17 17 19 19 21 21 22 22 25 \
25 27 27 

