#    Name: 6djn_1_ADP
#    Modification time : Fri May 22 19:37:22 2020

@<TRIPOS>MOLECULE
6djn_1_ADP
   27    29     1     0     1
SMALL
NO_CHARGES


@<TRIPOS>ATOM
      1 PB        154.0930  172.2760  211.9470 P.3       1 ADP802      0.0000 
      2 O1B       153.6430  172.6280  210.5630 O.co2     1 ADP802      0.0000 
      3 O2B       152.9960  171.8540  212.8650 O.co2     1 ADP802      0.0000 
      4 O3B       155.3170  171.4270  212.0000 O.co2     1 ADP802      0.0000 
      5 PA        153.6760  174.9740  212.4570 P.3       1 ADP802      0.0000 
      6 O1A       153.5730  175.4510  211.0410 O.co2     1 ADP802      0.0000 
      7 O2A       152.4510  174.7450  213.2780 O.co2     1 ADP802      0.0000 
      8 O3A       154.5710  173.6590  212.5620 O.3       1 ADP802      0.0000 
      9 O5'       154.6320  175.9810  213.2290 O.3       1 ADP802      0.0000 
     10 C5'       155.0160  175.7030  214.5640 C.3       1 ADP802      0.0000 
     11 C4'       156.3770  176.3400  214.7620 C.3       1 ADP802      0.0000 
     12 O4'       156.2740  177.6950  214.3690 O.3       1 ADP802      0.0000 
     13 C3'       156.8290  176.3200  216.2010 C.3       1 ADP802      0.0000 
     14 O3'       158.1610  175.8280  216.2550 O.3       1 ADP802      0.0000 
     15 C2'       156.9030  177.7510  216.6420 C.3       1 ADP802      0.0000 
     16 O2'       158.2070  177.9880  217.1690 O.3       1 ADP802      0.0000 
     17 C1'       156.7290  178.5640  215.3890 C.3       1 ADP802      0.0000 
     18 N9        155.6660  179.5440  215.6180 N.pl3     1 ADP802      0.0000 
     19 C8        154.4030  179.2370  215.9140 C.2       1 ADP802      0.0000 
     20 N7        153.6620  180.3580  216.0580 N.2       1 ADP802      0.0000 
     21 C5        154.4760  181.4020  215.8560 C.ar      1 ADP802      0.0000 
     22 C6        154.3420  182.8650  215.8640 C.ar      1 ADP802      0.0000 
     23 N6        153.1560  183.4520  216.1260 N.pl3     1 ADP802      0.0000 
     24 N1        155.4380  183.5940  215.6060 N.ar      1 ADP802      0.0000 
     25 C2        156.6180  183.0180  215.3470 C.ar      1 ADP802      0.0000 
     26 N3        156.8180  181.6990  215.3220 N.ar      1 ADP802      0.0000 
     27 C4        155.7990  180.8590  215.5680 C.ar      1 ADP802      0.0000 
@<TRIPOS>BOND
     1    1    2 ar   
     2    1    3 ar   
     3    1    4 ar   
     4    1    8 1    
     5    5    6 ar   
     6    5    7 ar   
     7    5    8 1    
     8    5    9 1    
     9    9   10 1    
    10   10   11 1    
    11   11   12 1    
    12   11   13 1    
    13   12   17 1    
    14   13   14 1    
    15   13   15 1    
    16   15   16 1    
    17   15   17 1    
    18   17   18 1    
    19   18   19 1    
    20   18   27 1    
    21   19   20 2    
    22   20   21 1    
    23   21   22 ar   
    24   21   27 ar   
    25   22   23 1    
    26   22   24 ar   
    27   24   25 ar   
    28   25   26 ar   
    29   26   27 ar   
@<TRIPOS>SUBSTRUCTURE
     1 ADP802      1 GROUP   
@<TRIPOS>SET
ATOM$ORANGE STATIC     ATOMS   COLORGROUP SYSTEM 
20 10 10 11 11 13 13 15 15 17 17 19 19 21 21 22 22 25 \
25 27 27 

