#    Name: 6djn_2_ADP_CAVITY_N1_4
#    Modification time : Fri May 22 19:37:27 2020

@<TRIPOS>MOLECULE
6djn_2_ADP_CAVITY_N1_4
   60     0     6     0     0
SMALL
NO_CHARGES


@<TRIPOS>ATOM
      1 OG        183.1800  161.9000  186.3100 O.3       1 SER1        0.0000 
      2 N         183.6400  160.4800  186.3700 N.am      2 ALA2        0.0000 
      3 N         184.0800  163.7500  185.7800 N.am      2 ALA2        0.0000 
      4 O         185.4400  164.1700  185.3100 O.2       2 ALA2        0.0000 
      5 O         186.8000  164.5900  184.8400 O.2       2 ALA2        0.0000 
      6 O         187.2600  163.1700  184.8900 O.2       2 ALA2        0.0000 
      7 N         184.0800  160.6800  187.7900 N.am      2 ALA2        0.0000 
      8 OD1       188.1600  165.0200  184.3600 O.co2     3 ASP3        0.0000 
      9 OD1       188.6200  163.5900  184.4200 O.co2     3 ASP3        0.0000 
     10 OD1       183.6200  162.1000  187.7300 O.co2     3 ASP3        0.0000 
     11 OD1       185.9000  159.6700  187.3800 O.co2     3 ASP3        0.0000 
     12 OD1       188.5900  165.2100  185.7900 O.co2     3 ASP3        0.0000 
     13 OD1       187.6900  160.2900  188.3300 O.co2     3 ASP3        0.0000 
     14 OD1       189.0500  160.7100  187.8500 O.co2     3 ASP3        0.0000 
     15 OD1       188.5900  159.0600  189.8100 O.co2     3 ASP3        0.0000 
     16 OD1       187.1700  164.9600  191.0000 O.co2     3 ASP3        0.0000 
     17 OD1       187.6400  163.5400  191.0600 O.co2     3 ASP3        0.0000 
     18 NZ        183.1500  163.5300  187.6800 N.4       4 LYS4        0.0000 
     19 NZ        183.5900  163.7300  189.1000 N.4       4 LYS4        0.0000 
     20 NZ        184.0500  162.3000  189.1600 N.4       4 LYS4        0.0000 
     21 NZ        184.5100  160.8700  189.2100 N.4       4 LYS4        0.0000 
     22 NZ        184.9500  164.1500  188.6300 N.4       4 LYS4        0.0000 
     23 NZ        185.4100  162.7200  188.6800 N.4       4 LYS4        0.0000 
     24 NZ        185.8700  161.2900  188.7400 N.4       4 LYS4        0.0000 
     25 NZ        186.3300  159.8700  188.8000 N.4       4 LYS4        0.0000 
     26 NZ        187.2300  161.7200  188.2700 N.4       4 LYS4        0.0000 
     27 NZ        183.5600  165.3500  190.4600 N.4       4 LYS4        0.0000 
     28 NZ        185.8400  162.9200  190.1100 N.4       4 LYS4        0.0000 
     29 NZ        187.6600  161.9100  189.6900 N.4       4 LYS4        0.0000 
     30 NZ        188.1300  160.4900  189.7500 N.4       4 LYS4        0.0000 
     31 NZ        188.5600  160.6900  191.1700 N.4       4 LYS4        0.0000 
     32 NZ        189.0200  159.2600  191.2300 N.4       4 LYS4        0.0000 
     33 CA        184.5400  162.3300  185.8400 C.3       5 GLY6        0.0000 
     34 CA        185.9000  162.7500  185.3700 C.3       5 GLY6        0.0000 
     35 CA        184.5100  163.9500  187.2000 C.3       5 GLY6        0.0000 
     36 CA        185.4400  161.1000  187.3200 C.3       5 GLY6        0.0000 
     37 CA        185.8700  164.3700  186.7300 C.3       5 GLY6        0.0000 
     38 CA        186.3400  162.9400  186.7900 C.3       5 GLY6        0.0000 
     39 CA        186.8000  161.5200  186.8500 C.3       5 GLY6        0.0000 
     40 CA        186.7700  166.2200  186.2000 C.3       5 GLY6        0.0000 
     41 CA        187.2300  164.7900  186.2600 C.3       5 GLY6        0.0000 
     42 CA        187.7000  163.3700  186.3200 C.3       5 GLY6        0.0000 
     43 CA        188.1600  161.9400  186.3700 C.3       5 GLY6        0.0000 
     44 CA        189.0600  163.7900  185.8400 C.3       5 GLY6        0.0000 
     45 CA        189.5200  162.3600  185.9000 C.3       5 GLY6        0.0000 
     46 CA        186.3100  164.5700  188.1500 C.3       5 GLY6        0.0000 
     47 CA        187.6700  164.9900  187.6800 C.3       5 GLY6        0.0000 
     48 CA        188.1300  163.5600  187.7400 C.3       5 GLY6        0.0000 
     49 CA        188.5900  162.1400  187.8000 C.3       5 GLY6        0.0000 
     50 CA        184.0200  163.9200  190.5200 C.3       5 GLY6        0.0000 
     51 CA        185.3800  164.3400  190.0500 C.3       5 GLY6        0.0000 
     52 CA        186.2800  166.1900  189.5200 C.3       5 GLY6        0.0000 
     53 CA        186.7400  164.7700  189.5800 C.3       5 GLY6        0.0000 
     54 CA        187.2000  163.3400  189.6300 C.3       5 GLY6        0.0000 
     55 CA        189.4900  160.9100  189.2800 C.3       5 GLY6        0.0000 
     56 CA        189.9500  159.4800  189.3300 C.3       5 GLY6        0.0000 
     57 CA        185.3500  165.9700  191.4100 C.3       5 GLY6        0.0000 
     58 CA        185.8100  164.5400  191.4700 C.3       5 GLY6        0.0000 
     59 DU        184.9800  162.5200  187.2600 H         6 CUB7        0.0000 
     60 DU        186.7700  163.1400  188.2100 H         6 CUB7        0.0000 
@<TRIPOS>BOND
@<TRIPOS>SUBSTRUCTURE
     1 SER1        1 GROUP   
     2 ALA2        2 GROUP   
     3 ASP3        8 GROUP   
     4 LYS4       18 GROUP   
     5 GLY6       33 GROUP   
     6 CUB7       59 GROUP   
@<TRIPOS>SET

