#    Name: 6f57_1_SAH
#    Modification time : Fri May 22 19:27:01 2020

@<TRIPOS>MOLECULE
6f57_1_SAH
   26    28     1     0     0
SMALL
NO_CHARGES


@<TRIPOS>ATOM
      1 N         551.6340   18.8990  171.1130 N.4       1 SAH1001     0.0000 
      2 CA        552.5230   18.3510  172.1330 C.3       1 SAH1001     0.0000 
      3 CB        553.9680   18.3340  171.6410 C.3       1 SAH1001     0.0000 
      4 CG        554.1800   18.8980  170.2400 C.3       1 SAH1001     0.0000 
      5 SD        555.9390   19.0020  169.8270 S.3       1 SAH1001     0.0000 
      6 C         552.3960   19.0790  173.4700 C.2       1 SAH1001     0.0000 
      7 O         551.4290   19.8010  173.7080 O.co2     1 SAH1001     0.0000 
      8 OXT       553.2490   18.9480  174.3490 O.co2     1 SAH1001     0.0000 
      9 C5'       555.8300   17.6330  168.6490 C.3       1 SAH1001     0.0000 
     10 C4'       556.2020   16.2960  169.2760 C.3       1 SAH1001     0.0000 
     11 O4'       556.2080   15.2730  168.3000 O.3       1 SAH1001     0.0000 
     12 C3'       557.5890   16.2970  169.8970 C.3       1 SAH1001     0.0000 
     13 O3'       557.4770   16.3150  171.3010 O.3       1 SAH1001     0.0000 
     14 C2'       558.2220   14.9930  169.4480 C.3       1 SAH1001     0.0000 
     15 O2'       558.6260   14.2420  170.5690 O.3       1 SAH1001     0.0000 
     16 C1'       557.1220   14.2660  168.6860 C.3       1 SAH1001     0.0000 
     17 N9        557.6410   13.5560  167.5020 N.pl3     1 SAH1001     0.0000 
     18 C8        558.7510   13.8900  166.7740 C.2       1 SAH1001     0.0000 
     19 N7        558.8920   12.9990  165.7670 N.2       1 SAH1001     0.0000 
     20 C5        557.8880   12.1030  165.8400 C.ar      1 SAH1001     0.0000 
     21 C6        557.5670   11.0020  165.0620 C.ar      1 SAH1001     0.0000 
     22 N6        558.3290   10.6790  164.0220 N.pl3     1 SAH1001     0.0000 
     23 N1        556.4550   10.2460  165.3740 N.ar      1 SAH1001     0.0000 
     24 C2        555.6730   10.5910  166.4550 C.ar      1 SAH1001     0.0000 
     25 N3        556.0030   11.6910  167.2230 N.ar      1 SAH1001     0.0000 
     26 C4        557.0930   12.4380  166.9240 C.ar      1 SAH1001     0.0000 
@<TRIPOS>BOND
     1    1    2 1    
     2    2    3 1    
     3    2    6 1    
     4    3    4 1    
     5    4    5 1    
     6    5    9 1    
     7    6    7 ar   
     8    6    8 ar   
     9    9   10 1    
    10   10   11 1    
    11   10   12 1    
    12   11   16 1    
    13   12   13 1    
    14   12   14 1    
    15   14   15 1    
    16   14   16 1    
    17   16   17 1    
    18   17   18 1    
    19   17   26 1    
    20   18   19 2    
    21   19   20 1    
    22   20   21 ar   
    23   20   26 ar   
    24   21   22 1    
    25   21   23 ar   
    26   23   24 ar   
    27   24   25 ar   
    28   25   26 ar   
@<TRIPOS>SUBSTRUCTURE
     1 SAH1001     1 GROUP   
@<TRIPOS>SET

