#    Name: 6f57_2_SAH
#    Modification time : Fri May 22 19:27:06 2020

@<TRIPOS>MOLECULE
6f57_2_SAH
   26    28     1     0     0
SMALL
NO_CHARGES


@<TRIPOS>ATOM
      1 N         569.0200   19.6430  209.9230 N.4       1 SAH1001     0.0000 
      2 CA        568.7160   19.6590  208.4940 C.3       1 SAH1001     0.0000 
      3 CB        569.9170   19.1860  207.6800 C.3       1 SAH1001     0.0000 
      4 CG        571.1630   18.8770  208.5060 C.3       1 SAH1001     0.0000 
      5 SD        572.6290   18.6520  207.4650 S.3       1 SAH1001     0.0000 
      6 C         567.4360   18.8920  208.1610 C.2       1 SAH1001     0.0000 
      7 O         567.1330   18.6200  206.9960 O.co2     1 SAH1001     0.0000 
      8 OXT       566.6640   18.5470  209.0580 O.co2     1 SAH1001     0.0000 
      9 C5'       573.4580   20.0820  208.2060 C.3       1 SAH1001     0.0000 
     10 C4'       573.2480   21.3790  207.4290 C.3       1 SAH1001     0.0000 
     11 O4'       573.9410   22.4420  208.0570 O.3       1 SAH1001     0.0000 
     12 C3'       573.7660   21.3150  205.9990 C.3       1 SAH1001     0.0000 
     13 O3'       572.6850   21.2750  205.0950 O.3       1 SAH1001     0.0000 
     14 C2'       574.5470   22.5980  205.7950 C.3       1 SAH1001     0.0000 
     15 O2'       574.0210   23.3250  204.7100 O.3       1 SAH1001     0.0000 
     16 C1'       574.3580   23.3800  207.0850 C.3       1 SAH1001     0.0000 
     17 N9        575.6130   24.0480  207.4770 N.pl3     1 SAH1001     0.0000 
     18 C8        576.8820   23.6710  207.1170 C.2       1 SAH1001     0.0000 
     19 N7        577.7610   24.5390  207.6680 N.2       1 SAH1001     0.0000 
     20 C5        577.0700   25.4630  208.3710 C.ar      1 SAH1001     0.0000 
     21 C6        577.4790   26.5570  209.1170 C.ar      1 SAH1001     0.0000 
     22 N6        578.7770   26.8320  209.2190 N.pl3     1 SAH1001     0.0000 
     23 N1        576.5350   27.3480  209.7420 N.ar      1 SAH1001     0.0000 
     24 C2        575.1920   27.0440  209.6220 C.ar      1 SAH1001     0.0000 
     25 N3        574.7940   25.9500  208.8780 N.ar      1 SAH1001     0.0000 
     26 C4        575.7180   25.1720  208.2600 C.ar      1 SAH1001     0.0000 
@<TRIPOS>BOND
     1    1    2 1    
     2    2    3 1    
     3    2    6 1    
     4    3    4 1    
     5    4    5 1    
     6    5    9 1    
     7    6    7 ar   
     8    6    8 ar   
     9    9   10 1    
    10   10   11 1    
    11   10   12 1    
    12   11   16 1    
    13   12   13 1    
    14   12   14 1    
    15   14   15 1    
    16   14   16 1    
    17   16   17 1    
    18   17   18 1    
    19   17   26 1    
    20   18   19 2    
    21   19   20 1    
    22   20   21 ar   
    23   20   26 ar   
    24   21   22 1    
    25   21   23 ar   
    26   23   24 ar   
    27   24   25 ar   
    28   25   26 ar   
@<TRIPOS>SUBSTRUCTURE
     1 SAH1001     1 GROUP   
@<TRIPOS>SET

