#    Name: 6u5u_1_FMN_CAVITY_N1_4
#    Modification time : Fri May 22 19:25:29 2020

@<TRIPOS>MOLECULE
6u5u_1_FMN_CAVITY_N1_4
   77     0     6     0     0
SMALL
NO_CHARGES


@<TRIPOS>ATOM
      1 OG        121.0500  156.1000  268.8600 O.3       1 SER1        0.0000 
      2 OG        119.7200  155.8500  269.5000 O.3       1 SER1        0.0000 
      3 OG        120.0700  156.7900  270.6100 O.3       1 SER1        0.0000 
      4 O         117.2400  157.3500  264.9400 O.2       2 ALA2        0.0000 
      5 O         115.9000  157.1000  265.5800 O.2       2 ALA2        0.0000 
      6 N         118.3300  159.6900  264.6200 N.am      2 ALA2        0.0000 
      7 N         118.9200  158.5500  265.4000 N.am      2 ALA2        0.0000 
      8 N         117.5900  158.3000  266.0400 N.am      2 ALA2        0.0000 
      9 N         120.8500  157.6700  265.5400 N.am      2 ALA2        0.0000 
     10 N         118.1800  157.1600  266.8300 N.am      2 ALA2        0.0000 
     11 O         118.7700  156.0300  267.6100 O.2       2 ALA2        0.0000 
     12 O         117.4400  155.7800  268.2500 O.2       2 ALA2        0.0000 
     13 N         122.0300  155.4000  267.1100 N.am      2 ALA2        0.0000 
     14 N         120.7000  155.1500  267.7500 N.am      2 ALA2        0.0000 
     15 N         119.4200  162.0200  264.3000 N.am      2 ALA2        0.0000 
     16 N         121.3400  161.1400  264.4400 N.am      2 ALA2        0.0000 
     17 N         120.0100  160.8900  265.0800 N.am      2 ALA2        0.0000 
     18 N         118.6800  160.6400  265.7300 N.am      2 ALA2        0.0000 
     19 N         121.9400  160.0100  265.2300 N.am      2 ALA2        0.0000 
     20 N         120.6100  159.7600  265.8700 N.am      2 ALA2        0.0000 
     21 N         119.2700  159.5000  266.5100 N.am      2 ALA2        0.0000 
     22 N         123.8600  159.1300  265.3700 N.am      2 ALA2        0.0000 
     23 N         122.5300  158.8800  266.0100 N.am      2 ALA2        0.0000 
     24 N         121.2000  158.6200  266.6500 N.am      2 ALA2        0.0000 
     25 N         119.8700  158.3700  267.2900 N.am      2 ALA2        0.0000 
     26 N         123.1200  157.7400  266.7900 N.am      2 ALA2        0.0000 
     27 N         121.7900  157.4900  267.4300 N.am      2 ALA2        0.0000 
     28 N         120.4600  157.2300  268.0700 N.am      2 ALA2        0.0000 
     29 N         119.1300  156.9800  268.7200 N.am      2 ALA2        0.0000 
     30 O         117.0600  155.3400  270.7800 O.2       2 ALA2        0.0000 
     31 O         121.1000  163.2300  264.7700 O.2       2 ALA2        0.0000 
     32 O         123.0300  162.3500  264.9100 O.2       2 ALA2        0.0000 
     33 N         120.3600  161.8400  266.1900 N.am      2 ALA2        0.0000 
     34 O         123.6200  161.2100  265.6900 O.2       2 ALA2        0.0000 
     35 O         125.5500  160.3300  265.8300 O.2       2 ALA2        0.0000 
     36 O         125.9000  161.2800  266.9400 O.2       2 ALA2        0.0000 
     37 OD1       122.2900  160.9600  266.3300 O.co2     3 ASP3        0.0000 
     38 OD1       120.9600  160.7000  266.9700 O.co2     3 ASP3        0.0000 
     39 OD1       119.6300  160.4500  267.6200 O.co2     3 ASP3        0.0000 
     40 OD1       122.8800  159.8200  267.1200 O.co2     3 ASP3        0.0000 
     41 OD1       121.5500  159.5700  267.7600 O.co2     3 ASP3        0.0000 
     42 OD1       120.2200  159.3200  268.4000 O.co2     3 ASP3        0.0000 
     43 OD1       122.1400  158.4400  268.5400 O.co2     3 ASP3        0.0000 
     44 OD1       120.8100  158.1800  269.1800 O.co2     3 ASP3        0.0000 
     45 CZ        117.3800  159.8700  262.7300 C.ar      4 PHE5        0.0000 
     46 CZ        119.0700  161.0700  263.1900 C.ar      4 PHE5        0.0000 
     47 CZ        117.7300  160.8200  263.8400 C.ar      4 PHE5        0.0000 
     48 CZ        120.7500  162.2800  263.6600 C.ar      4 PHE5        0.0000 
     49 CA        116.0500  159.6200  263.3700 C.3       5 GLY6        0.0000 
     50 CA        117.9800  158.7400  263.5100 C.3       5 GLY6        0.0000 
     51 CA        116.6400  158.4800  264.1500 C.3       5 GLY6        0.0000 
     52 CA        115.3100  158.2300  264.7900 C.3       5 GLY6        0.0000 
     53 CA        116.4000  160.5700  264.4800 C.3       5 GLY6        0.0000 
     54 CA        117.0000  159.4300  265.2600 C.3       5 GLY6        0.0000 
     55 CA        115.6600  159.1800  265.9000 C.3       5 GLY6        0.0000 
     56 CA        116.2600  158.0400  266.6800 C.3       5 GLY6        0.0000 
     57 CA        116.8500  156.9100  267.4700 C.3       5 GLY6        0.0000 
     58 CA        117.3500  160.3800  266.3700 C.3       5 GLY6        0.0000 
     59 CA        117.9400  159.2500  267.1500 C.3       5 GLY6        0.0000 
     60 CA        116.6100  158.9900  267.7900 C.3       5 GLY6        0.0000 
     61 CA        117.2000  157.8600  268.5700 C.3       5 GLY6        0.0000 
     62 CA        117.8000  156.7300  269.3600 C.3       5 GLY6        0.0000 
     63 CA        123.7200  156.6100  267.5700 C.3       5 GLY6        0.0000 
     64 CA        122.3800  156.3500  268.2200 C.3       5 GLY6        0.0000 
     65 CA        118.3900  155.5900  270.1400 C.3       5 GLY6        0.0000 
     66 CA        118.2900  160.2000  268.2600 C.3       5 GLY6        0.0000 
     67 CA        124.2100  160.0800  266.4700 C.3       5 GLY6        0.0000 
     68 CA        118.8900  159.0600  269.0400 C.3       5 GLY6        0.0000 
     69 CA        117.5500  158.8100  269.6800 C.3       5 GLY6        0.0000 
     70 CA        123.4800  158.6900  267.9000 C.3       5 GLY6        0.0000 
     71 CA        119.4800  157.9300  269.8200 C.3       5 GLY6        0.0000 
     72 CA        118.1500  157.6700  270.4600 C.3       5 GLY6        0.0000 
     73 CA        118.7400  156.5400  271.2500 C.3       5 GLY6        0.0000 
     74 CA        123.9700  162.1600  266.8000 C.3       5 GLY6        0.0000 
     75 CA        119.8300  158.8800  270.9300 C.3       5 GLY6        0.0000 
     76 DU        118.5300  158.1100  267.9300 H         6 CUB7        0.0000 
     77 DU        121.7000  162.0900  265.5500 H         6 CUB7        0.0000 
@<TRIPOS>BOND
@<TRIPOS>SUBSTRUCTURE
     1 SER1        1 GROUP   
     2 ALA2        4 GROUP   
     3 ASP3       37 GROUP   
     4 PHE5       45 GROUP   
     5 GLY6       49 GROUP   
     6 CUB7       76 GROUP   
@<TRIPOS>SET

