#    Name: 6u5u_1_FMN
#    Modification time : Fri May 22 19:25:28 2020

@<TRIPOS>MOLECULE
6u5u_1_FMN
   31    33     1     0     1
SMALL
NO_CHARGES


@<TRIPOS>ATOM
      1 N1        121.0070  161.1320  266.0230 N.2       1 FMN2101     0.0000 
      2 C2        121.6880  162.2510  265.6030 C.2       1 FMN2101     0.0000 
      3 O2        122.7980  162.5050  266.0570 O.2       1 FMN2101     0.0000 
      4 N3        121.1370  163.0960  264.6750 N.am      1 FMN2101     0.0000 
      5 C4        119.8980  162.8170  264.1630 C.2       1 FMN2101     0.0000 
      6 O4        119.3970  163.5640  263.3360 O.2       1 FMN2101     0.0000 
      7 C4A       119.2110  161.6990  264.5760 C.2       1 FMN2101     0.0000 
      8 N5        117.9740  161.4380  264.0540 N.2       1 FMN2101     0.0000 
      9 C5A       117.2850  160.3290  264.4650 C.ar      1 FMN2101     0.0000 
     10 C6        116.0370  160.0640  263.9410 C.ar      1 FMN2101     0.0000 
     11 C7        115.3420  158.9470  264.3570 C.ar      1 FMN2101     0.0000 
     12 C7M       113.9880  158.6540  263.7960 C.3       1 FMN2101     0.0000 
     13 C8        115.8950  158.0960  265.2900 C.ar      1 FMN2101     0.0000 
     14 C8M       115.1420  156.8830  265.7340 C.3       1 FMN2101     0.0000 
     15 C9        117.1440  158.3640  265.8130 C.ar      1 FMN2101     0.0000 
     16 C9A       117.8370  159.4830  265.3970 C.ar      1 FMN2101     0.0000 
     17 N10       119.0730  159.7470  265.9190 N.pl3     1 FMN2101     0.0000 
     18 C10       119.7670  160.8540  265.5070 C.2       1 FMN2101     0.0000 
     19 C1'       119.6520  158.8050  266.9250 C.3       1 FMN2101     0.0000 
     20 C2'       119.4140  159.3490  268.3170 C.3       1 FMN2101     0.0000 
     21 O2'       120.2560  160.4580  268.4680 O.3       1 FMN2101     0.0000 
     22 C3'       119.7720  158.3260  269.3740 C.3       1 FMN2101     0.0000 
     23 O3'       121.1220  157.9750  269.2400 O.3       1 FMN2101     0.0000 
     24 C4'       118.9230  157.0880  269.1960 C.3       1 FMN2101     0.0000 
     25 O4'       117.5740  157.4690  269.1600 O.3       1 FMN2101     0.0000 
     26 C5'       119.1010  156.1340  270.3530 C.3       1 FMN2101     0.0000 
     27 O5'       118.5210  154.9200  269.9660 O.3       1 FMN2101     0.0000 
     28 P         117.1530  154.4510  270.6450 P.3       1 FMN2101     0.0000 
     29 O1P       116.0340  155.1770  269.9510 O.co2     1 FMN2101     0.0000 
     30 O2P       116.9920  152.9610  270.5050 O.co2     1 FMN2101     0.0000 
     31 O3P       117.1640  154.8180  272.1010 O.co2     1 FMN2101     0.0000 
@<TRIPOS>BOND
     1    1    2 1    
     2    1   18 2    
     3    2    3 2    
     4    2    4 am   
     5    4    5 am   
     6    5    6 2    
     7    5    7 1    
     8    7    8 2    
     9    7   18 1    
    10    8    9 1    
    11    9   10 ar   
    12    9   16 ar   
    13   10   11 ar   
    14   11   12 1    
    15   11   13 ar   
    16   13   14 1    
    17   13   15 ar   
    18   15   16 ar   
    19   16   17 1    
    20   17   18 1    
    21   17   19 1    
    22   19   20 1    
    23   20   21 1    
    24   20   22 1    
    25   22   23 1    
    26   22   24 1    
    27   24   25 1    
    28   24   26 1    
    29   26   27 1    
    30   27   28 1    
    31   28   29 ar   
    32   28   30 ar   
    33   28   31 ar   
@<TRIPOS>SUBSTRUCTURE
     1 FMN2101     1 GROUP   
@<TRIPOS>SET
ATOM$ORANGE STATIC     ATOMS   COLORGROUP SYSTEM 
34 2 2 5 5 7 7 9 9 10 10 11 11 12 12 13 13 14 \
14 15 15 16 16 18 18 19 19 20 20 22 22 24 24 26 26 

