#    Name: 6iv7_1_SAH
#    Modification time : Fri May 22 19:30:18 2020

@<TRIPOS>MOLECULE
6iv7_1_SAH
   26    28     1     0     0
SMALL
NO_CHARGES


@<TRIPOS>ATOM
      1 N         -10.0310   22.3350   39.1630 N.4       1 SAH401      0.0000 
      2 CA         -9.6270   23.7370   39.0650 C.3       1 SAH401      0.0000 
      3 CB         -8.1120   23.8710   39.2010 C.3       1 SAH401      0.0000 
      4 CG         -7.6830   24.1130   40.6360 C.3       1 SAH401      0.0000 
      5 SD         -5.9000   24.4170   40.8120 S.3       1 SAH401      0.0000 
      6 C         -10.0660   24.3720   37.7520 C.2       1 SAH401      0.0000 
      7 O          -9.7850   23.8350   36.6730 O.co2     1 SAH401      0.0000 
      8 OXT       -10.7020   25.4310   37.7330 O.co2     1 SAH401      0.0000 
      9 C5'        -5.7700   23.1870   42.1400 C.3       1 SAH401      0.0000 
     10 C4'        -6.9020   23.2470   43.1730 C.3       1 SAH401      0.0000 
     11 O4'        -6.7080   22.1710   44.0640 O.3       1 SAH401      0.0000 
     12 C3'        -6.8290   24.5140   44.0220 C.3       1 SAH401      0.0000 
     13 O3'        -8.1130   25.0910   44.1370 O.3       1 SAH401      0.0000 
     14 C2'        -6.3730   24.0600   45.3910 C.3       1 SAH401      0.0000 
     15 O2'        -6.9790   24.7910   46.4210 O.3       1 SAH401      0.0000 
     16 C1'        -6.8840   22.6470   45.3890 C.3       1 SAH401      0.0000 
     17 N9         -6.1980   21.7400   46.3060 N.pl3     1 SAH401      0.0000 
     18 C8         -4.8440   21.5900   46.5230 C.2       1 SAH401      0.0000 
     19 N7         -4.6860   20.6020   47.4360 N.2       1 SAH401      0.0000 
     20 C5         -5.9230   20.1410   47.7950 C.ar      1 SAH401      0.0000 
     21 C6         -6.3470   19.1600   48.6710 C.ar      1 SAH401      0.0000 
     22 N6         -5.4540   18.4620   49.3620 N.pl3     1 SAH401      0.0000 
     23 N1         -7.7010   18.9040   48.8150 N.ar      1 SAH401      0.0000 
     24 C2         -8.6390   19.6220   48.1000 C.ar      1 SAH401      0.0000 
     25 N3         -8.2200   20.6040   47.2300 N.ar      1 SAH401      0.0000 
     26 C4         -6.8790   20.8450   47.0850 C.ar      1 SAH401      0.0000 
@<TRIPOS>BOND
     1    1    2 1    
     2    2    3 1    
     3    2    6 1    
     4    3    4 1    
     5    4    5 1    
     6    5    9 1    
     7    6    7 ar   
     8    6    8 ar   
     9    9   10 1    
    10   10   11 1    
    11   10   12 1    
    12   11   16 1    
    13   12   13 1    
    14   12   14 1    
    15   14   15 1    
    16   14   16 1    
    17   16   17 1    
    18   17   18 1    
    19   17   26 1    
    20   18   19 2    
    21   19   20 1    
    22   20   21 ar   
    23   20   26 ar   
    24   21   22 1    
    25   21   23 ar   
    26   23   24 ar   
    27   24   25 ar   
    28   25   26 ar   
@<TRIPOS>SUBSTRUCTURE
     1 SAH401      1 GROUP   
@<TRIPOS>SET

