#    Name: 6iv7_2_SAH
#    Modification time : Fri May 22 19:30:24 2020

@<TRIPOS>MOLECULE
6iv7_2_SAH
   26    28     1     0     0
SMALL
NO_CHARGES


@<TRIPOS>ATOM
      1 N          36.4730   42.6480   18.4630 N.4       1 SAH401      0.0000 
      2 CA         36.1010   41.2680   18.7740 C.3       1 SAH401      0.0000 
      3 CB         35.2220   41.2180   20.0290 C.3       1 SAH401      0.0000 
      4 CG         35.7910   40.4210   21.1970 C.3       1 SAH401      0.0000 
      5 SD         34.7100   40.4600   22.6560 S.3       1 SAH401      0.0000 
      6 C          35.3600   40.6560   17.5800 C.2       1 SAH401      0.0000 
      7 O          34.2310   41.0380   17.2890 O.co2     1 SAH401      0.0000 
      8 OXT        35.8600   39.7830   16.8660 O.co2     1 SAH401      0.0000 
      9 C5'        35.7050   41.6910   23.5540 C.3       1 SAH401      0.0000 
     10 C4'        37.2060   41.4080   23.5320 C.3       1 SAH401      0.0000 
     11 O4'        37.8630   42.4170   24.2850 O.3       1 SAH401      0.0000 
     12 C3'        37.5980   40.0810   24.1720 C.3       1 SAH401      0.0000 
     13 O3'        38.4730   39.4290   23.2710 O.3       1 SAH401      0.0000 
     14 C2'        38.3610   40.4450   25.4340 C.3       1 SAH401      0.0000 
     15 O2'        39.4770   39.6270   25.6940 O.3       1 SAH401      0.0000 
     16 C1'        38.8840   41.8190   25.0700 C.3       1 SAH401      0.0000 
     17 N9         39.1550   42.6890   26.2080 N.pl3     1 SAH401      0.0000 
     18 C8         38.4060   42.8610   27.3360 C.2       1 SAH401      0.0000 
     19 N7         39.0150   43.7810   28.1010 N.2       1 SAH401      0.0000 
     20 C5         40.1260   44.2180   27.4660 C.ar      1 SAH401      0.0000 
     21 C6         41.0830   45.1650   27.8040 C.ar      1 SAH401      0.0000 
     22 N6         40.9920   45.8400   28.9550 N.pl3     1 SAH401      0.0000 
     23 N1         42.1290   45.3890   26.9290 N.ar      1 SAH401      0.0000 
     24 C2         42.2190   44.6920   25.7350 C.ar      1 SAH401      0.0000 
     25 N3         41.2510   43.7520   25.4090 N.ar      1 SAH401      0.0000 
     26 C4         40.2240   43.5320   26.2660 C.ar      1 SAH401      0.0000 
@<TRIPOS>BOND
     1    1    2 1    
     2    2    3 1    
     3    2    6 1    
     4    3    4 1    
     5    4    5 1    
     6    5    9 1    
     7    6    7 ar   
     8    6    8 ar   
     9    9   10 1    
    10   10   11 1    
    11   10   12 1    
    12   11   16 1    
    13   12   13 1    
    14   12   14 1    
    15   14   15 1    
    16   14   16 1    
    17   16   17 1    
    18   17   18 1    
    19   17   26 1    
    20   18   19 2    
    21   19   20 1    
    22   20   21 ar   
    23   20   26 ar   
    24   21   22 1    
    25   21   23 ar   
    26   23   24 ar   
    27   24   25 ar   
    28   25   26 ar   
@<TRIPOS>SUBSTRUCTURE
     1 SAH401      1 GROUP   
@<TRIPOS>SET

