#    Name: 6kdl_1_SAH
#    Modification time : Fri May 22 19:26:43 2020

@<TRIPOS>MOLECULE
6kdl_1_SAH
   26    28     1     0     0
SMALL
NO_CHARGES


@<TRIPOS>ATOM
      1 N          78.4860  -17.3270   -4.4290 N.4       1 SAH901      0.0000 
      2 CA         77.7790  -16.8340   -3.2540 C.3       1 SAH901      0.0000 
      3 CB         78.3580  -15.4970   -2.8020 C.3       1 SAH901      0.0000 
      4 CG         79.3520  -14.8580   -3.7670 C.3       1 SAH901      0.0000 
      5 SD         80.9240  -14.3560   -3.0040 S.3       1 SAH901      0.0000 
      6 C          76.2830  -16.7130   -3.5380 C.2       1 SAH901      0.0000 
      7 O          75.5820  -17.7180   -3.6580 O.co2     1 SAH901      0.0000 
      8 OXT        75.7290  -15.6250   -3.6590 O.co2     1 SAH901      0.0000 
      9 C5'        80.2510  -12.7840   -2.4220 C.3       1 SAH901      0.0000 
     10 C4'        80.2120  -12.7140   -0.9060 C.3       1 SAH901      0.0000 
     11 O4'        81.4950  -12.6380   -0.3320 O.3       1 SAH901      0.0000 
     12 C3'        79.6330  -11.4020   -0.4140 C.3       1 SAH901      0.0000 
     13 O3'        78.2290  -11.4400   -0.3290 O.3       1 SAH901      0.0000 
     14 C2'        80.2140  -11.3160    0.9850 C.3       1 SAH901      0.0000 
     15 O2'        79.2280  -11.4870    1.9680 O.3       1 SAH901      0.0000 
     16 C1'        81.2820  -12.4100    1.0440 C.3       1 SAH901      0.0000 
     17 N9         82.4600  -11.9540    1.8150 N.pl3     1 SAH901      0.0000 
     18 C8         83.3170  -10.9390    1.4790 C.2       1 SAH901      0.0000 
     19 N7         84.2580  -10.8430    2.4490 N.2       1 SAH901      0.0000 
     20 C5         84.0070  -11.7630    3.4030 C.ar      1 SAH901      0.0000 
     21 C6         84.6480  -12.0740    4.5910 C.ar      1 SAH901      0.0000 
     22 N6         85.7290  -11.3920    4.9500 N.pl3     1 SAH901      0.0000 
     23 N1         84.1630  -13.0870    5.3900 N.ar      1 SAH901      0.0000 
     24 C2         83.0400  -13.7870    5.0060 C.ar      1 SAH901      0.0000 
     25 N3         82.4090  -13.4670    3.8220 N.ar      1 SAH901      0.0000 
     26 C4         82.8860  -12.4780    3.0180 C.ar      1 SAH901      0.0000 
@<TRIPOS>BOND
     1    1    2 1    
     2    2    3 1    
     3    2    6 1    
     4    3    4 1    
     5    4    5 1    
     6    5    9 1    
     7    6    7 ar   
     8    6    8 ar   
     9    9   10 1    
    10   10   11 1    
    11   10   12 1    
    12   11   16 1    
    13   12   13 1    
    14   12   14 1    
    15   14   15 1    
    16   14   16 1    
    17   16   17 1    
    18   17   18 1    
    19   17   26 1    
    20   18   19 2    
    21   19   20 1    
    22   20   21 ar   
    23   20   26 ar   
    24   21   22 1    
    25   21   23 ar   
    26   23   24 ar   
    27   24   25 ar   
    28   25   26 ar   
@<TRIPOS>SUBSTRUCTURE
     1 SAH901      1 GROUP   
@<TRIPOS>SET

