#    Name: 6kdl_2_SAH
#    Modification time : Fri May 22 19:26:49 2020

@<TRIPOS>MOLECULE
6kdl_2_SAH
   26    28     1     0     0
SMALL
NO_CHARGES


@<TRIPOS>ATOM
      1 N          42.2900    3.8580   -3.1420 N.4       1 SAH901      0.0000 
      2 CA         42.9060    3.4300   -4.3950 C.3       1 SAH901      0.0000 
      3 CB         43.7450    4.5680   -4.9720 C.3       1 SAH901      0.0000 
      4 CG         43.8820    5.7500   -4.0200 C.3       1 SAH901      0.0000 
      5 SD         43.5210    7.3550   -4.7750 S.3       1 SAH901      0.0000 
      6 C          43.7470    2.1700   -4.2000 C.2       1 SAH901      0.0000 
      7 O          44.9780    2.2020   -4.1540 O.co2     1 SAH901      0.0000 
      8 OXT        43.2070    1.0690   -4.0840 O.co2     1 SAH901      0.0000 
      9 C5'        45.2110    7.5270   -5.3930 C.3       1 SAH901      0.0000 
     10 C4'        45.2930    7.5250   -6.9060 C.3       1 SAH901      0.0000 
     11 O4'        44.7220    8.6820   -7.4600 O.3       1 SAH901      0.0000 
     12 C3'        46.7160    7.6640   -7.4100 C.3       1 SAH901      0.0000 
     13 O3'        47.3650    6.4200   -7.5030 O.3       1 SAH901      0.0000 
     14 C2'        46.5060    8.2450   -8.8000 C.3       1 SAH901      0.0000 
     15 O2'        46.8510    7.3600   -9.8380 O.3       1 SAH901      0.0000 
     16 C1'        45.0280    8.6300   -8.8370 C.3       1 SAH901      0.0000 
     17 N9         44.8040    9.8810   -9.5900 N.pl3     1 SAH901      0.0000 
     18 C8         45.2010   11.1530   -9.2630 C.2       1 SAH901      0.0000 
     19 N7         44.7690   11.9850  -10.2440 N.2       1 SAH901      0.0000 
     20 C5         44.1240   11.2650  -11.1890 C.ar      1 SAH901      0.0000 
     21 C6         43.5080   11.6120  -12.3800 C.ar      1 SAH901      0.0000 
     22 N6         43.4890   12.8810  -12.7690 N.pl3     1 SAH901      0.0000 
     23 N1         42.9150   10.6380  -13.1570 N.ar      1 SAH901      0.0000 
     24 C2         42.9340    9.3210  -12.7510 C.ar      1 SAH901      0.0000 
     25 N3         43.5520    8.9880  -11.5660 N.ar      1 SAH901      0.0000 
     26 C4         44.1290    9.9430  -10.7880 C.ar      1 SAH901      0.0000 
@<TRIPOS>BOND
     1    1    2 1    
     2    2    3 1    
     3    2    6 1    
     4    3    4 1    
     5    4    5 1    
     6    5    9 1    
     7    6    7 ar   
     8    6    8 ar   
     9    9   10 1    
    10   10   11 1    
    11   10   12 1    
    12   11   16 1    
    13   12   13 1    
    14   12   14 1    
    15   14   15 1    
    16   14   16 1    
    17   16   17 1    
    18   17   18 1    
    19   17   26 1    
    20   18   19 2    
    21   19   20 1    
    22   20   21 ar   
    23   20   26 ar   
    24   21   22 1    
    25   21   23 ar   
    26   23   24 ar   
    27   24   25 ar   
    28   25   26 ar   
@<TRIPOS>SUBSTRUCTURE
     1 SAH901      1 GROUP   
@<TRIPOS>SET

