#    Name: 5nju_2_SAH
#    Modification time : Fri May 22 19:17:57 2020

@<TRIPOS>MOLECULE
5nju_2_SAH
   26    28     1     0     0
SMALL
NO_CHARGES


@<TRIPOS>ATOM
      1 N          47.7010   11.1880  291.1080 N.4       1 SAH1001     0.0000 
      2 CA         46.3030   11.0880  291.5710 C.3       1 SAH1001     0.0000 
      3 CB         45.6100   10.0530  290.6620 C.3       1 SAH1001     0.0000 
      4 CG         45.8520   10.6260  289.2490 C.3       1 SAH1001     0.0000 
      5 SD         44.3130   10.9110  288.4260 S.3       1 SAH1001     0.0000 
      6 C          46.2270   10.6120  292.9810 C.2       1 SAH1001     0.0000 
      7 O          47.2180   10.0070  293.3930 O.co2     1 SAH1001     0.0000 
      8 OXT        45.1740   10.8140  293.6730 O.co2     1 SAH1001     0.0000 
      9 C5'        44.4230   11.8800  286.8490 C.3       1 SAH1001     0.0000 
     10 C4'        43.6800   13.2250  287.0860 C.3       1 SAH1001     0.0000 
     11 O4'        44.0490   14.1010  286.1820 O.3       1 SAH1001     0.0000 
     12 C3'        42.0570   12.9590  286.8920 C.3       1 SAH1001     0.0000 
     13 O3'        41.4080   13.1780  288.1630 O.3       1 SAH1001     0.0000 
     14 C2'        41.6410   13.7890  285.9670 C.3       1 SAH1001     0.0000 
     15 O2'        40.4020   14.3890  286.1740 O.3       1 SAH1001     0.0000 
     16 C1'        42.7620   14.8860  285.8850 C.3       1 SAH1001     0.0000 
     17 N9         42.9070   15.5030  284.5350 N.pl3     1 SAH1001     0.0000 
     18 C8         42.6540   14.8870  283.3970 C.2       1 SAH1001     0.0000 
     19 N7         42.8580   15.7380  282.3840 N.2       1 SAH1001     0.0000 
     20 C5         43.2310   16.9350  282.9150 C.ar      1 SAH1001     0.0000 
     21 C6         43.5730   18.2280  282.3900 C.ar      1 SAH1001     0.0000 
     22 N6         43.5570   18.4360  280.9350 N.pl3     1 SAH1001     0.0000 
     23 N1         43.9080   19.2350  283.2350 N.ar      1 SAH1001     0.0000 
     24 C2         43.9290   19.0410  284.5510 C.ar      1 SAH1001     0.0000 
     25 N3         43.6190   17.8530  285.0870 N.ar      1 SAH1001     0.0000 
     26 C4         43.2630   16.7930  284.2870 C.ar      1 SAH1001     0.0000 
@<TRIPOS>BOND
     1    1    2 1    
     2    2    3 1    
     3    2    6 1    
     4    3    4 1    
     5    4    5 1    
     6    5    9 1    
     7    6    7 ar   
     8    6    8 ar   
     9    9   10 1    
    10   10   11 1    
    11   10   12 1    
    12   11   16 1    
    13   12   13 1    
    14   12   14 1    
    15   14   15 1    
    16   14   16 1    
    17   16   17 1    
    18   17   18 1    
    19   17   26 1    
    20   18   19 2    
    21   19   20 1    
    22   20   21 ar   
    23   20   26 ar   
    24   21   22 1    
    25   21   23 ar   
    26   23   24 ar   
    27   24   25 ar   
    28   25   26 ar   
@<TRIPOS>SUBSTRUCTURE
     1 SAH1001     1 GROUP   
@<TRIPOS>SET

