#    Name: 6dhn_11_NAI
#    Modification time : Fri May 22 19:35:39 2020

@<TRIPOS>MOLECULE
6dhn_11_NAI
   44    48     1     0     1
SMALL
NO_CHARGES


@<TRIPOS>ATOM
      1 PA        -22.6080   19.4130   24.8100 P.3       1 NAI603      0.0000 
      2 O1A       -22.0230   20.5780   24.0380 O.co2     1 NAI603      0.0000 
      3 O2A       -24.1200   19.4640   24.7210 O.co2     1 NAI603      0.0000 
      4 O5B       -22.0740   17.9520   24.2090 O.3       1 NAI603      0.0000 
      5 C5B       -21.4770   17.8200   22.9350 C.3       1 NAI603      0.0000 
      6 C4B       -22.1880   16.8250   21.9440 C.3       1 NAI603      0.0000 
      7 O4B       -21.9160   15.5590   22.1440 O.3       1 NAI603      0.0000 
      8 C3B       -23.7240   16.8540   22.0090 C.3       1 NAI603      0.0000 
      9 O3B       -24.1950   16.4570   20.8010 O.3       1 NAI603      0.0000 
     10 C2B       -24.0580   15.8230   23.1130 C.3       1 NAI603      0.0000 
     11 O2B       -25.3950   15.1690   22.9160 O.3       1 NAI603      0.0000 
     12 C1B       -23.0600   14.9690   23.1270 C.3       1 NAI603      0.0000 
     13 N9A       -22.4570   15.0170   24.4250 N.pl3     1 NAI603      0.0000 
     14 C8A       -23.0870   15.3400   25.5570 C.2       1 NAI603      0.0000 
     15 N7A       -22.1890   15.3100   26.5420 N.2       1 NAI603      0.0000 
     16 C5A       -21.0070   14.9780   26.0110 C.ar      1 NAI603      0.0000 
     17 C6A       -19.7720   14.8080   26.5840 C.ar      1 NAI603      0.0000 
     18 N6A       -19.3710   14.9390   27.9740 N.pl3     1 NAI603      0.0000 
     19 N1A       -18.7330   14.4670   25.8370 N.ar      1 NAI603      0.0000 
     20 C2A       -18.9010   14.2890   24.5060 C.ar      1 NAI603      0.0000 
     21 N3A       -20.1130   14.4580   23.9370 N.ar      1 NAI603      0.0000 
     22 C4A       -21.1650   14.8020   24.7000 C.ar      1 NAI603      0.0000 
     23 O3        -22.2130   19.5560   26.4100 O.3       1 NAI603      0.0000 
     24 PN        -20.7580   20.0420   27.0270 P.3       1 NAI603      0.0000 
     25 O1N       -20.0870   21.0480   26.1180 O.co2     1 NAI603      0.0000 
     26 O2N       -19.8610   18.8390   27.1980 O.co2     1 NAI603      0.0000 
     27 O5D       -21.0250   20.7030   28.5170 O.3       1 NAI603      0.0000 
     28 C5D       -21.0340   22.0940   28.6650 C.3       1 NAI603      0.0000 
     29 C4D       -19.7220   22.5260   29.3680 C.3       1 NAI603      0.0000 
     30 O4D       -18.9660   21.4940   29.6430 O.3       1 NAI603      0.0000 
     31 C3D       -18.8400   23.3060   28.3870 C.3       1 NAI603      0.0000 
     32 O3D       -19.2950   24.5700   28.2110 O.3       1 NAI603      0.0000 
     33 C2D       -17.4750   23.2510   29.0980 C.3       1 NAI603      0.0000 
     34 O2D       -17.4390   24.1050   30.3100 O.3       1 NAI603      0.0000 
     35 C1D       -17.4290   22.0220   29.5240 C.3       1 NAI603      0.0000 
     36 N1N       -16.6110   21.2950   28.5930 N.pl3     1 NAI603      0.0000 
     37 C2N       -15.1880   21.5470   28.5800 C.2       1 NAI603      0.0000 
     38 C3N       -14.2980   20.5120   27.9090 C.2       1 NAI603      0.0000 
     39 C7N       -13.5670   19.5500   28.8440 C.2       1 NAI603      0.0000 
     40 O7N       -13.1060   18.5530   28.4140 O.2       1 NAI603      0.0000 
     41 N7N       -13.4010   19.8750   30.2520 N.am      1 NAI603      0.0000 
     42 C4N       -14.7710   19.9730   26.5590 C.3       1 NAI603      0.0000 
     43 C5N       -16.2810   20.1580   26.3910 C.2       1 NAI603      0.0000 
     44 C6N       -17.1350   20.3400   27.6430 C.2       1 NAI603      0.0000 
@<TRIPOS>BOND
     1    1    2 ar   
     2    1    3 ar   
     3    1    4 1    
     4    1   23 1    
     5    4    5 1    
     6    5    6 1    
     7    6    7 1    
     8    6    8 1    
     9    7   12 1    
    10    8    9 1    
    11    8   10 1    
    12   10   11 1    
    13   10   12 1    
    14   12   13 1    
    15   13   14 1    
    16   13   22 1    
    17   14   15 2    
    18   15   16 1    
    19   16   17 ar   
    20   16   22 ar   
    21   17   18 1    
    22   17   19 ar   
    23   19   20 ar   
    24   20   21 ar   
    25   21   22 ar   
    26   23   24 1    
    27   24   25 ar   
    28   24   26 ar   
    29   24   27 1    
    30   27   28 1    
    31   28   29 1    
    32   29   30 1    
    33   29   31 1    
    34   30   35 1    
    35   31   32 1    
    36   31   33 1    
    37   33   34 1    
    38   33   35 1    
    39   35   36 1    
    40   36   37 1    
    41   36   44 1    
    42   37   38 2    
    43   38   39 1    
    44   38   42 1    
    45   39   40 2    
    46   39   41 am   
    47   42   43 1    
    48   43   44 2    
@<TRIPOS>SUBSTRUCTURE
     1 NAI603      1 GROUP   
@<TRIPOS>SET
ATOM$ORANGE STATIC     ATOMS   COLORGROUP SYSTEM 
42 5 5 6 6 8 8 10 10 12 12 14 14 16 16 17 17 20 \
20 22 22 28 28 29 29 31 31 33 33 35 35 37 37 38 38 39 \
39 42 42 43 43 44 44 

