#    Name: 6dhn_7_NAI
#    Modification time : Fri May 22 19:35:08 2020

@<TRIPOS>MOLECULE
6dhn_7_NAI
   44    48     1     0     1
SMALL
NO_CHARGES


@<TRIPOS>ATOM
      1 PA         23.0390   57.6270   33.0550 P.3       1 NAI604      0.0000 
      2 O1A        21.6580   57.8660   32.4920 O.co2     1 NAI604      0.0000 
      3 O2A        23.1190   58.2600   34.4240 O.co2     1 NAI604      0.0000 
      4 O5B        24.1890   58.3120   32.0490 O.3       1 NAI604      0.0000 
      5 C5B        23.8050   59.3220   31.1240 C.3       1 NAI604      0.0000 
      6 C4B        24.8580   60.4570   30.8470 C.3       1 NAI604      0.0000 
      7 O4B        24.9910   60.6880   29.5600 O.3       1 NAI604      0.0000 
      8 C3B        24.3820   61.8370   31.3490 C.3       1 NAI604      0.0000 
      9 O3B        25.4570   62.6630   31.4010 O.3       1 NAI604      0.0000 
     10 C2B        23.4740   62.3040   30.1990 C.3       1 NAI604      0.0000 
     11 O2B        23.0180   63.7190   30.4000 O.3       1 NAI604      0.0000 
     12 C1B        24.3670   62.1650   29.2580 C.3       1 NAI604      0.0000 
     13 N9A        23.8810   62.2230   27.8990 N.pl3     1 NAI604      0.0000 
     14 C8A        22.6850   61.8300   27.4560 C.2       1 NAI604      0.0000 
     15 N7A        22.6470   62.0340   26.1330 N.2       1 NAI604      0.0000 
     16 C5A        23.8250   62.5480   25.7560 C.ar      1 NAI604      0.0000 
     17 C6A        24.3190   62.9380   24.5300 C.ar      1 NAI604      0.0000 
     18 N6A        23.7100   62.9220   23.2100 N.pl3     1 NAI604      0.0000 
     19 N1A        25.5470   63.4240   24.4340 N.ar      1 NAI604      0.0000 
     20 C2A        26.3220   63.5400   25.5380 C.ar      1 NAI604      0.0000 
     21 N3A        25.8380   63.1560   26.7410 N.ar      1 NAI604      0.0000 
     22 C4A        24.5890   62.6610   26.8440 C.ar      1 NAI604      0.0000 
     23 O3         23.1770   55.9990   33.3000 O.3       1 NAI604      0.0000 
     24 PN         24.1500   54.9620   32.4760 P.3       1 NAI604      0.0000 
     25 O1N        23.8740   53.5420   32.9180 O.co2     1 NAI604      0.0000 
     26 O2N        25.5720   55.3560   32.7970 O.co2     1 NAI604      0.0000 
     27 O5D        23.8870   55.0840   30.8480 O.3       1 NAI604      0.0000 
     28 C5D        24.9600   55.4750   30.0320 C.3       1 NAI604      0.0000 
     29 C4D        25.1880   54.4600   28.8700 C.3       1 NAI604      0.0000 
     30 O4D        25.9130   53.4490   29.2830 O.3       1 NAI604      0.0000 
     31 C3D        23.8450   53.8730   28.3760 C.3       1 NAI604      0.0000 
     32 O3D        23.7970   53.8230   27.0150 O.3       1 NAI604      0.0000 
     33 C2D        23.7960   52.4630   28.9960 C.3       1 NAI604      0.0000 
     34 O2D        23.0180   51.5460   28.1090 O.3       1 NAI604      0.0000 
     35 C1D        25.0490   52.0990   29.0400 C.3       1 NAI604      0.0000 
     36 N1N        25.3050   51.1000   30.0580 N.pl3     1 NAI604      0.0000 
     37 C2N        24.8580   51.2300   31.4390 C.2       1 NAI604      0.0000 
     38 C3N        25.3100   50.2390   32.5200 C.2       1 NAI604      0.0000 
     39 C7N        24.5830   50.1900   33.8650 C.2       1 NAI604      0.0000 
     40 O7N        24.2700   49.1380   34.3120 O.2       1 NAI604      0.0000 
     41 N7N        24.2880   51.4010   34.6070 N.am      1 NAI604      0.0000 
     42 C4N        26.0360   48.9530   32.1280 C.3       1 NAI604      0.0000 
     43 C5N        26.1750   48.7470   30.6230 C.2       1 NAI604      0.0000 
     44 C6N        26.0290   49.9160   29.6590 C.2       1 NAI604      0.0000 
@<TRIPOS>BOND
     1    1    2 ar   
     2    1    3 ar   
     3    1    4 1    
     4    1   23 1    
     5    4    5 1    
     6    5    6 1    
     7    6    7 1    
     8    6    8 1    
     9    7   12 1    
    10    8    9 1    
    11    8   10 1    
    12   10   11 1    
    13   10   12 1    
    14   12   13 1    
    15   13   14 1    
    16   13   22 1    
    17   14   15 2    
    18   15   16 1    
    19   16   17 ar   
    20   16   22 ar   
    21   17   18 1    
    22   17   19 ar   
    23   19   20 ar   
    24   20   21 ar   
    25   21   22 ar   
    26   23   24 1    
    27   24   25 ar   
    28   24   26 ar   
    29   24   27 1    
    30   27   28 1    
    31   28   29 1    
    32   29   30 1    
    33   29   31 1    
    34   30   35 1    
    35   31   32 1    
    36   31   33 1    
    37   33   34 1    
    38   33   35 1    
    39   35   36 1    
    40   36   37 1    
    41   36   44 1    
    42   37   38 2    
    43   38   39 1    
    44   38   42 1    
    45   39   40 2    
    46   39   41 am   
    47   42   43 1    
    48   43   44 2    
@<TRIPOS>SUBSTRUCTURE
     1 NAI604      1 GROUP   
@<TRIPOS>SET
ATOM$ORANGE STATIC     ATOMS   COLORGROUP SYSTEM 
42 5 5 6 6 8 8 10 10 12 12 14 14 16 16 17 17 20 \
20 22 22 28 28 29 29 31 31 33 33 35 35 37 37 38 38 39 \
39 42 42 43 43 44 44 

