#    Name: 6dhn_6_NAI
#    Modification time : Fri May 22 19:35:02 2020

@<TRIPOS>MOLECULE
6dhn_6_NAI
   44    48     1     0     1
SMALL
NO_CHARGES


@<TRIPOS>ATOM
      1 PA         24.9340   43.2810   56.0180 P.3       1 NAI603      0.0000 
      2 O1A        26.4320   43.0680   55.9470 O.co2     1 NAI603      0.0000 
      3 O2A        24.4510   42.7860   57.3660 O.co2     1 NAI603      0.0000 
      4 O5B        24.6160   44.8960   55.8840 O.3       1 NAI603      0.0000 
      5 C5B        24.7710   45.5200   54.6400 C.3       1 NAI603      0.0000 
      6 C4B        23.7490   46.6850   54.4790 C.3       1 NAI603      0.0000 
      7 O4B        22.5620   46.3590   54.9320 O.3       1 NAI603      0.0000 
      8 C3B        24.2120   47.9220   55.2760 C.3       1 NAI603      0.0000 
      9 O3B        24.6220   48.8900   54.4180 O.3       1 NAI603      0.0000 
     10 C2B        22.9620   48.3830   56.0560 C.3       1 NAI603      0.0000 
     11 O2B        22.2380   49.3890   55.2200 O.3       1 NAI603      0.0000 
     12 C1B        22.1960   47.3300   56.1770 C.3       1 NAI603      0.0000 
     13 N9A        22.3460   46.5340   57.3800 N.pl3     1 NAI603      0.0000 
     14 C8A        23.4420   46.3150   58.1180 C.2       1 NAI603      0.0000 
     15 N7A        23.1240   45.4800   59.1170 N.2       1 NAI603      0.0000 
     16 C5A        21.8220   45.1780   58.9960 C.ar      1 NAI603      0.0000 
     17 C6A        20.9650   44.3810   59.7310 C.ar      1 NAI603      0.0000 
     18 N6A        21.1800   43.5780   60.9200 N.pl3     1 NAI603      0.0000 
     19 N1A        19.6960   44.2580   59.3800 N.ar      1 NAI603      0.0000 
     20 C2A        19.2300   44.9170   58.2980 C.ar      1 NAI603      0.0000 
     21 N3A        20.0660   45.6990   57.5820 N.ar      1 NAI603      0.0000 
     22 C4A        21.3550   45.8220   57.9260 C.ar      1 NAI603      0.0000 
     23 O3         24.2150   42.4660   54.7620 O.3       1 NAI603      0.0000 
     24 PN         22.6110   42.2990   54.3590 P.3       1 NAI603      0.0000 
     25 O1N        22.3830   42.8130   52.9520 O.co2     1 NAI603      0.0000 
     26 O2N        21.7260   43.0880   55.3010 O.co2     1 NAI603      0.0000 
     27 O5D        22.2260   40.6830   54.3990 O.3       1 NAI603      0.0000 
     28 C5D        21.0350   40.2210   53.8040 C.3       1 NAI603      0.0000 
     29 C4D        21.2530   38.9030   52.9990 C.3       1 NAI603      0.0000 
     30 O4D        20.1480   38.1970   52.9390 O.3       1 NAI603      0.0000 
     31 C3D        21.5450   39.2480   51.5280 C.3       1 NAI603      0.0000 
     32 O3D        22.2480   38.2530   50.9310 O.3       1 NAI603      0.0000 
     33 C2D        20.1510   39.3210   50.8950 C.3       1 NAI603      0.0000 
     34 O2D        20.2840   39.2210   49.4100 O.3       1 NAI603      0.0000 
     35 C1D        19.6140   38.2480   51.4000 C.3       1 NAI603      0.0000 
     36 N1N        18.1690   38.2430   51.3340 N.pl3     1 NAI603      0.0000 
     37 C2N        17.4460   38.8200   50.2200 C.2       1 NAI603      0.0000 
     38 C3N        16.1290   39.5140   50.5380 C.2       1 NAI603      0.0000 
     39 C7N        16.1280   41.0440   50.5130 C.2       1 NAI603      0.0000 
     40 O7N        16.6020   41.6140   49.5880 O.2       1 NAI603      0.0000 
     41 N7N        15.5690   41.8030   51.6200 N.am      1 NAI603      0.0000 
     42 C4N        15.1710   38.7940   51.4880 C.3       1 NAI603      0.0000 
     43 C5N        15.8870   37.8690   52.4790 C.2       1 NAI603      0.0000 
     44 C6N        17.3990   37.6390   52.4010 C.2       1 NAI603      0.0000 
@<TRIPOS>BOND
     1    1    2 ar   
     2    1    3 ar   
     3    1    4 1    
     4    1   23 1    
     5    4    5 1    
     6    5    6 1    
     7    6    7 1    
     8    6    8 1    
     9    7   12 1    
    10    8    9 1    
    11    8   10 1    
    12   10   11 1    
    13   10   12 1    
    14   12   13 1    
    15   13   14 1    
    16   13   22 1    
    17   14   15 2    
    18   15   16 1    
    19   16   17 ar   
    20   16   22 ar   
    21   17   18 1    
    22   17   19 ar   
    23   19   20 ar   
    24   20   21 ar   
    25   21   22 ar   
    26   23   24 1    
    27   24   25 ar   
    28   24   26 ar   
    29   24   27 1    
    30   27   28 1    
    31   28   29 1    
    32   29   30 1    
    33   29   31 1    
    34   30   35 1    
    35   31   32 1    
    36   31   33 1    
    37   33   34 1    
    38   33   35 1    
    39   35   36 1    
    40   36   37 1    
    41   36   44 1    
    42   37   38 2    
    43   38   39 1    
    44   38   42 1    
    45   39   40 2    
    46   39   41 am   
    47   42   43 1    
    48   43   44 2    
@<TRIPOS>SUBSTRUCTURE
     1 NAI603      1 GROUP   
@<TRIPOS>SET
ATOM$ORANGE STATIC     ATOMS   COLORGROUP SYSTEM 
42 5 5 6 6 8 8 10 10 12 12 14 14 16 16 17 17 20 \
20 22 22 28 28 29 29 31 31 33 33 35 35 37 37 38 38 39 \
39 42 42 43 43 44 44 

