#    Name: 6dhn_4_NAI
#    Modification time : Fri May 22 19:34:40 2020

@<TRIPOS>MOLECULE
6dhn_4_NAI
   44    48     1     0     1
SMALL
NO_CHARGES


@<TRIPOS>ATOM
      1 PA         22.7070    2.0760   28.3130 P.3       1 NAI603      0.0000 
      2 O1A        21.2050    2.2130   28.4200 O.co2     1 NAI603      0.0000 
      3 O2A        23.1580    2.8610   27.1040 O.co2     1 NAI603      0.0000 
      4 O5B        23.2140    0.4850   28.2410 O.3       1 NAI603      0.0000 
      5 C5B        22.6080   -0.5130   27.4460 C.3       1 NAI603      0.0000 
      6 C4B        23.5720   -1.0520   26.3310 C.3       1 NAI603      0.0000 
      7 O4B        24.1430   -2.1740   26.7010 O.3       1 NAI603      0.0000 
      8 C3B        22.7820   -1.3700   25.0290 C.3       1 NAI603      0.0000 
      9 O3B        23.4180   -1.0020   23.8780 O.3       1 NAI603      0.0000 
     10 C2B        22.6090   -2.8960   25.0060 C.3       1 NAI603      0.0000 
     11 O2B        22.8420   -3.3390   23.5900 O.3       1 NAI603      0.0000 
     12 C1B        23.4520   -3.3990   25.8920 C.3       1 NAI603      0.0000 
     13 N9A        22.7190   -4.2360   26.8200 N.pl3     1 NAI603      0.0000 
     14 C8A        21.6150   -3.8460   27.4560 C.2       1 NAI603      0.0000 
     15 N7A        21.1860   -4.8570   28.2120 N.2       1 NAI603      0.0000 
     16 C5A        22.0190   -5.8900   28.0480 C.ar      1 NAI603      0.0000 
     17 C6A        22.0420   -7.1650   28.5850 C.ar      1 NAI603      0.0000 
     18 N6A        21.1580   -7.8260   29.5290 N.pl3     1 NAI603      0.0000 
     19 N1A        23.0000   -8.0180   28.2620 N.ar      1 NAI603      0.0000 
     20 C2A        23.9590   -7.6350   27.3950 C.ar      1 NAI603      0.0000 
     21 N3A        23.9290   -6.3840   26.8800 N.ar      1 NAI603      0.0000 
     22 C4A        22.9650   -5.5080   27.1930 C.ar      1 NAI603      0.0000 
     23 O3         23.4680    2.7430   29.6170 O.3       1 NAI603      0.0000 
     24 PN         22.8890    2.7800   31.1620 P.3       1 NAI603      0.0000 
     25 O1N        21.3890    2.8970   31.0950 O.co2     1 NAI603      0.0000 
     26 O2N        23.4360    4.0210   31.8220 O.co2     1 NAI603      0.0000 
     27 O5D        23.3630    1.4440   32.0360 O.3       1 NAI603      0.0000 
     28 C5D        22.4820    0.4060   32.3980 C.3       1 NAI603      0.0000 
     29 C4D        22.5740    0.1230   33.9270 C.3       1 NAI603      0.0000 
     30 O4D        23.2740    1.0710   34.4990 O.3       1 NAI603      0.0000 
     31 C3D        21.1690    0.1680   34.5790 C.3       1 NAI603      0.0000 
     32 O3D        21.0180   -0.7910   35.5360 O.3       1 NAI603      0.0000 
     33 C2D        21.1210    1.5920   35.1680 C.3       1 NAI603      0.0000 
     34 O2D        20.1400    1.7520   36.2840 O.3       1 NAI603      0.0000 
     35 C1D        22.3250    1.7370   35.6240 C.3       1 NAI603      0.0000 
     36 N1N        22.6070    3.1260   35.9100 N.pl3     1 NAI603      0.0000 
     37 C2N        22.6470    4.2090   34.9290 C.2       1 NAI603      0.0000 
     38 C3N        23.0680    5.6250   35.3700 C.2       1 NAI603      0.0000 
     39 C7N        23.2930    6.8040   34.4140 C.2       1 NAI603      0.0000 
     40 O7N        23.7510    7.7980   34.8770 O.2       1 NAI603      0.0000 
     41 N7N        22.9880    6.7580   32.9900 N.am      1 NAI603      0.0000 
     42 C4N        23.7470    5.8300   36.7210 C.3       1 NAI603      0.0000 
     43 C5N        23.8270    4.5770   37.5830 C.2       1 NAI603      0.0000 
     44 C6N        22.8520    3.4500   37.2910 C.2       1 NAI603      0.0000 
@<TRIPOS>BOND
     1    1    2 ar   
     2    1    3 ar   
     3    1    4 1    
     4    1   23 1    
     5    4    5 1    
     6    5    6 1    
     7    6    7 1    
     8    6    8 1    
     9    7   12 1    
    10    8    9 1    
    11    8   10 1    
    12   10   11 1    
    13   10   12 1    
    14   12   13 1    
    15   13   14 1    
    16   13   22 1    
    17   14   15 2    
    18   15   16 1    
    19   16   17 ar   
    20   16   22 ar   
    21   17   18 1    
    22   17   19 ar   
    23   19   20 ar   
    24   20   21 ar   
    25   21   22 ar   
    26   23   24 1    
    27   24   25 ar   
    28   24   26 ar   
    29   24   27 1    
    30   27   28 1    
    31   28   29 1    
    32   29   30 1    
    33   29   31 1    
    34   30   35 1    
    35   31   32 1    
    36   31   33 1    
    37   33   34 1    
    38   33   35 1    
    39   35   36 1    
    40   36   37 1    
    41   36   44 1    
    42   37   38 2    
    43   38   39 1    
    44   38   42 1    
    45   39   40 2    
    46   39   41 am   
    47   42   43 1    
    48   43   44 2    
@<TRIPOS>SUBSTRUCTURE
     1 NAI603      1 GROUP   
@<TRIPOS>SET
ATOM$ORANGE STATIC     ATOMS   COLORGROUP SYSTEM 
42 5 5 6 6 8 8 10 10 12 12 14 14 16 16 17 17 20 \
20 22 22 28 28 29 29 31 31 33 33 35 35 37 37 38 38 39 \
39 42 42 43 43 44 44 

