#    Name: 6dhn_5_NAI
#    Modification time : Fri May 22 19:34:52 2020

@<TRIPOS>MOLECULE
6dhn_5_NAI
   44    48     1     0     1
SMALL
NO_CHARGES


@<TRIPOS>ATOM
      1 PA         29.2680   26.6950   32.2240 P.3       1 NAI604      0.0000 
      2 O1A        29.1050   25.9080   33.5080 O.co2     1 NAI604      0.0000 
      3 O2A        30.5550   27.4900   32.2740 O.co2     1 NAI604      0.0000 
      4 O5B        29.3420   25.6810   30.9150 O.3       1 NAI604      0.0000 
      5 C5B        28.2650   25.6600   30.0120 C.3       1 NAI604      0.0000 
      6 C4B        28.7630   25.8580   28.5500 C.3       1 NAI604      0.0000 
      7 O4B        28.0170   26.7570   27.9530 O.3       1 NAI604      0.0000 
      8 C3B        30.2040   26.4150   28.5370 C.3       1 NAI604      0.0000 
      9 O3B        30.8600   26.0180   27.4150 O.3       1 NAI604      0.0000 
     10 C2B        29.9830   27.9390   28.5300 C.3       1 NAI604      0.0000 
     11 O2B        31.1610   28.6570   27.9470 O.3       1 NAI604      0.0000 
     12 C1B        28.9300   28.0870   27.7680 C.3       1 NAI604      0.0000 
     13 N9A        28.1960   29.2850   28.1110 N.pl3     1 NAI604      0.0000 
     14 C8A        28.6130   30.2500   28.9340 C.2       1 NAI604      0.0000 
     15 N7A        27.6740   31.2010   28.9910 N.2       1 NAI604      0.0000 
     16 C5A        26.6600   30.8190   28.2010 C.ar      1 NAI604      0.0000 
     17 C6A        25.4480   31.4090   27.8960 C.ar      1 NAI604      0.0000 
     18 N6A        24.8460   32.6580   28.3300 N.pl3     1 NAI604      0.0000 
     19 N1A        24.6130   30.8080   27.0680 N.ar      1 NAI604      0.0000 
     20 C2A        24.9600   29.6200   26.5250 C.ar      1 NAI604      0.0000 
     21 N3A        26.1380   29.0270   26.8190 N.ar      1 NAI604      0.0000 
     22 C4A        26.9870   29.6380   27.6590 C.ar      1 NAI604      0.0000 
     23 O3         28.0160   27.7580   32.0440 O.3       1 NAI604      0.0000 
     24 PN         26.5340   27.7440   32.7820 P.3       1 NAI604      0.0000 
     25 O1N        25.8600   26.4000   32.6290 O.co2     1 NAI604      0.0000 
     26 O2N        25.7200   28.8050   32.0800 O.co2     1 NAI604      0.0000 
     27 O5D        26.6370   28.0750   34.4040 O.3       1 NAI604      0.0000 
     28 C5D        25.7180   28.9440   35.0210 C.3       1 NAI604      0.0000 
     29 C4D        24.2530   28.4120   35.1550 C.3       1 NAI604      0.0000 
     30 O4D        23.6730   28.2190   34.0060 O.3       1 NAI604      0.0000 
     31 C3D        24.0720   27.0320   35.8370 C.3       1 NAI604      0.0000 
     32 O3D        24.0290   27.1520   37.1900 O.3       1 NAI604      0.0000 
     33 C2D        22.7130   26.5310   35.2740 C.3       1 NAI604      0.0000 
     34 O2D        21.6830   26.3060   36.3420 O.3       1 NAI604      0.0000 
     35 C1D        22.3160   27.4910   34.4820 C.3       1 NAI604      0.0000 
     36 N1N        21.6930   26.9730   33.3090 N.pl3     1 NAI604      0.0000 
     37 C2N        20.2790   26.6590   33.2520 C.2       1 NAI604      0.0000 
     38 C3N        19.5780   26.6830   31.8940 C.2       1 NAI604      0.0000 
     39 C7N        18.6450   27.8480   31.5930 C.2       1 NAI604      0.0000 
     40 O7N        18.4920   28.7050   32.3930 O.2       1 NAI604      0.0000 
     41 N7N        17.9590   27.8930   30.3140 N.am      1 NAI604      0.0000 
     42 C4N        20.3690   26.2100   30.6830 C.3       1 NAI604      0.0000 
     43 C5N        21.8650   26.0980   30.9650 C.2       1 NAI604      0.0000 
     44 C6N        22.5140   26.7790   32.1490 C.2       1 NAI604      0.0000 
@<TRIPOS>BOND
     1    1    2 ar   
     2    1    3 ar   
     3    1    4 1    
     4    1   23 1    
     5    4    5 1    
     6    5    6 1    
     7    6    7 1    
     8    6    8 1    
     9    7   12 1    
    10    8    9 1    
    11    8   10 1    
    12   10   11 1    
    13   10   12 1    
    14   12   13 1    
    15   13   14 1    
    16   13   22 1    
    17   14   15 2    
    18   15   16 1    
    19   16   17 ar   
    20   16   22 ar   
    21   17   18 1    
    22   17   19 ar   
    23   19   20 ar   
    24   20   21 ar   
    25   21   22 ar   
    26   23   24 1    
    27   24   25 ar   
    28   24   26 ar   
    29   24   27 1    
    30   27   28 1    
    31   28   29 1    
    32   29   30 1    
    33   29   31 1    
    34   30   35 1    
    35   31   32 1    
    36   31   33 1    
    37   33   34 1    
    38   33   35 1    
    39   35   36 1    
    40   36   37 1    
    41   36   44 1    
    42   37   38 2    
    43   38   39 1    
    44   38   42 1    
    45   39   40 2    
    46   39   41 am   
    47   42   43 1    
    48   43   44 2    
@<TRIPOS>SUBSTRUCTURE
     1 NAI604      1 GROUP   
@<TRIPOS>SET
ATOM$ORANGE STATIC     ATOMS   COLORGROUP SYSTEM 
42 5 5 6 6 8 8 10 10 12 12 14 14 16 16 17 17 20 \
20 22 22 28 28 29 29 31 31 33 33 35 35 37 37 38 38 39 \
39 42 42 43 43 44 44 

