#    Name: 6dhn_8_NAI
#    Modification time : Fri May 22 19:35:13 2020

@<TRIPOS>MOLECULE
6dhn_8_NAI
   44    48     1     0     1
SMALL
NO_CHARGES


@<TRIPOS>ATOM
      1 PA        -23.4290   55.3040   57.7290 P.3       1 NAI603      0.0000 
      2 O1A       -22.0470   54.9100   58.2020 O.co2     1 NAI603      0.0000 
      3 O2A       -23.2930   56.3850   56.6820 O.co2     1 NAI603      0.0000 
      4 O5B       -24.3390   55.8000   59.0180 O.3       1 NAI603      0.0000 
      5 C5B       -23.7870   56.5490   60.0660 C.3       1 NAI603      0.0000 
      6 C4B       -24.7240   57.7620   60.3270 C.3       1 NAI603      0.0000 
      7 O4B       -25.1180   57.7770   61.5710 O.3       1 NAI603      0.0000 
      8 C3B       -23.9280   59.0670   60.1450 C.3       1 NAI603      0.0000 
      9 O3B       -24.7830   60.0890   59.8830 O.3       1 NAI603      0.0000 
     10 C2B       -23.2640   59.2120   61.5270 C.3       1 NAI603      0.0000 
     11 O2B       -22.7190   60.5940   61.7330 O.3       1 NAI603      0.0000 
     12 C1B       -24.2650   58.9330   62.3220 C.3       1 NAI603      0.0000 
     13 N9A       -23.8520   58.4010   63.5940 N.pl3     1 NAI603      0.0000 
     14 C8A       -22.7860   57.6310   63.8190 C.2       1 NAI603      0.0000 
     15 N7A       -22.7570   57.3380   65.1230 N.2       1 NAI603      0.0000 
     16 C5A       -23.8130   57.9240   65.7010 C.ar      1 NAI603      0.0000 
     17 C6A       -24.2580   57.9500   67.0020 C.ar      1 NAI603      0.0000 
     18 N6A       -23.7200   57.3380   68.2040 N.pl3     1 NAI603      0.0000 
     19 N1A       -25.3560   58.6190   67.3120 N.ar      1 NAI603      0.0000 
     20 C2A       -26.0430   59.2810   66.3510 C.ar      1 NAI603      0.0000 
     21 N3A       -25.6060   59.2550   65.0730 N.ar      1 NAI603      0.0000 
     22 C4A       -24.4920   58.5750   64.7570 C.ar      1 NAI603      0.0000 
     23 O3        -24.2750   54.0360   57.1070 O.3       1 NAI603      0.0000 
     24 PN        -24.1770   52.5720   57.8470 P.3       1 NAI603      0.0000 
     25 O1N       -22.9420   52.6500   58.7040 O.co2     1 NAI603      0.0000 
     26 O2N       -24.0360   51.4790   56.8150 O.co2     1 NAI603      0.0000 
     27 O5D       -25.3490   52.2440   58.9580 O.3       1 NAI603      0.0000 
     28 C5D       -24.8150   52.2280   60.2620 C.3       1 NAI603      0.0000 
     29 C4D       -25.1970   51.0240   61.1880 C.3       1 NAI603      0.0000 
     30 O4D       -25.8490   50.0480   60.6020 O.3       1 NAI603      0.0000 
     31 C3D       -23.9150   50.3660   61.7360 C.3       1 NAI603      0.0000 
     32 O3D       -24.1770   49.7670   62.9260 O.3       1 NAI603      0.0000 
     33 C2D       -23.6510   49.3340   60.6290 C.3       1 NAI603      0.0000 
     34 O2D       -22.5700   48.3720   61.0120 O.3       1 NAI603      0.0000 
     35 C1D       -24.8340   48.7860   60.5440 C.3       1 NAI603      0.0000 
     36 N1N       -25.0580   48.0810   59.3070 N.pl3     1 NAI603      0.0000 
     37 C2N       -24.6940   48.6530   58.0260 C.2       1 NAI603      0.0000 
     38 C3N       -25.2140   48.0470   56.7220 C.2       1 NAI603      0.0000 
     39 C7N       -24.4290   48.2700   55.4330 C.2       1 NAI603      0.0000 
     40 O7N       -24.6980   47.6380   54.4630 O.2       1 NAI603      0.0000 
     41 N7N       -23.3610   49.2560   55.4040 N.am      1 NAI603      0.0000 
     42 C4N       -26.2090   46.8890   56.7430 C.3       1 NAI603      0.0000 
     43 C5N       -26.5570   46.3920   58.1450 C.2       1 NAI603      0.0000 
     44 C6N       -25.6820   46.7790   59.3320 C.2       1 NAI603      0.0000 
@<TRIPOS>BOND
     1    1    2 ar   
     2    1    3 ar   
     3    1    4 1    
     4    1   23 1    
     5    4    5 1    
     6    5    6 1    
     7    6    7 1    
     8    6    8 1    
     9    7   12 1    
    10    8    9 1    
    11    8   10 1    
    12   10   11 1    
    13   10   12 1    
    14   12   13 1    
    15   13   14 1    
    16   13   22 1    
    17   14   15 2    
    18   15   16 1    
    19   16   17 ar   
    20   16   22 ar   
    21   17   18 1    
    22   17   19 ar   
    23   19   20 ar   
    24   20   21 ar   
    25   21   22 ar   
    26   23   24 1    
    27   24   25 ar   
    28   24   26 ar   
    29   24   27 1    
    30   27   28 1    
    31   28   29 1    
    32   29   30 1    
    33   29   31 1    
    34   30   35 1    
    35   31   32 1    
    36   31   33 1    
    37   33   34 1    
    38   33   35 1    
    39   35   36 1    
    40   36   37 1    
    41   36   44 1    
    42   37   38 2    
    43   38   39 1    
    44   38   42 1    
    45   39   40 2    
    46   39   41 am   
    47   42   43 1    
    48   43   44 2    
@<TRIPOS>SUBSTRUCTURE
     1 NAI603      1 GROUP   
@<TRIPOS>SET
ATOM$ORANGE STATIC     ATOMS   COLORGROUP SYSTEM 
42 5 5 6 6 8 8 10 10 12 12 14 14 16 16 17 17 20 \
20 22 22 28 28 29 29 31 31 33 33 35 35 37 37 38 38 39 \
39 42 42 43 43 44 44 

