#    Name: 6dhn_9_NAI
#    Modification time : Fri May 22 19:35:18 2020

@<TRIPOS>MOLECULE
6dhn_9_NAI
   44    48     1     0     1
SMALL
NO_CHARGES


@<TRIPOS>ATOM
      1 PA        -22.9290   -0.1820   50.1930 P.3       1 NAI603      0.0000 
      2 O1A       -21.7700   -0.7720   50.9680 O.co2     1 NAI603      0.0000 
      3 O2A       -23.6950    0.7600   51.0990 O.co2     1 NAI603      0.0000 
      4 O5B       -23.9230   -1.3840   49.6390 O.3       1 NAI603      0.0000 
      5 C5B       -23.4040   -2.6660   49.3970 C.3       1 NAI603      0.0000 
      6 C4B       -24.2180   -3.7240   50.1970 C.3       1 NAI603      0.0000 
      7 O4B       -24.1410   -4.8940   49.6220 O.3       1 NAI603      0.0000 
      8 C3B       -23.6190   -3.9030   51.6090 C.3       1 NAI603      0.0000 
      9 O3B       -24.6100   -4.0850   52.5200 O.3       1 NAI603      0.0000 
     10 C2B       -22.7570   -5.1770   51.5190 C.3       1 NAI603      0.0000 
     11 O2B       -22.7330   -5.8340   52.8670 O.3       1 NAI603      0.0000 
     12 C1B       -23.3830   -5.9100   50.6330 C.3       1 NAI603      0.0000 
     13 N9A       -22.4930   -6.6910   49.8130 N.pl3     1 NAI603      0.0000 
     14 C8A       -21.3120   -6.2950   49.3390 C.2       1 NAI603      0.0000 
     15 N7A       -20.8040   -7.2910   48.6050 N.2       1 NAI603      0.0000 
     16 C5A       -21.6810   -8.3040   48.6210 C.ar      1 NAI603      0.0000 
     17 C6A       -21.6710   -9.5550   48.0420 C.ar      1 NAI603      0.0000 
     18 N6A       -20.6860  -10.2160   47.2020 N.pl3     1 NAI603      0.0000 
     19 N1A       -22.6920  -10.3770   48.2220 N.ar      1 NAI603      0.0000 
     20 C2A       -23.7500   -9.9920   48.9740 C.ar      1 NAI603      0.0000 
     21 N3A       -23.7620   -8.7640   49.5400 N.ar      1 NAI603      0.0000 
     22 C4A       -22.7260   -7.9290   49.3610 C.ar      1 NAI603      0.0000 
     23 O3        -22.3570    0.6540   48.8910 O.3       1 NAI603      0.0000 
     24 PN        -23.2030    0.9690   47.5070 P.3       1 NAI603      0.0000 
     25 O1N       -22.2810    1.6260   46.5130 O.co2     1 NAI603      0.0000 
     26 O2N       -24.3170    1.9230   47.8210 O.co2     1 NAI603      0.0000 
     27 O5D       -23.8630   -0.3880   46.8370 O.3       1 NAI603      0.0000 
     28 C5D       -23.0540   -1.2300   46.0600 C.3       1 NAI603      0.0000 
     29 C4D       -23.2040   -1.0250   44.5200 C.3       1 NAI603      0.0000 
     30 O4D       -23.7680    0.1080   44.1780 O.3       1 NAI603      0.0000 
     31 C3D       -21.7850   -0.9350   43.9290 C.3       1 NAI603      0.0000 
     32 O3D       -21.7600   -1.4800   42.6930 O.3       1 NAI603      0.0000 
     33 C2D       -21.5990    0.5770   43.7970 C.3       1 NAI603      0.0000 
     34 O2D       -20.3780    0.8650   42.9870 O.3       1 NAI603      0.0000 
     35 C1D       -22.7150    0.8190   43.1740 C.3       1 NAI603      0.0000 
     36 N1N       -23.0090    2.2180   42.9520 N.pl3     1 NAI603      0.0000 
     37 C2N       -22.8970    3.2070   44.0090 C.2       1 NAI603      0.0000 
     38 C3N       -23.4020    4.6410   43.8100 C.2       1 NAI603      0.0000 
     39 C7N       -23.6820    5.5160   45.0330 C.2       1 NAI603      0.0000 
     40 O7N       -24.1940    6.5770   44.8900 O.2       1 NAI603      0.0000 
     41 N7N       -23.3290    5.0460   46.3630 N.am      1 NAI603      0.0000 
     42 C4N       -24.0180    5.0750   42.4750 C.3       1 NAI603      0.0000 
     43 C5N       -24.1810    3.9510   41.4510 C.2       1 NAI603      0.0000 
     44 C6N       -23.4230    2.6380   41.6270 C.2       1 NAI603      0.0000 
@<TRIPOS>BOND
     1    1    2 ar   
     2    1    3 ar   
     3    1    4 1    
     4    1   23 1    
     5    4    5 1    
     6    5    6 1    
     7    6    7 1    
     8    6    8 1    
     9    7   12 1    
    10    8    9 1    
    11    8   10 1    
    12   10   11 1    
    13   10   12 1    
    14   12   13 1    
    15   13   14 1    
    16   13   22 1    
    17   14   15 2    
    18   15   16 1    
    19   16   17 ar   
    20   16   22 ar   
    21   17   18 1    
    22   17   19 ar   
    23   19   20 ar   
    24   20   21 ar   
    25   21   22 ar   
    26   23   24 1    
    27   24   25 ar   
    28   24   26 ar   
    29   24   27 1    
    30   27   28 1    
    31   28   29 1    
    32   29   30 1    
    33   29   31 1    
    34   30   35 1    
    35   31   32 1    
    36   31   33 1    
    37   33   34 1    
    38   33   35 1    
    39   35   36 1    
    40   36   37 1    
    41   36   44 1    
    42   37   38 2    
    43   38   39 1    
    44   38   42 1    
    45   39   40 2    
    46   39   41 am   
    47   42   43 1    
    48   43   44 2    
@<TRIPOS>SUBSTRUCTURE
     1 NAI603      1 GROUP   
@<TRIPOS>SET
ATOM$ORANGE STATIC     ATOMS   COLORGROUP SYSTEM 
42 5 5 6 6 8 8 10 10 12 12 14 14 16 16 17 17 20 \
20 22 22 28 28 29 29 31 31 33 33 35 35 37 37 38 38 39 \
39 42 42 43 43 44 44 

