#    Name: 6dhn_10_NAI
#    Modification time : Fri May 22 19:35:29 2020

@<TRIPOS>MOLECULE
6dhn_10_NAI
   44    48     1     0     1
SMALL
NO_CHARGES


@<TRIPOS>ATOM
      1 PA        -24.9940   45.2330   32.8060 P.3       1 NAI601      0.0000 
      2 O1A       -26.5020   45.2060   32.9530 O.co2     1 NAI601      0.0000 
      3 O2A       -24.6460   44.7450   31.4170 O.co2     1 NAI601      0.0000 
      4 O5B       -24.5210   46.8200   32.9470 O.3       1 NAI601      0.0000 
      5 C5B       -25.5260   47.7880   33.1590 C.3       1 NAI601      0.0000 
      6 C4B       -25.7510   48.7810   31.9700 C.3       1 NAI601      0.0000 
      7 O4B       -24.6370   49.3970   31.6550 O.3       1 NAI601      0.0000 
      8 C3B       -26.2610   48.0660   30.6950 C.3       1 NAI601      0.0000 
      9 O3B       -27.5920   48.2550   30.4860 O.3       1 NAI601      0.0000 
     10 C2B       -25.4000   48.6520   29.5430 C.3       1 NAI601      0.0000 
     11 O2B       -26.1110   49.7270   28.7770 O.3       1 NAI601      0.0000 
     12 C1B       -24.3010   49.1080   30.0990 C.3       1 NAI601      0.0000 
     13 N9A       -23.2530   48.1170   29.9970 N.pl3     1 NAI601      0.0000 
     14 C8A       -23.4620   46.8560   29.6090 C.2       1 NAI601      0.0000 
     15 N7A       -22.3200   46.1900   29.6140 N.2       1 NAI601      0.0000 
     16 C5A       -21.3850   47.0450   30.0140 C.ar      1 NAI601      0.0000 
     17 C6A       -20.0550   46.8330   30.1810 C.ar      1 NAI601      0.0000 
     18 N6A       -19.3300   45.6030   29.9490 N.pl3     1 NAI601      0.0000 
     19 N1A       -19.2710   47.8190   30.5820 N.ar      1 NAI601      0.0000 
     20 C2A       -19.8160   49.0360   30.8350 C.ar      1 NAI601      0.0000 
     21 N3A       -21.1470   49.2470   30.6710 N.ar      1 NAI601      0.0000 
     22 C4A       -21.9360   48.2380   30.2550 C.ar      1 NAI601      0.0000 
     23 O3        -24.3000   44.2250   33.9430 O.3       1 NAI601      0.0000 
     24 PN        -22.8360   43.4460   33.8100 P.3       1 NAI601      0.0000 
     25 O1N       -21.7640   44.4790   34.0610 O.co2     1 NAI601      0.0000 
     26 O2N       -22.6960   42.8710   32.4160 O.co2     1 NAI601      0.0000 
     27 O5D       -22.5960   42.2150   34.9060 O.3       1 NAI601      0.0000 
     28 C5D       -21.4480   42.2500   35.7340 C.3       1 NAI601      0.0000 
     29 C4D       -20.6410   40.9090   35.7970 C.3       1 NAI601      0.0000 
     30 O4D       -19.9580   40.7210   34.6990 O.3       1 NAI601      0.0000 
     31 C3D       -19.5930   40.9000   36.9390 C.3       1 NAI601      0.0000 
     32 O3D       -19.6100   39.6930   37.5320 O.3       1 NAI601      0.0000 
     33 C2D       -18.2070   41.0590   36.2920 C.3       1 NAI601      0.0000 
     34 O2D       -17.2780   39.9740   36.7410 O.3       1 NAI601      0.0000 
     35 C1D       -18.3930   40.9980   35.0020 C.3       1 NAI601      0.0000 
     36 N1N       -17.9690   42.2670   34.4890 N.pl3     1 NAI601      0.0000 
     37 C2N       -16.8630   42.3620   33.5840 C.2       1 NAI601      0.0000 
     38 C3N       -15.7320   43.1360   34.2390 C.2       1 NAI601      0.0000 
     39 C7N       -14.7040   42.2900   34.9550 C.2       1 NAI601      0.0000 
     40 O7N       -13.9820   42.8580   35.6850 O.2       1 NAI601      0.0000 
     41 N7N       -14.6300   40.8530   34.7620 N.am      1 NAI601      0.0000 
     42 C4N       -16.0790   44.4230   35.0040 C.3       1 NAI601      0.0000 
     43 C5N       -17.5140   44.4790   35.5370 C.2       1 NAI601      0.0000 
     44 C6N       -18.5310   43.5160   34.9380 C.2       1 NAI601      0.0000 
@<TRIPOS>BOND
     1    1    2 ar   
     2    1    3 ar   
     3    1    4 1    
     4    1   23 1    
     5    4    5 1    
     6    5    6 1    
     7    6    7 1    
     8    6    8 1    
     9    7   12 1    
    10    8    9 1    
    11    8   10 1    
    12   10   11 1    
    13   10   12 1    
    14   12   13 1    
    15   13   14 1    
    16   13   22 1    
    17   14   15 2    
    18   15   16 1    
    19   16   17 ar   
    20   16   22 ar   
    21   17   18 1    
    22   17   19 ar   
    23   19   20 ar   
    24   20   21 ar   
    25   21   22 ar   
    26   23   24 1    
    27   24   25 ar   
    28   24   26 ar   
    29   24   27 1    
    30   27   28 1    
    31   28   29 1    
    32   29   30 1    
    33   29   31 1    
    34   30   35 1    
    35   31   32 1    
    36   31   33 1    
    37   33   34 1    
    38   33   35 1    
    39   35   36 1    
    40   36   37 1    
    41   36   44 1    
    42   37   38 2    
    43   38   39 1    
    44   38   42 1    
    45   39   40 2    
    46   39   41 am   
    47   42   43 1    
    48   43   44 2    
@<TRIPOS>SUBSTRUCTURE
     1 NAI601      1 GROUP   
@<TRIPOS>SET
ATOM$ORANGE STATIC     ATOMS   COLORGROUP SYSTEM 
42 5 5 6 6 8 8 10 10 12 12 14 14 16 16 17 17 20 \
20 22 22 28 28 29 29 31 31 33 33 35 35 37 37 38 38 39 \
39 42 42 43 43 44 44 

