#    Name: 6dhn_13_NAI
#    Modification time : Fri May 22 19:35:45 2020

@<TRIPOS>MOLECULE
6dhn_13_NAI
   44    48     1     0     1
SMALL
NO_CHARGES


@<TRIPOS>ATOM
      1 PA        -13.3870   33.8730    5.9240 P.3       1 NAI605      0.0000 
      2 O1A       -12.0520   34.2340    6.5420 O.co2     1 NAI605      0.0000 
      3 O2A       -13.4490   32.3690    5.7790 O.co2     1 NAI605      0.0000 
      4 O5B       -13.7100   34.6340    4.4620 O.3       1 NAI605      0.0000 
      5 C5B       -12.7850   34.8860    3.4180 C.3       1 NAI605      0.0000 
      6 C4B       -13.2660   34.3770    2.0100 C.3       1 NAI605      0.0000 
      7 O4B       -13.4130   35.3480    1.1330 O.3       1 NAI605      0.0000 
      8 C3B       -12.1700   33.4600    1.4150 C.3       1 NAI605      0.0000 
      9 O3B       -12.6660   32.4170    0.6980 O.3       1 NAI605      0.0000 
     10 C2B       -11.3210   34.3930    0.5270 C.3       1 NAI605      0.0000 
     11 O2B       -10.7430   33.6600   -0.6410 O.3       1 NAI605      0.0000 
     12 C1B       -12.0950   35.3960    0.1800 C.3       1 NAI605      0.0000 
     13 N9A       -11.3700   36.6150    0.4520 N.pl3     1 NAI605      0.0000 
     14 C8A       -10.2900   36.6550    1.2380 C.2       1 NAI605      0.0000 
     15 N7A        -9.8490   37.9100    1.3030 N.2       1 NAI605      0.0000 
     16 C5A       -10.6590   38.6610    0.5550 C.ar      1 NAI605      0.0000 
     17 C6A       -10.6400   40.0090    0.2900 C.ar      1 NAI605      0.0000 
     18 N6A        -9.7300   41.0440    0.7460 N.pl3     1 NAI605      0.0000 
     19 N1A       -11.5570   40.5440   -0.4950 N.ar      1 NAI605      0.0000 
     20 C2A       -12.5150   39.7530   -1.0350 C.ar      1 NAI605      0.0000 
     21 N3A       -12.5390   38.4220   -0.7730 N.ar      1 NAI605      0.0000 
     22 C4A       -11.6040   37.8740    0.0260 C.ar      1 NAI605      0.0000 
     23 O3        -14.5990   34.2880    6.9610 O.3       1 NAI605      0.0000 
     24 PN        -14.3610   35.4030    8.1390 P.3       1 NAI605      0.0000 
     25 O1N       -12.8700   35.5420    8.2720 O.co2     1 NAI605      0.0000 
     26 O2N       -14.9510   34.9640    9.4610 O.co2     1 NAI605      0.0000 
     27 O5D       -14.9700   36.8590    7.6700 O.3       1 NAI605      0.0000 
     28 C5D       -14.0300   37.8630    7.4230 C.3       1 NAI605      0.0000 
     29 C4D       -14.3740   39.0740    8.3180 C.3       1 NAI605      0.0000 
     30 O4D       -15.5490   38.9090    8.8560 O.3       1 NAI605      0.0000 
     31 C3D       -13.4920   39.1530    9.5740 C.3       1 NAI605      0.0000 
     32 O3D       -12.2740   39.6780    9.3330 O.3       1 NAI605      0.0000 
     33 C2D       -14.2760   40.2090   10.3460 C.3       1 NAI605      0.0000 
     34 O2D       -14.0420   41.5180    9.6740 O.3       1 NAI605      0.0000 
     35 C1D       -15.5100   39.8220   10.1990 C.3       1 NAI605      0.0000 
     36 N1N       -15.8860   39.1620   11.4300 N.pl3     1 NAI605      0.0000 
     37 C2N       -15.8320   37.7280   11.6640 C.2       1 NAI605      0.0000 
     38 C3N       -16.7100   37.1050   12.7520 C.2       1 NAI605      0.0000 
     39 C7N       -16.4760   35.6650   13.1840 C.2       1 NAI605      0.0000 
     40 O7N       -15.9200   35.4540   14.2060 O.2       1 NAI605      0.0000 
     41 N7N       -16.9450   34.5650   12.3640 N.am      1 NAI605      0.0000 
     42 C4N       -17.4950   37.9810   13.7270 C.3       1 NAI605      0.0000 
     43 C5N       -17.3730   39.4800   13.4730 C.2       1 NAI605      0.0000 
     44 C6N       -16.3110   40.0060   12.5190 C.2       1 NAI605      0.0000 
@<TRIPOS>BOND
     1    1    2 ar   
     2    1    3 ar   
     3    1    4 1    
     4    1   23 1    
     5    4    5 1    
     6    5    6 1    
     7    6    7 1    
     8    6    8 1    
     9    7   12 1    
    10    8    9 1    
    11    8   10 1    
    12   10   11 1    
    13   10   12 1    
    14   12   13 1    
    15   13   14 1    
    16   13   22 1    
    17   14   15 2    
    18   15   16 1    
    19   16   17 ar   
    20   16   22 ar   
    21   17   18 1    
    22   17   19 ar   
    23   19   20 ar   
    24   20   21 ar   
    25   21   22 ar   
    26   23   24 1    
    27   24   25 ar   
    28   24   26 ar   
    29   24   27 1    
    30   27   28 1    
    31   28   29 1    
    32   29   30 1    
    33   29   31 1    
    34   30   35 1    
    35   31   32 1    
    36   31   33 1    
    37   33   34 1    
    38   33   35 1    
    39   35   36 1    
    40   36   37 1    
    41   36   44 1    
    42   37   38 2    
    43   38   39 1    
    44   38   42 1    
    45   39   40 2    
    46   39   41 am   
    47   42   43 1    
    48   43   44 2    
@<TRIPOS>SUBSTRUCTURE
     1 NAI605      1 GROUP   
@<TRIPOS>SET
ATOM$ORANGE STATIC     ATOMS   COLORGROUP SYSTEM 
42 5 5 6 6 8 8 10 10 12 12 14 14 16 16 17 17 20 \
20 22 22 28 28 29 29 31 31 33 33 35 35 37 37 38 38 39 \
39 42 42 43 43 44 44 

