#    Name: 6dhn_2_NAI
#    Modification time : Fri May 22 19:34:34 2020

@<TRIPOS>MOLECULE
6dhn_2_NAI
   44    48     1     0     1
SMALL
NO_CHARGES


@<TRIPOS>ATOM
      1 PA         12.6290   25.9220   78.7150 P.3       1 NAI603      0.0000 
      2 O1A        11.1460   25.6660   78.5850 O.co2     1 NAI603      0.0000 
      3 O2A        13.3880   24.9130   77.8810 O.co2     1 NAI603      0.0000 
      4 O5B        13.1190   25.8120   80.3000 O.3       1 NAI603      0.0000 
      5 C5B        12.3580   26.3240   81.3700 C.3       1 NAI603      0.0000 
      6 C4B        12.5790   25.5200   82.6920 C.3       1 NAI603      0.0000 
      7 O4B        12.8750   26.3560   83.6590 O.3       1 NAI603      0.0000 
      8 C3B        11.2500   24.8170   83.0800 C.3       1 NAI603      0.0000 
      9 O3B        11.4030   23.5530   83.5710 O.3       1 NAI603      0.0000 
     10 C2B        10.6260   25.6960   84.1730 C.3       1 NAI603      0.0000 
     11 O2B        10.1660   24.7830   85.2580 O.3       1 NAI603      0.0000 
     12 C1B        11.5660   26.5010   84.6120 C.3       1 NAI603      0.0000 
     13 N9A        11.0180   27.8440   84.6950 N.pl3     1 NAI603      0.0000 
     14 C8A        10.2630   28.4420   83.7680 C.2       1 NAI603      0.0000 
     15 N7A         9.9230   29.6570   84.2190 N.2       1 NAI603      0.0000 
     16 C5A        10.4590   29.8140   85.4380 C.ar      1 NAI603      0.0000 
     17 C6A        10.4320   30.8510   86.3510 C.ar      1 NAI603      0.0000 
     18 N6A         9.7990   32.1590   86.2980 N.pl3     1 NAI603      0.0000 
     19 N1A        11.0630   30.7430   87.5110 N.ar      1 NAI603      0.0000 
     20 C2A        11.7370   29.6140   87.8100 C.ar      1 NAI603      0.0000 
     21 N3A        11.7650   28.6080   86.9120 N.ar      1 NAI603      0.0000 
     22 C4A        11.1260   28.6970   85.7320 C.ar      1 NAI603      0.0000 
     23 O3         12.8710   27.4510   78.1660 O.3       1 NAI603      0.0000 
     24 PN         14.2070   28.0600   77.4230 P.3       1 NAI603      0.0000 
     25 O1N        14.4080   27.4390   76.0560 O.co2     1 NAI603      0.0000 
     26 O2N        15.4430   27.9120   78.2820 O.co2     1 NAI603      0.0000 
     27 O5D        13.8890   29.6550   77.2400 O.3       1 NAI603      0.0000 
     28 C5D        13.7470   30.4470   78.3800 C.3       1 NAI603      0.0000 
     29 C4D        14.2190   31.8780   78.0240 C.3       1 NAI603      0.0000 
     30 O4D        15.2710   31.8390   77.2500 O.3       1 NAI603      0.0000 
     31 C3D        13.1490   32.6100   77.2020 C.3       1 NAI603      0.0000 
     32 O3D        13.3110   33.9510   77.3270 O.3       1 NAI603      0.0000 
     33 C2D        13.4860   32.1830   75.7670 C.3       1 NAI603      0.0000 
     34 O2D        12.8070   33.1220   74.8250 O.3       1 NAI603      0.0000 
     35 C1D        14.7940   32.2920   75.7670 C.3       1 NAI603      0.0000 
     36 N1N        15.5250   31.5590   74.7360 N.pl3     1 NAI603      0.0000 
     37 C2N        15.2010   30.2370   74.1830 C.2       1 NAI603      0.0000 
     38 C3N        15.8300   29.7890   72.8470 C.2       1 NAI603      0.0000 
     39 C7N        15.9250   28.3430   72.3360 C.2       1 NAI603      0.0000 
     40 O7N        16.6550   28.1340   71.4220 O.2       1 NAI603      0.0000 
     41 N7N        15.1760   27.2300   72.8970 N.am      1 NAI603      0.0000 
     42 C4N        16.6980   30.7520   72.0500 C.3       1 NAI603      0.0000 
     43 C5N        16.9970   32.0810   72.7300 C.2       1 NAI603      0.0000 
     44 C6N        16.6870   32.2300   74.2090 C.2       1 NAI603      0.0000 
@<TRIPOS>BOND
     1    1    2 ar   
     2    1    3 ar   
     3    1    4 1    
     4    1   23 1    
     5    4    5 1    
     6    5    6 1    
     7    6    7 1    
     8    6    8 1    
     9    7   12 1    
    10    8    9 1    
    11    8   10 1    
    12   10   11 1    
    13   10   12 1    
    14   12   13 1    
    15   13   14 1    
    16   13   22 1    
    17   14   15 2    
    18   15   16 1    
    19   16   17 ar   
    20   16   22 ar   
    21   17   18 1    
    22   17   19 ar   
    23   19   20 ar   
    24   20   21 ar   
    25   21   22 ar   
    26   23   24 1    
    27   24   25 ar   
    28   24   26 ar   
    29   24   27 1    
    30   27   28 1    
    31   28   29 1    
    32   29   30 1    
    33   29   31 1    
    34   30   35 1    
    35   31   32 1    
    36   31   33 1    
    37   33   34 1    
    38   33   35 1    
    39   35   36 1    
    40   36   37 1    
    41   36   44 1    
    42   37   38 2    
    43   38   39 1    
    44   38   42 1    
    45   39   40 2    
    46   39   41 am   
    47   42   43 1    
    48   43   44 2    
@<TRIPOS>SUBSTRUCTURE
     1 NAI603      1 GROUP   
@<TRIPOS>SET
ATOM$ORANGE STATIC     ATOMS   COLORGROUP SYSTEM 
42 5 5 6 6 8 8 10 10 12 12 14 14 16 16 17 17 20 \
20 22 22 28 28 29 29 31 31 33 33 35 35 37 37 38 38 39 \
39 42 42 43 43 44 44 

