#    Name: 5m2z_3_SAH
#    Modification time : Fri May 22 19:15:51 2020

@<TRIPOS>MOLECULE
5m2z_3_SAH
   26    28     1     0     0
SMALL
NO_CHARGES


@<TRIPOS>ATOM
      1 N         125.4190  157.3250   50.5920 N.4       1 SAH1004     0.0000 
      2 CA        126.1720  157.0000   49.3850 C.3       1 SAH1004     0.0000 
      3 CB        127.3800  157.9220   49.2580 C.3       1 SAH1004     0.0000 
      4 CG        127.4240  159.0740   50.2580 C.3       1 SAH1004     0.0000 
      5 SD        128.4410  160.4390   49.6340 S.3       1 SAH1004     0.0000 
      6 C         126.5920  155.5320   49.3640 C.2       1 SAH1004     0.0000 
      7 O         127.7710  155.1990   49.2370 O.co2     1 SAH1004     0.0000 
      8 OXT       125.7480  154.6400   49.4660 O.co2     1 SAH1004     0.0000 
      9 C5'       127.3250  161.6840   50.3320 C.3       1 SAH1004     0.0000 
     10 C4'       126.3370  162.2600   49.3210 C.3       1 SAH1004     0.0000 
     11 O4'       125.4380  163.1310   49.9790 O.3       1 SAH1004     0.0000 
     12 C3'       127.0010  163.0750   48.2170 C.3       1 SAH1004     0.0000 
     13 O3'       126.8840  162.4050   46.9830 O.3       1 SAH1004     0.0000 
     14 C2'       126.2300  164.3790   48.1570 C.3       1 SAH1004     0.0000 
     15 O2'       125.7650  164.6270   46.8510 O.3       1 SAH1004     0.0000 
     16 C1'       125.0570  164.1720   49.1020 C.3       1 SAH1004     0.0000 
     17 N9        124.7400  165.4140   49.8330 N.pl3     1 SAH1004     0.0000 
     18 C8        125.5830  166.4630   50.0920 C.2       1 SAH1004     0.0000 
     19 N7        124.8960  167.4050   50.7810 N.2       1 SAH1004     0.0000 
     20 C5        123.6270  166.9740   50.9650 C.ar      1 SAH1004     0.0000 
     21 C6        122.5190  167.5330   51.5960 C.ar      1 SAH1004     0.0000 
     22 N6        122.5950  168.7290   52.1730 N.pl3     1 SAH1004     0.0000 
     23 N1        121.3280  166.8370   51.6210 N.ar      1 SAH1004     0.0000 
     24 C2        121.2420  165.5960   51.0260 C.ar      1 SAH1004     0.0000 
     25 N3        122.3440  165.0480   50.4020 N.ar      1 SAH1004     0.0000 
     26 C4        123.5170  165.7240   50.3700 C.ar      1 SAH1004     0.0000 
@<TRIPOS>BOND
     1    1    2 1    
     2    2    3 1    
     3    2    6 1    
     4    3    4 1    
     5    4    5 1    
     6    5    9 1    
     7    6    7 ar   
     8    6    8 ar   
     9    9   10 1    
    10   10   11 1    
    11   10   12 1    
    12   11   16 1    
    13   12   13 1    
    14   12   14 1    
    15   14   15 1    
    16   14   16 1    
    17   16   17 1    
    18   17   18 1    
    19   17   26 1    
    20   18   19 2    
    21   19   20 1    
    22   20   21 ar   
    23   20   26 ar   
    24   21   22 1    
    25   21   23 ar   
    26   23   24 ar   
    27   24   25 ar   
    28   25   26 ar   
@<TRIPOS>SUBSTRUCTURE
     1 SAH1004     1 GROUP   
@<TRIPOS>SET

