#    Name: 5m2z_1_SAH
#    Modification time : Fri May 22 19:15:24 2020

@<TRIPOS>MOLECULE
5m2z_1_SAH
   26    28     1     0     0
SMALL
NO_CHARGES


@<TRIPOS>ATOM
      1 N         100.9600  113.4340   54.7660 N.4       1 SAH1003     0.0000 
      2 CA        101.1190  113.3590   56.2130 C.3       1 SAH1003     0.0000 
      3 CB        102.5980  113.3890   56.5910 C.3       1 SAH1003     0.0000 
      4 CG        103.5460  112.8350   55.5310 C.3       1 SAH1003     0.0000 
      5 SD        105.2160  112.5780   56.1840 S.3       1 SAH1003     0.0000 
      6 C         100.3640  114.4750   56.9310 C.2       1 SAH1003     0.0000 
      7 O          99.7780  115.3590   56.3080 O.co2     1 SAH1003     0.0000 
      8 OXT       100.3110  114.5060   58.1610 O.co2     1 SAH1003     0.0000 
      9 C5'       105.3370  110.9650   55.3670 C.3       1 SAH1003     0.0000 
     10 C4'       104.7850  109.8260   56.2180 C.3       1 SAH1003     0.0000 
     11 O4'       104.7250  108.6270   55.4710 O.3       1 SAH1003     0.0000 
     12 C3'       105.6420  109.5260   57.4400 C.3       1 SAH1003     0.0000 
     13 O3'       105.0170  110.0150   58.6040 O.3       1 SAH1003     0.0000 
     14 C2'       105.7300  108.0140   57.5000 C.3       1 SAH1003     0.0000 
     15 O2'       105.2300  107.5420   58.7290 O.3       1 SAH1003     0.0000 
     16 C1'       104.8550  107.5300   56.3540 C.3       1 SAH1003     0.0000 
     17 N9        105.4490  106.3520   55.6890 N.pl3     1 SAH1003     0.0000 
     18 C8        106.7810  106.0550   55.5640 C.2       1 SAH1003     0.0000 
     19 N7        106.9000  104.8830   54.8950 N.2       1 SAH1003     0.0000 
     20 C5        105.6630  104.4250   54.5930 C.ar      1 SAH1003     0.0000 
     21 C6        105.2100  103.2900   53.9270 C.ar      1 SAH1003     0.0000 
     22 N6        106.0680  102.3970   53.4410 N.pl3     1 SAH1003     0.0000 
     23 N1        103.8530  103.0890   53.7680 N.ar      1 SAH1003     0.0000 
     24 C2        102.9570  104.0110   54.2690 C.ar      1 SAH1003     0.0000 
     25 N3        103.4140  105.1340   54.9280 N.ar      1 SAH1003     0.0000 
     26 C4        104.7430  105.3390   55.0890 C.ar      1 SAH1003     0.0000 
@<TRIPOS>BOND
     1    1    2 1    
     2    2    3 1    
     3    2    6 1    
     4    3    4 1    
     5    4    5 1    
     6    5    9 1    
     7    6    7 ar   
     8    6    8 ar   
     9    9   10 1    
    10   10   11 1    
    11   10   12 1    
    12   11   16 1    
    13   12   13 1    
    14   12   14 1    
    15   14   15 1    
    16   14   16 1    
    17   16   17 1    
    18   17   18 1    
    19   17   26 1    
    20   18   19 2    
    21   19   20 1    
    22   20   21 ar   
    23   20   26 ar   
    24   21   22 1    
    25   21   23 ar   
    26   23   24 ar   
    27   24   25 ar   
    28   25   26 ar   
@<TRIPOS>SUBSTRUCTURE
     1 SAH1003     1 GROUP   
@<TRIPOS>SET

