#    Name: 5m2z_2_SAH
#    Modification time : Fri May 22 19:15:37 2020

@<TRIPOS>MOLECULE
5m2z_2_SAH
   26    28     1     0     0
SMALL
NO_CHARGES


@<TRIPOS>ATOM
      1 N         142.0890  163.3600   21.0550 N.4       1 SAH1005     0.0000 
      2 CA        141.8770  163.3010   22.4940 C.3       1 SAH1005     0.0000 
      3 CB        140.4250  162.9530   22.8070 C.3       1 SAH1005     0.0000 
      4 CG        139.4230  163.3080   21.7120 C.3       1 SAH1005     0.0000 
      5 SD        137.7200  163.2780   22.3290 S.3       1 SAH1005     0.0000 
      6 C         142.8250  162.3100   23.1610 C.2       1 SAH1005     0.0000 
      7 O         143.8670  161.9560   22.6100 O.co2     1 SAH1005     0.0000 
      8 OXT       142.5820  161.8560   24.2780 O.co2     1 SAH1005     0.0000 
      9 C5'       137.3810  164.9080   21.6130 C.3       1 SAH1005     0.0000 
     10 C4'       137.5510  166.0490   22.6120 C.3       1 SAH1005     0.0000 
     11 O4'       137.5320  167.2890   21.9320 O.3       1 SAH1005     0.0000 
     12 C3'       136.4400  166.1080   23.6510 C.3       1 SAH1005     0.0000 
     13 O3'       136.8870  165.6060   24.8890 O.3       1 SAH1005     0.0000 
     14 C2'       136.1000  167.5790   23.7810 C.3       1 SAH1005     0.0000 
     15 O2'       136.4060  168.0310   25.0800 O.3       1 SAH1005     0.0000 
     16 C1'       136.9710  168.2910   22.7550 C.3       1 SAH1005     0.0000 
     17 N9        136.1510  169.2230   21.9550 N.pl3     1 SAH1005     0.0000 
     18 C8        134.8330  169.0560   21.6200 C.2       1 SAH1005     0.0000 
     19 N7        134.4330  170.1220   20.8880 N.2       1 SAH1005     0.0000 
     20 C5        135.4740  170.9730   20.7490 C.ar      1 SAH1005     0.0000 
     21 C6        135.6120  172.1990   20.1020 C.ar      1 SAH1005     0.0000 
     22 N6        134.5860  172.7480   19.4570 N.pl3     1 SAH1005     0.0000 
     23 N1        136.8260  172.8530   20.1310 N.ar      1 SAH1005     0.0000 
     24 C2        137.8930  172.2880   20.7980 C.ar      1 SAH1005     0.0000 
     25 N3        137.7500  171.0720   21.4370 N.ar      1 SAH1005     0.0000 
     26 C4        136.5610  170.4210   21.4170 C.ar      1 SAH1005     0.0000 
@<TRIPOS>BOND
     1    1    2 1    
     2    2    3 1    
     3    2    6 1    
     4    3    4 1    
     5    4    5 1    
     6    5    9 1    
     7    6    7 ar   
     8    6    8 ar   
     9    9   10 1    
    10   10   11 1    
    11   10   12 1    
    12   11   16 1    
    13   12   13 1    
    14   12   14 1    
    15   14   15 1    
    16   14   16 1    
    17   16   17 1    
    18   17   18 1    
    19   17   26 1    
    20   18   19 2    
    21   19   20 1    
    22   20   21 ar   
    23   20   26 ar   
    24   21   22 1    
    25   21   23 ar   
    26   23   24 ar   
    27   24   25 ar   
    28   25   26 ar   
@<TRIPOS>SUBSTRUCTURE
     1 SAH1005     1 GROUP   
@<TRIPOS>SET

