#    Name: 6du2_2_GLU_ASP_LEU_PRO_PRO_SEP_CAVITY_N1_12
#    Modification time : Fri May 22 19:23:41 2020

@<TRIPOS>MOLECULE
6du2_2_GLU_ASP_LEU_PRO_PRO_SEP_CAVITY_N1_12
   89     0     7     0     0
SMALL
NO_CHARGES


@<TRIPOS>ATOM
      1 OG        -25.3800  -41.5000    0.2600 O.3       1 SER1        0.0000 
      2 OG        -25.2000  -40.3000   -0.6200 O.3       1 SER1        0.0000 
      3 OG        -25.9500  -39.4600    0.3700 O.3       1 SER1        0.0000 
      4 N         -25.9500  -37.0100   -3.9600 N.am      2 ALA2        0.0000 
      5 N         -24.6600  -36.6900   -3.2600 N.am      2 ALA2        0.0000 
      6 N         -25.4000  -35.8600   -2.2700 N.am      2 ALA2        0.0000 
      7 O         -24.0900  -41.1800    0.9600 O.2       2 ALA2        0.0000 
      8 N         -19.4600  -41.8200   -4.0800 N.am      2 ALA2        0.0000 
      9 N         -20.2000  -40.9800   -3.0800 N.am      2 ALA2        0.0000 
     10 N         -18.3500  -42.7000   -2.5000 N.am      2 ALA2        0.0000 
     11 OD1       -25.9200  -42.6600   -1.4300 O.co2     3 ASP3        0.0000 
     12 OD1       -24.6300  -42.3400   -0.7400 O.co2     3 ASP3        0.0000 
     13 OD1       -22.6000  -42.8600   -1.0300 O.co2     3 ASP3        0.0000 
     14 OD1       -23.3400  -42.0200   -0.0400 O.co2     3 ASP3        0.0000 
     15 NZ        -28.3400  -38.9000   -1.9000 N.4       4 LYS4        0.0000 
     16 NZ        -28.1600  -37.6900   -2.7800 N.4       4 LYS4        0.0000 
     17 NZ        -25.0200  -36.6500   -5.8300 N.4       4 LYS4        0.0000 
     18 NZ        -26.4900  -40.6200   -1.3200 N.4       4 LYS4        0.0000 
     19 NZ        -26.3100  -39.4200   -2.2000 N.4       4 LYS4        0.0000 
     20 NZ        -27.0500  -38.5800   -1.2100 N.4       4 LYS4        0.0000 
     21 NZ        -26.8700  -37.3800   -2.0800 N.4       4 LYS4        0.0000 
     22 CZ        -23.3500  -39.5800   -4.3700 C.ar      5 PHE5        0.0000 
     23 CZ        -23.1700  -38.3700   -5.2500 C.ar      5 PHE5        0.0000 
     24 CZ        -22.9800  -37.1700   -6.1300 C.ar      5 PHE5        0.0000 
     25 CZ        -24.0900  -38.7400   -3.3700 C.ar      5 PHE5        0.0000 
     26 CZ        -23.9100  -37.5300   -4.2500 C.ar      5 PHE5        0.0000 
     27 CZ        -23.7300  -36.3300   -5.1300 C.ar      5 PHE5        0.0000 
     28 CZ        -25.7700  -38.2600   -0.5100 C.ar      5 PHE5        0.0000 
     29 CZ        -25.5900  -37.0600   -1.3900 C.ar      5 PHE5        0.0000 
     30 CZ        -22.2400  -40.4600   -2.7900 C.ar      5 PHE5        0.0000 
     31 CZ        -22.0600  -39.2600   -3.6700 C.ar      5 PHE5        0.0000 
     32 CZ        -22.9800  -39.6200   -1.8000 C.ar      5 PHE5        0.0000 
     33 CZ        -22.8000  -38.4200   -2.6700 C.ar      5 PHE5        0.0000 
     34 CZ        -23.9100  -39.9800    0.0800 C.ar      5 PHE5        0.0000 
     35 CZ        -23.5500  -37.5800   -1.6800 C.ar      5 PHE5        0.0000 
     36 CZ        -23.3700  -36.3800   -2.5600 C.ar      5 PHE5        0.0000 
     37 CZ        -24.4800  -37.9400    0.1900 C.ar      5 PHE5        0.0000 
     38 CZ        -24.3000  -36.7400   -0.6900 C.ar      5 PHE5        0.0000 
     39 CZ        -20.0200  -39.7800   -3.9600 C.ar      5 PHE5        0.0000 
     40 CZ        -20.9500  -40.1400   -2.0900 C.ar      5 PHE5        0.0000 
     41 CZ        -21.7000  -39.3000   -1.1000 C.ar      5 PHE5        0.0000 
     42 CZ        -22.4400  -38.4600   -0.1000 C.ar      5 PHE5        0.0000 
     43 CZ        -22.2600  -37.2600   -0.9800 C.ar      5 PHE5        0.0000 
     44 CZ        -23.0100  -36.4200    0.0100 C.ar      5 PHE5        0.0000 
     45 CZ        -19.6600  -39.8200   -1.3900 C.ar      5 PHE5        0.0000 
     46 CZ        -20.4100  -38.9800   -0.4000 C.ar      5 PHE5        0.0000 
     47 CA        -24.4800  -35.4900   -4.1400 C.3       6 GLY6        0.0000 
     48 CA        -21.4900  -41.3000   -3.7800 C.3       6 GLY6        0.0000 
     49 CA        -21.3100  -40.1000   -4.6600 C.3       6 GLY6        0.0000 
     50 CA        -24.1200  -35.5400   -1.5700 C.3       6 GLY6        0.0000 
     51 CA        -20.5600  -43.3800   -1.3300 C.3       6 GLY6        0.0000 
     52 CA        -21.3100  -42.5400   -0.3300 C.3       6 GLY6        0.0000 
     53 CA        -22.0600  -41.7000    0.6600 C.3       6 GLY6        0.0000 
     54 CA        -22.8000  -40.8700    1.6600 C.3       6 GLY6        0.0000 
     55 CA        -22.6200  -39.6600    0.7800 C.3       6 GLY6        0.0000 
     56 CA        -19.2700  -43.0600   -0.6300 C.3       6 GLY6        0.0000 
     57 CA        -19.0900  -41.8600   -1.5100 C.3       6 GLY6        0.0000 
     58 CA        -18.9100  -40.6600   -2.3900 C.3       6 GLY6        0.0000 
     59 CA        -20.0200  -42.2300    0.3700 C.3       6 GLY6        0.0000 
     60 CA        -19.8400  -41.0200   -0.5100 C.3       6 GLY6        0.0000 
     61 CA        -20.7700  -41.3900    1.3600 C.3       6 GLY6        0.0000 
     62 CA        -21.5100  -40.5500    2.3600 C.3       6 GLY6        0.0000 
     63 CA        -21.3300  -39.3500    1.4800 C.3       6 GLY6        0.0000 
     64 CA        -21.1500  -38.1400    0.6000 C.3       6 GLY6        0.0000 
     65 CA        -17.2400  -43.5900   -0.9200 C.3       6 GLY6        0.0000 
     66 CA        -17.9900  -42.7500    0.0700 C.3       6 GLY6        0.0000 
     67 CA        -17.8100  -41.5400   -0.8100 C.3       6 GLY6        0.0000 
     68 CA        -18.7300  -41.9100    1.0700 C.3       6 GLY6        0.0000 
     69 CA        -18.5500  -40.7100    0.1900 C.3       6 GLY6        0.0000 
     70 CA        -19.4800  -41.0700    2.0600 C.3       6 GLY6        0.0000 
     71 CA        -19.3000  -39.8700    1.1800 C.3       6 GLY6        0.0000 
     72 DU        -27.6000  -39.7300   -2.9000 H         7 CUB7        0.0000 
     73 DU        -27.4200  -38.5300   -3.7800 H         7 CUB7        0.0000 
     74 DU        -25.2000  -37.8500   -4.9500 H         7 CUB7        0.0000 
     75 DU        -26.1300  -38.2100   -3.0800 H         7 CUB7        0.0000 
     76 DU        -23.7100  -41.9800   -2.6100 H         7 CUB7        0.0000 
     77 DU        -23.5300  -40.7800   -3.4900 H         7 CUB7        0.0000 
     78 DU        -24.4500  -41.1400   -1.6200 H         7 CUB7        0.0000 
     79 DU        -24.2700  -39.9400   -2.4900 H         7 CUB7        0.0000 
     80 DU        -25.0200  -39.1000   -1.5000 H         7 CUB7        0.0000 
     81 DU        -24.8400  -37.9000   -2.3800 H         7 CUB7        0.0000 
     82 DU        -21.6700  -42.5000   -2.9000 H         7 CUB7        0.0000 
     83 DU        -22.4200  -41.6600   -1.9100 H         7 CUB7        0.0000 
     84 DU        -23.1600  -40.8200   -0.9200 H         7 CUB7        0.0000 
     85 DU        -23.7300  -38.7800   -0.8000 H         7 CUB7        0.0000 
     86 DU        -20.3800  -42.1800   -2.2100 H         7 CUB7        0.0000 
     87 DU        -21.1300  -41.3400   -1.2100 H         7 CUB7        0.0000 
     88 DU        -21.8800  -40.5000   -0.2200 H         7 CUB7        0.0000 
     89 DU        -20.5900  -40.1800    0.4800 H         7 CUB7        0.0000 
@<TRIPOS>BOND
@<TRIPOS>SUBSTRUCTURE
     1 SER1        1 GROUP   
     2 ALA2        4 GROUP   
     3 ASP3       11 GROUP   
     4 LYS4       15 GROUP   
     5 PHE5       22 GROUP   
     6 GLY6       47 GROUP   
     7 CUB7       72 GROUP   
@<TRIPOS>SET

