#    Name: 6du2_2_GLU_ASP_LEU_PRO_PRO_SEP
#    Modification time : Fri May 22 19:23:39 2020

@<TRIPOS>MOLECULE
6du2_2_GLU_ASP_LEU_PRO_PRO_SEP
   42    43     6     0     0
SMALL
NO_CHARGES


@<TRIPOS>ATOM
      1 N         -22.2360  -43.0620   -4.4340 N.4       1 GLU858      0.0000 
      2 CA        -21.9430  -44.1490   -3.5110 C.3       1 GLU858      0.0000 
      3 C         -21.9290  -43.6390   -2.0790 C.2       1 GLU858      0.0000 
      4 O         -22.2250  -44.3860   -1.1490 O.2       1 GLU858      0.0000 
      5 CB        -20.6040  -44.8030   -3.8510 C.3       1 GLU858      0.0000 
      6 N         -21.5820  -42.3610   -1.9050 N.am      2 ASP859      0.0000 
      7 CA        -21.5610  -41.7800   -0.5660 C.3       2 ASP859      0.0000 
      8 C         -22.9610  -41.4100   -0.0780 C.2       2 ASP859      0.0000 
      9 O         -23.2670  -41.5880    1.1080 O.2       2 ASP859      0.0000 
     10 CB        -20.6460  -40.5530   -0.5390 C.3       2 ASP859      0.0000 
     11 N         -23.8240  -40.9190   -0.9650 N.am      3 LEU860      0.0000 
     12 CA        -25.1650  -40.4870   -0.5690 C.3       3 LEU860      0.0000 
     13 C         -26.1980  -41.5810   -0.8590 C.2       3 LEU860      0.0000 
     14 O         -25.8560  -42.7640   -0.9400 O.2       3 LEU860      0.0000 
     15 CB        -25.5540  -39.1870   -1.2880 C.3       3 LEU860      0.0000 
     16 CG        -24.4580  -38.1540   -1.5890 C.3       3 LEU860      0.0000 
     17 CD1       -25.0510  -36.8850   -2.1690 C.3       3 LEU860      0.0000 
     18 CD2       -23.6140  -37.8220   -0.3700 C.3       3 LEU860      0.0000 
     19 N         -28.3120  -43.8210   -2.9960 N.am      4 PRO862      0.0000 
     20 CA        -28.2710  -44.3270   -4.3750 C.3       4 PRO862      0.0000 
     21 C         -29.6620  -44.5930   -4.9710 C.2       4 PRO862      0.0000 
     22 O         -30.5400  -45.0900   -4.2620 O.2       4 PRO862      0.0000 
     23 CB        -27.4710  -45.6260   -4.2400 C.3       4 PRO862      0.0000 
     24 CG        -27.7460  -46.0880   -2.8430 C.3       4 PRO862      0.0000 
     25 CD        -27.9390  -44.8510   -2.0080 C.3       4 PRO862      0.0000 
     26 N         -29.8600  -44.2550   -6.2600 N.am      5 PRO863      0.0000 
     27 CA        -31.1490  -44.4380   -6.9390 C.3       5 PRO863      0.0000 
     28 C         -31.3220  -45.8370   -7.5290 C.2       5 PRO863      0.0000 
     29 O         -31.3230  -46.8130   -6.7780 O.2       5 PRO863      0.0000 
     30 CB        -31.1010  -43.3870   -8.0460 C.3       5 PRO863      0.0000 
     31 CG        -29.6500  -43.3260   -8.4100 C.3       5 PRO863      0.0000 
     32 CD        -28.8720  -43.5940   -7.1350 C.3       5 PRO863      0.0000 
     33 N         -27.4580  -41.1760   -1.0150 N.am      6 SEP861      0.0000 
     34 CA        -28.5590  -42.1120   -1.2530 C.3       6 SEP861      0.0000 
     35 CB        -29.8980  -41.4820   -0.8310 C.3       6 SEP861      0.0000 
     36 OG        -30.5840  -42.3150    0.0920 O.3       6 SEP861      0.0000 
     37 C         -28.6080  -42.5400   -2.7230 C.2       6 SEP861      0.0000 
     38 O         -28.9040  -41.7270   -3.6000 O.2       6 SEP861      0.0000 
     39 P         -31.8440  -41.6320    0.8460 P.3       6 SEP861      0.0000 
     40 O1P       -32.8410  -40.8440   -0.1550 O.co2     6 SEP861      0.0000 
     41 O2P       -32.6310  -42.8590    1.5210 O.co2     6 SEP861      0.0000 
     42 O3P       -31.3400  -40.6060    1.9810 O.co2     6 SEP861      0.0000 
@<TRIPOS>BOND
     1    1    2 1    
     2    2    3 1    
     3    2    5 1    
     4    3    4 2    
     5    3    6 am   
     6    6    7 1    
     7    7    8 1    
     8    7   10 1    
     9    8    9 2    
    10    8   11 am   
    11   11   12 1    
    12   12   13 1    
    13   12   15 1    
    14   13   14 2    
    15   13   33 du   
    16   15   16 1    
    17   16   17 1    
    18   16   18 1    
    19   19   20 1    
    20   19   25 1    
    21   19   37 am   
    22   20   21 1    
    23   20   23 1    
    24   21   22 2    
    25   21   26 am   
    26   23   24 1    
    27   24   25 1    
    28   26   27 1    
    29   26   32 1    
    30   27   28 1    
    31   27   30 1    
    32   28   29 2    
    33   30   31 1    
    34   31   32 1    
    35   33   34 1    
    36   34   35 1    
    37   34   37 1    
    38   35   36 1    
    39   36   39 1    
    40   37   38 2    
    41   39   40 ar   
    42   39   41 ar   
    43   39   42 ar   
@<TRIPOS>SUBSTRUCTURE
     1 GLU858      1 RESIDUE 
     2 ASP859      6 RESIDUE 
     3 LEU860     11 RESIDUE 
     4 PRO862     19 RESIDUE 
     5 PRO863     26 RESIDUE 
     6 SEP861     33 RESIDUE 
@<TRIPOS>SET

