#    Name: 6nkn_1_CHD
#    Modification time : Fri May 22 19:28:34 2020

@<TRIPOS>MOLECULE
6nkn_1_CHD
   29    32     1     0     0
SMALL
NO_CHARGES


@<TRIPOS>ATOM
      1 C1         25.9700  -15.9330  -22.3490 C.3       1 CHD304      0.0000 
      2 C2         26.5860  -16.3200  -23.6860 C.3       1 CHD304      0.0000 
      3 C3         26.3770  -17.7880  -23.9940 C.3       1 CHD304      0.0000 
      4 O3         27.1060  -18.1520  -25.1880 O.3       1 CHD304      0.0000 
      5 C4         26.8630  -18.6480  -22.8450 C.3       1 CHD304      0.0000 
      6 C5         26.2930  -18.2510  -21.4740 C.3       1 CHD304      0.0000 
      7 C6         26.8590  -19.1740  -20.3820 C.3       1 CHD304      0.0000 
      8 C7         28.3010  -18.8790  -19.9870 C.3       1 CHD304      0.0000 
      9 O7         29.2130  -19.3450  -20.9950 O.3       1 CHD304      0.0000 
     10 C8         28.5300  -17.3850  -19.7300 C.3       1 CHD304      0.0000 
     11 C9         28.0020  -16.4990  -20.8810 C.3       1 CHD304      0.0000 
     12 C10        26.4860  -16.7480  -21.1440 C.3       1 CHD304      0.0000 
     13 C11        28.3580  -15.0170  -20.6700 C.3       1 CHD304      0.0000 
     14 C12        29.8130  -14.7480  -20.2760 C.3       1 CHD304      0.0000 
     15 O12        30.6540  -15.0250  -21.4070 O.3       1 CHD304      0.0000 
     16 C13        30.2420  -15.5970  -19.0720 C.3       1 CHD304      0.0000 
     17 C14        29.9860  -17.0700  -19.4420 C.3       1 CHD304      0.0000 
     18 C15        30.6730  -17.8560  -18.3370 C.3       1 CHD304      0.0000 
     19 C16        31.8500  -16.9630  -17.8940 C.3       1 CHD304      0.0000 
     20 C17        31.7610  -15.6560  -18.7270 C.3       1 CHD304      0.0000 
     21 C18        29.4300  -15.1430  -17.8360 C.3       1 CHD304      0.0000 
     22 C19        25.6320  -16.3480  -19.9230 C.3       1 CHD304      0.0000 
     23 C20        32.4190  -14.4380  -18.0440 C.3       1 CHD304      0.0000 
     24 C21        32.6150  -13.2890  -19.0220 C.3       1 CHD304      0.0000 
     25 C22        33.7530  -14.7890  -17.3610 C.3       1 CHD304      0.0000 
     26 C23        34.9750  -14.5940  -18.2300 C.3       1 CHD304      0.0000 
     27 O25        36.8760  -15.8260  -17.6140 O.co2     1 CHD304      0.0000 
     28 C24        36.2980  -14.7370  -17.5100 C.2       1 CHD304      0.0000 
     29 O26        36.7500  -13.7530  -16.8630 O.co2     1 CHD304      0.0000 
@<TRIPOS>BOND
     1    1    2 1    
     2    1   12 1    
     3    2    3 1    
     4    3    4 1    
     5    3    5 1    
     6    5    6 1    
     7    6    7 1    
     8    6   12 1    
     9    7    8 1    
    10    8    9 1    
    11    8   10 1    
    12   10   11 1    
    13   10   17 1    
    14   11   12 1    
    15   11   13 1    
    16   12   22 1    
    17   13   14 1    
    18   14   15 1    
    19   14   16 1    
    20   16   17 1    
    21   16   20 1    
    22   16   21 1    
    23   17   18 1    
    24   18   19 1    
    25   19   20 1    
    26   20   23 1    
    27   23   24 1    
    28   23   25 1    
    29   25   26 1    
    30   26   28 1    
    31   27   28 ar   
    32   28   29 ar   
@<TRIPOS>SUBSTRUCTURE
     1 CHD304      1 GROUP   
@<TRIPOS>SET

