#    Name: 6nkn_3_CHD
#    Modification time : Fri May 22 19:28:49 2020

@<TRIPOS>MOLECULE
6nkn_3_CHD
   29    32     1     0     0
SMALL
NO_CHARGES


@<TRIPOS>ATOM
      1 C1         23.7640   20.0480   28.8900 C.3       1 CHD104      0.0000 
      2 C2         24.3610   20.4580   30.2280 C.3       1 CHD104      0.0000 
      3 C3         24.0680   21.9070   30.5660 C.3       1 CHD104      0.0000 
      4 O3         24.8760   22.2890   31.7000 O.3       1 CHD104      0.0000 
      5 C4         24.3720   22.8530   29.4080 C.3       1 CHD104      0.0000 
      6 C5         23.8450   22.3870   28.0380 C.3       1 CHD104      0.0000 
      7 C6         24.2960   23.3810   26.9480 C.3       1 CHD104      0.0000 
      8 C7         25.7700   23.2450   26.5380 C.3       1 CHD104      0.0000 
      9 O7         26.6690   23.8220   27.5090 O.3       1 CHD104      0.0000 
     10 C8         26.1740   21.7840   26.3000 C.3       1 CHD104      0.0000 
     11 C9         25.7670   20.8570   27.4680 C.3       1 CHD104      0.0000 
     12 C10        24.2250   20.9110   27.7030 C.3       1 CHD104      0.0000 
     13 C11        26.3240   19.4370   27.2930 C.3       1 CHD104      0.0000 
     14 C12        27.7950   19.3450   26.8650 C.3       1 CHD104      0.0000 
     15 O12        28.6530   19.7250   27.9520 O.3       1 CHD104      0.0000 
     16 C13        28.0890   20.2280   25.6490 C.3       1 CHD104      0.0000 
     17 C14        27.6500   21.6550   26.0210 C.3       1 CHD104      0.0000 
     18 C15        28.2440   22.5290   24.9320 C.3       1 CHD104      0.0000 
     19 C16        29.5530   21.8230   24.5450 C.3       1 CHD104      0.0000 
     20 C17        29.5840   20.4710   25.3030 C.3       1 CHD104      0.0000 
     21 C18        27.3310   19.6580   24.4270 C.3       1 CHD104      0.0000 
     22 C19        23.4790   20.3970   26.4540 C.3       1 CHD104      0.0000 
     23 C20        30.3340   19.3800   24.5260 C.3       1 CHD104      0.0000 
     24 C21        30.5230   18.1150   25.3560 C.3       1 CHD104      0.0000 
     25 C22        31.6680   19.9110   23.9630 C.3       1 CHD104      0.0000 
     26 C23        32.8590   19.7700   24.8760 C.3       1 CHD104      0.0000 
     27 O25        34.7430   20.9150   24.0960 O.co2     1 CHD104      0.0000 
     28 C24        34.1500   19.8330   24.1010 C.2       1 CHD104      0.0000 
     29 O26        34.5380   18.7990   23.5030 O.co2     1 CHD104      0.0000 
@<TRIPOS>BOND
     1    1    2 1    
     2    1   12 1    
     3    2    3 1    
     4    3    4 1    
     5    3    5 1    
     6    5    6 1    
     7    6    7 1    
     8    6   12 1    
     9    7    8 1    
    10    8    9 1    
    11    8   10 1    
    12   10   11 1    
    13   10   17 1    
    14   11   12 1    
    15   11   13 1    
    16   12   22 1    
    17   13   14 1    
    18   14   15 1    
    19   14   16 1    
    20   16   17 1    
    21   16   20 1    
    22   16   21 1    
    23   17   18 1    
    24   18   19 1    
    25   19   20 1    
    26   20   23 1    
    27   23   24 1    
    28   23   25 1    
    29   25   26 1    
    30   26   28 1    
    31   27   28 ar   
    32   28   29 ar   
@<TRIPOS>SUBSTRUCTURE
     1 CHD104      1 GROUP   
@<TRIPOS>SET

