#    Name: 6nkn_1_CHD_CAVITY_N1_ALL
#    Modification time : Fri May 22 19:28:36 2020

@<TRIPOS>MOLECULE
6nkn_1_CHD_CAVITY_N1_ALL
  117     0     7     0     0
SMALL
NO_CHARGES


@<TRIPOS>ATOM
      1 OG         26.6600  -20.4300  -21.3600 O.3       1 SER1        0.0000 
      2 OG         25.4100  -18.2800  -20.6100 O.3       1 SER1        0.0000 
      3 OG         26.2900  -18.3900  -21.8200 O.3       1 SER1        0.0000 
      4 OG         26.0200  -17.1500  -25.8600 O.3       1 SER1        0.0000 
      5 N          26.5300  -19.8100  -23.3800 N.am      2 ALA2        0.0000 
      6 N          27.1800  -18.5000  -23.0200 N.am      2 ALA2        0.0000 
      7 O          27.0400  -17.8800  -25.0500 O.2       2 ALA2        0.0000 
      8 O          31.9100  -20.1300  -19.3900 O.2       2 ALA2        0.0000 
      9 O          32.8000  -20.2400  -20.6000 O.2       2 ALA2        0.0000 
     10 N          31.7800  -19.5100  -21.4100 N.am      2 ALA2        0.0000 
     11 N          29.8700  -18.6700  -21.0300 N.am      2 ALA2        0.0000 
     12 N          28.8500  -17.9300  -21.8500 N.am      2 ALA2        0.0000 
     13 N          27.8300  -17.2000  -22.6600 N.am      2 ALA2        0.0000 
     14 N          26.8100  -16.4700  -23.4800 N.am      2 ALA2        0.0000 
     15 O          27.6900  -16.5800  -24.6900 O.2       2 ALA2        0.0000 
     16 O          31.6800  -18.7200  -17.8300 O.2       2 ALA2        0.0000 
     17 O          32.5600  -18.8300  -19.0300 O.2       2 ALA2        0.0000 
     18 N          32.4300  -18.2100  -21.0600 N.am      2 ALA2        0.0000 
     19 N          30.5200  -17.3600  -20.6700 N.am      2 ALA2        0.0000 
     20 O          27.7300  -16.4100  -19.0800 O.2       2 ALA2        0.0000 
     21 N          29.5000  -16.6300  -21.4900 N.am      2 ALA2        0.0000 
     22 N          26.7100  -15.6700  -19.9000 N.am      2 ALA2        0.0000 
     23 N          28.4800  -15.9000  -22.3100 N.am      2 ALA2        0.0000 
     24 N          24.8000  -14.8300  -19.5100 N.am      2 ALA2        0.0000 
     25 N          25.6800  -14.9400  -20.7100 N.am      2 ALA2        0.0000 
     26 N          27.4600  -15.1600  -23.1200 N.am      2 ALA2        0.0000 
     27 N          31.1700  -16.0600  -20.3100 N.am      2 ALA2        0.0000 
     28 N          32.0600  -16.1700  -21.5200 N.am      2 ALA2        0.0000 
     29 N          32.9400  -16.2800  -22.7200 N.am      2 ALA2        0.0000 
     30 N          30.1500  -15.3300  -21.1300 N.am      2 ALA2        0.0000 
     31 N          28.2400  -14.4800  -20.7400 N.am      2 ALA2        0.0000 
     32 O          30.0500  -14.5300  -17.5400 O.2       2 ALA2        0.0000 
     33 N          30.7000  -13.2300  -17.1900 N.am      2 ALA2        0.0000 
     34 N          32.2300  -12.0400  -18.0300 N.am      2 ALA2        0.0000 
     35 OD1        36.4200  -15.7600  -18.3500 O.co2     3 ASP3        0.0000 
     36 OD1        35.4000  -15.0300  -19.1600 O.co2     3 ASP3        0.0000 
     37 OD1        34.3800  -14.3000  -19.9800 O.co2     3 ASP3        0.0000 
     38 OD1        33.3600  -13.5600  -20.8000 O.co2     3 ASP3        0.0000 
     39 OD1        34.0100  -12.2600  -20.4400 O.co2     3 ASP3        0.0000 
     40 NZ         29.3500  -20.5900  -19.3600 N.4       4 LYS4        0.0000 
     41 NZ         28.3300  -19.8600  -20.1800 N.4       4 LYS4        0.0000 
     42 NZ         27.3100  -19.1300  -21.0000 N.4       4 LYS4        0.0000 
     43 NZ         28.2000  -19.2400  -22.2000 N.4       4 LYS4        0.0000 
     44 CZ         27.4500  -19.7500  -18.9800 C.ar      5 PHE5        0.0000 
     45 CZ         26.4300  -19.0200  -19.7900 C.ar      5 PHE5        0.0000 
     46 CZ         28.1000  -18.4500  -18.6200 C.ar      5 PHE5        0.0000 
     47 CZ         27.0800  -17.7100  -19.4400 C.ar      5 PHE5        0.0000 
     48 CZ         25.1700  -16.8700  -19.0500 C.ar      5 PHE5        0.0000 
     49 CZ         28.7500  -17.1400  -18.2600 C.ar      5 PHE5        0.0000 
     50 CZ         31.4400  -17.3100  -16.2600 C.ar      5 PHE5        0.0000 
     51 CZ         29.5300  -16.4600  -15.8800 C.ar      5 PHE5        0.0000 
     52 CZ         28.5100  -15.7300  -16.7000 C.ar      5 PHE5        0.0000 
     53 CZ         29.4000  -15.8400  -17.9000 C.ar      5 PHE5        0.0000 
     54 CZ         32.9800  -16.1100  -17.1100 C.ar      5 PHE5        0.0000 
     55 CZ         30.1800  -15.1600  -15.5200 C.ar      5 PHE5        0.0000 
     56 CZ         31.0700  -15.2700  -16.7200 C.ar      5 PHE5        0.0000 
     57 CZ         33.6200  -14.8100  -16.7500 C.ar      5 PHE5        0.0000 
     58 CZ         31.7200  -13.9600  -16.3700 C.ar      5 PHE5        0.0000 
     59 CZ         32.6000  -14.0700  -17.5700 C.ar      5 PHE5        0.0000 
     60 CZ         33.1200  -12.1500  -19.2400 C.ar      5 PHE5        0.0000 
     61 CZ         32.9800  -11.5300  -21.2600 C.ar      5 PHE5        0.0000 
     62 CA         25.5100  -19.0700  -24.2000 C.3       6 GLY6        0.0000 
     63 CA         24.4900  -18.3400  -25.0200 C.3       6 GLY6        0.0000 
     64 CA         25.2700  -17.6600  -22.6300 C.3       6 GLY6        0.0000 
     65 CA         24.2500  -16.9300  -23.4500 C.3       6 GLY6        0.0000 
     66 CA         29.1200  -19.1800  -17.8000 C.3       6 GLY6        0.0000 
     67 CA         30.0000  -19.2900  -19.0000 C.3       6 GLY6        0.0000 
     68 CA         30.8900  -19.4000  -20.2100 C.3       6 GLY6        0.0000 
     69 CA         29.7700  -17.8800  -17.4400 C.3       6 GLY6        0.0000 
     70 CA         30.6500  -17.9900  -18.6500 C.3       6 GLY6        0.0000 
     71 CA         33.3100  -18.3200  -22.2600 C.3       6 GLY6        0.0000 
     72 CA         32.3300  -17.4200  -17.4700 C.3       6 GLY6        0.0000 
     73 CA         33.2100  -17.5300  -18.6700 C.3       6 GLY6        0.0000 
     74 CA         34.1000  -17.6400  -19.8800 C.3       6 GLY6        0.0000 
     75 CA         30.4200  -16.5700  -17.0800 C.3       6 GLY6        0.0000 
     76 CA         28.3800  -15.1000  -18.7200 C.3       6 GLY6        0.0000 
     77 CA         33.8600  -16.2200  -18.3200 C.3       6 GLY6        0.0000 
     78 CA         29.1600  -14.4200  -16.3400 C.3       6 GLY6        0.0000 
     79 CA         29.0300  -13.8000  -18.3600 C.3       6 GLY6        0.0000 
     80 CA         29.9100  -13.9100  -19.5700 C.3       6 GLY6        0.0000 
     81 CA         30.8000  -14.0200  -20.7700 C.3       6 GLY6        0.0000 
     82 CA         35.5300  -15.6500  -17.1400 C.3       6 GLY6        0.0000 
     83 CA         31.5800  -13.3400  -18.3900 C.3       6 GLY6        0.0000 
     84 CA         31.4500  -12.7200  -20.4100 C.3       6 GLY6        0.0000 
     85 DU         26.1600  -17.7700  -23.8400 H         7 CUB7        0.0000 
     86 DU         25.1400  -17.0400  -24.6600 H         7 CUB7        0.0000 
     87 DU         28.9800  -18.5600  -19.8200 H         7 CUB7        0.0000 
     88 DU         27.9600  -17.8200  -20.6400 H         7 CUB7        0.0000 
     89 DU         26.0600  -16.9800  -20.2500 H         7 CUB7        0.0000 
     90 DU         26.9400  -17.0900  -21.4600 H         7 CUB7        0.0000 
     91 DU         25.0300  -16.2400  -21.0700 H         7 CUB7        0.0000 
     92 DU         25.9200  -16.3600  -22.2800 H         7 CUB7        0.0000 
     93 DU         24.9000  -15.6200  -23.1000 H         7 CUB7        0.0000 
     94 DU         25.7900  -15.7300  -24.3000 H         7 CUB7        0.0000 
     95 DU         33.4500  -18.9400  -20.2400 H         7 CUB7        0.0000 
     96 DU         34.3300  -19.0500  -21.4400 H         7 CUB7        0.0000 
     97 DU         31.5400  -18.1000  -19.8500 H         7 CUB7        0.0000 
     98 DU         29.6300  -17.2500  -19.4600 H         7 CUB7        0.0000 
     99 DU         28.6100  -16.5200  -20.2800 H         7 CUB7        0.0000 
    100 DU         27.5900  -15.7900  -21.1000 H         7 CUB7        0.0000 
    101 DU         26.5700  -15.0500  -21.9200 H         7 CUB7        0.0000 
    102 DU         36.0000  -18.4800  -20.2700 H         7 CUB7        0.0000 
    103 DU         31.3000  -16.6800  -18.2900 H         7 CUB7        0.0000 
    104 DU         32.1900  -16.7900  -19.4900 H         7 CUB7        0.0000 
    105 DU         33.0800  -16.9000  -20.7000 H         7 CUB7        0.0000 
    106 DU         33.9600  -17.0100  -21.9000 H         7 CUB7        0.0000 
    107 DU         29.2600  -15.2200  -19.9200 H         7 CUB7        0.0000 
    108 DU         34.7500  -16.3300  -19.5200 H         7 CUB7        0.0000 
    109 DU         31.9500  -15.3800  -17.9300 H         7 CUB7        0.0000 
    110 DU         32.8400  -15.4900  -19.1400 H         7 CUB7        0.0000 
    111 DU         33.7300  -15.6000  -20.3400 H         7 CUB7        0.0000 
    112 DU         30.9300  -14.6400  -18.7500 H         7 CUB7        0.0000 
    113 DU         31.8200  -14.7600  -19.9500 H         7 CUB7        0.0000 
    114 DU         32.7100  -14.8700  -21.1600 H         7 CUB7        0.0000 
    115 DU         34.5100  -14.9200  -17.9600 H         7 CUB7        0.0000 
    116 DU         33.4900  -14.1900  -18.7800 H         7 CUB7        0.0000 
    117 DU         32.4700  -13.4500  -19.6000 H         7 CUB7        0.0000 
@<TRIPOS>BOND
@<TRIPOS>SUBSTRUCTURE
     1 SER1        1 GROUP   
     2 ALA2        5 GROUP   
     3 ASP3       35 GROUP   
     4 LYS4       40 GROUP   
     5 PHE5       44 GROUP   
     6 GLY6       62 GROUP   
     7 CUB7       85 GROUP   
@<TRIPOS>SET

