#    Name: 5yw4_1_NAP
#    Modification time : Fri May 22 19:28:11 2020

@<TRIPOS>MOLECULE
5yw4_1_NAP
   73    77     1     0     1
SMALL
NO_CHARGES


@<TRIPOS>ATOM
      1 PA          3.5130  -11.2810   23.2400 P.3       1 NAP401      0.0000 
      2 O1A         3.9110  -12.7370   23.3010 O.co2     1 NAP401      0.0000 
      3 O2A         2.4110  -10.7630   24.1330 O.co2     1 NAP401      0.0000 
      4 O5B         4.8280  -10.3880   23.4930 O.3       1 NAP401      0.0000 
      5 C5B         4.7240   -9.1010   24.0980 C.3       1 NAP401      0.0000 
      6 C4B         6.0060   -8.7840   24.8580 C.3       1 NAP401      0.0000 
      7 O4B         6.2010   -7.3680   24.9210 O.3       1 NAP401      0.0000 
      8 C3B         5.9560   -9.3120   26.2840 C.3       1 NAP401      0.0000 
      9 O3B         6.9940  -10.2720   26.5050 O.3       1 NAP401      0.0000 
     10 C2B         6.1350   -8.1090   27.1890 C.3       1 NAP401      0.0000 
     11 O2B         7.2870   -8.2640   28.0120 O.3       1 NAP401      0.0000 
     12 C1B         6.2850   -6.9040   26.2720 C.3       1 NAP401      0.0000 
     13 N9A         5.2070   -5.9200   26.5420 N.pl3     1 NAP401      0.0000 
     14 C8A         3.9060   -6.0750   26.2250 C.2       1 NAP401      0.0000 
     15 N7A         3.1870   -4.9900   26.6110 N.2       1 NAP401      0.0000 
     16 C5A         4.0350   -4.1180   27.1870 C.ar      1 NAP401      0.0000 
     17 C6A         3.9330   -2.7780   27.8100 C.ar      1 NAP401      0.0000 
     18 N6A         2.7440   -2.1330   27.8970 N.pl3     1 NAP401      0.0000 
     19 N1A         5.0670   -2.2200   28.2890 N.ar      1 NAP401      0.0000 
     20 C2A         6.2600   -2.8420   28.2130 C.ar      1 NAP401      0.0000 
     21 N3A         6.4170   -4.0590   27.6600 N.ar      1 NAP401      0.0000 
     22 C4A         5.3660   -4.7370   27.1390 C.ar      1 NAP401      0.0000 
     23 O3          3.1350  -10.9260   21.7160 O.3       1 NAP401      0.0000 
     24 PN          3.7570  -11.7780   20.4990 P.3       1 NAP401      0.0000 
     25 O1N         2.7310  -12.7980   20.0650 O.co2     1 NAP401      0.0000 
     26 O2N         5.1430  -12.2260   20.8960 O.co2     1 NAP401      0.0000 
     27 O5D         3.8970  -10.6770   19.3330 O.3       1 NAP401      0.0000 
     28 C5D         5.1190   -9.9630   19.1560 C.3       1 NAP401      0.0000 
     29 C4D         4.8360   -8.5980   18.5400 C.3       1 NAP401      0.0000 
     30 O4D         4.5060   -8.7420   17.1550 O.3       1 NAP401      0.0000 
     31 C3D         3.6710   -7.9000   19.2250 C.3       1 NAP401      0.0000 
     32 O3D         4.1100   -6.7060   19.8800 O.3       1 NAP401      0.0000 
     33 C2D         2.6690   -7.5760   18.1350 C.3       1 NAP401      0.0000 
     34 O2D         2.4430   -6.1650   18.0570 O.3       1 NAP401      0.0000 
     35 C1D         3.2680   -8.0980   16.8370 C.3       1 NAP401      0.0000 
     36 N1N         2.3540   -9.0480   16.2000 N.pl3     1 NAP401      0.0000 
     37 C2N         1.8630  -10.0730   16.9110 C.ar      1 NAP401      0.0000 
     38 C3N         0.9940  -10.9870   16.3270 C.ar      1 NAP401      0.0000 
     39 C7N         0.4490  -12.1310   17.1300 C.2       1 NAP401      0.0000 
     40 O7N        -0.7510  -12.3520   17.1180 O.2       1 NAP401      0.0000 
     41 N7N         1.2940  -12.8790   17.8380 N.am      1 NAP401      0.0000 
     42 C4N         0.6350  -10.8330   14.9960 C.ar      1 NAP401      0.0000 
     43 C5N         1.1570   -9.7650   14.2820 C.ar      1 NAP401      0.0000 
     44 C6N         2.0220   -8.8780   14.9130 C.ar      1 NAP401      0.0000 
     45 P2B         7.1590   -8.8990   29.4870 P.3       1 NAP401      0.0000 
     46 O1X         8.3540   -8.3460   30.2260 O.co2     1 NAP401      0.0000 
     47 O2X         5.8280   -8.3910   29.9870 O.co2     1 NAP401      0.0000 
     48 O3X         7.2080  -10.3890   29.2470 O.co2     1 NAP401      0.0000 
     49 H51A        4.5550   -8.3450   23.3290 H         1 NAP401      0.0000 
     50 H52A        3.8750   -9.0840   24.7850 H         1 NAP401      0.0000 
     51 H4B         6.8510   -9.2550   24.3370 H         1 NAP401      0.0000 
     52 H3B         4.9710   -9.7620   26.4690 H         1 NAP401      0.0000 
     53 HO3A        7.8400   -9.9030   26.2180 H         1 NAP401      0.0000 
     54 H2B         5.2350   -7.9840   27.8070 H         1 NAP401      0.0000 
     55 H1B         7.2670   -6.4440   26.4500 H         1 NAP401      0.0000 
     56 H8A         3.4920   -6.9450   25.7310 H         1 NAP401      0.0000 
     57 H61A        1.9080   -2.5660   27.5330 H         1 NAP401      0.0000 
     58 H62A        2.6950   -1.2200   28.3250 H         1 NAP401      0.0000 
     59 H2A         7.1310   -2.3410   28.6160 H         1 NAP401      0.0000 
     60 H51N        5.7850  -10.5310   18.5030 H         1 NAP401      0.0000 
     61 H52N        5.6140   -9.8360   20.1210 H         1 NAP401      0.0000 
     62 H4D         5.7330   -7.9720   18.6460 H         1 NAP401      0.0000 
     63 H3D         3.2110   -8.5870   19.9490 H         1 NAP401      0.0000 
     64 HO3N        5.0120   -6.8300   20.2060 H         1 NAP401      0.0000 
     65 H2D         1.7270   -8.1050   18.3390 H         1 NAP401      0.0000 
     66 HO2N        1.8100   -5.9020   18.7390 H         1 NAP401      0.0000 
     67 H1D         3.4510   -7.2470   16.1660 H         1 NAP401      0.0000 
     68 H2N         2.1460  -10.1890   17.9490 H         1 NAP401      0.0000 
     69 H71N        2.2820  -12.6710   17.8290 H         1 NAP401      0.0000 
     70 H72N        0.9460  -13.6530   18.3850 H         1 NAP401      0.0000 
     71 H4N        -0.0400  -11.5350   14.5230 H         1 NAP401      0.0000 
     72 H5N         0.8920   -9.6220   13.2410 H         1 NAP401      0.0000 
     73 H6N         2.4320   -8.0430   14.3590 H         1 NAP401      0.0000 
@<TRIPOS>BOND
     1    1    2 ar   
     2    1    3 ar   
     3    1    4 1    
     4    1   23 1    
     5    4    5 1    
     6    5    6 1    
     7    5   49 1    
     8    5   50 1    
     9    6    7 1    
    10    6    8 1    
    11    6   51 1    
    12    7   12 1    
    13    8    9 1    
    14    8   10 1    
    15    8   52 1    
    16    9   53 1    
    17   10   11 1    
    18   10   12 1    
    19   10   54 1    
    20   11   45 1    
    21   12   13 1    
    22   12   55 1    
    23   13   14 1    
    24   13   22 1    
    25   14   15 2    
    26   14   56 1    
    27   15   16 1    
    28   16   17 ar   
    29   16   22 ar   
    30   17   18 1    
    31   17   19 ar   
    32   18   57 1    
    33   18   58 1    
    34   19   20 ar   
    35   20   21 ar   
    36   20   59 1    
    37   21   22 ar   
    38   23   24 1    
    39   24   25 ar   
    40   24   26 ar   
    41   24   27 1    
    42   27   28 1    
    43   28   29 1    
    44   28   60 1    
    45   28   61 1    
    46   29   30 1    
    47   29   31 1    
    48   29   62 1    
    49   30   35 1    
    50   31   32 1    
    51   31   33 1    
    52   31   63 1    
    53   32   64 1    
    54   33   34 1    
    55   33   35 1    
    56   33   65 1    
    57   34   66 1    
    58   35   36 1    
    59   35   67 1    
    60   36   37 ar   
    61   36   44 ar   
    62   37   38 ar   
    63   37   68 1    
    64   38   39 1    
    65   38   42 ar   
    66   39   40 2    
    67   39   41 am   
    68   41   69 1    
    69   41   70 1    
    70   42   43 ar   
    71   42   71 1    
    72   43   44 ar   
    73   43   72 1    
    74   44   73 1    
    75   45   46 ar   
    76   45   47 ar   
    77   45   48 ar   
@<TRIPOS>SUBSTRUCTURE
     1 NAP401      1 GROUP   
@<TRIPOS>SET
ATOM$ORANGE STATIC     ATOMS   COLORGROUP SYSTEM 
42 5 5 6 6 8 8 10 10 12 12 14 14 16 16 17 17 20 \
20 22 22 28 28 29 29 31 31 33 33 35 35 37 37 38 38 39 \
39 42 42 43 43 44 44 

