#    Name: 6opv_1_017
#    Modification time : Fri May 22 19:26:08 2020

@<TRIPOS>MOLECULE
6opv_1_017
   75    78     1     0     0
SMALL
NO_CHARGES


@<TRIPOS>ATOM
      1 N1         39.4480   37.2410   -1.8990 N.pl3     1 017101      0.0000 
      2 C2         39.3170   37.5520   -0.4490 C.ar      1 017101      0.0000 
      3 C3         38.0750   37.5630    0.1520 C.ar      1 017101      0.0000 
      4 C4         37.9640   37.8560    1.4930 C.ar      1 017101      0.0000 
      5 C5         39.1180   38.1350    2.2230 C.ar      1 017101      0.0000 
      6 C6         40.3420   38.1370    1.6270 C.ar      1 017101      0.0000 
      7 C7         40.4560   37.8440    0.2740 C.ar      1 017101      0.0000 
      8 S8         39.0550   38.5380    4.0120 S.o2      1 017101      0.0000 
      9 O9         40.2790   39.2700    4.2650 O.2       1 017101      0.0000 
     10 O10        38.0410   39.5880    4.2620 O.2       1 017101      0.0000 
     11 N11        38.9940   37.0710    4.9750 N.pl3     1 017101      0.0000 
     12 C12        38.0940   36.8050    6.1490 C.3       1 017101      0.0000 
     13 C13        36.5940   36.5020    5.9730 C.3       1 017101      0.0000 
     14 C14        35.7660   37.7450    5.5210 C.3       1 017101      0.0000 
     15 C15        36.2660   35.2270    5.1570 C.3       1 017101      0.0000 
     16 C16        40.3910   36.4210    5.1370 C.3       1 017101      0.0000 
     17 C17        40.9840   36.5570    6.5920 C.3       1 017101      0.0000 
     18 O18        42.1510   35.8210    6.6460 O.3       1 017101      0.0000 
     19 C19        41.2450   38.0430    6.9510 C.3       1 017101      0.0000 
     20 N20        41.3920   38.2380    8.3960 N.am      1 017101      0.0000 
     21 C21        40.3420   38.7530    9.3030 C.2       1 017101      0.0000 
     22 O22        39.3870   39.3800    8.9390 O.2       1 017101      0.0000 
     23 O23        40.5540   38.4640   10.6490 O.3       1 017101      0.0000 
     24 C24        40.0600   39.4080   11.5830 C.3       1 017101      0.0000 
     25 C25        39.3320   38.5180   12.7730 C.3       1 017101      0.0000 
     26 O26        40.3760   37.9270   13.3600 O.3       1 017101      0.0000 
     27 C27        41.4840   39.0560   13.3600 C.3       1 017101      0.0000 
     28 O28        42.6070   38.6110   13.0210 O.3       1 017101      0.0000 
     29 C29        43.2750   39.7330   12.0550 C.3       1 017101      0.0000 
     30 C30        42.2870   40.3480   11.4360 C.3       1 017101      0.0000 
     31 C31        41.0360   40.0670   12.2260 C.3       1 017101      0.0000 
     32 C32        42.5290   38.5490    6.2820 C.3       1 017101      0.0000 
     33 C33        42.2050   40.9760    6.8140 C.ar      1 017101      0.0000 
     34 C34        42.6100   42.1760    7.4280 C.ar      1 017101      0.0000 
     35 C35        43.8110   42.2230    8.1620 C.ar      1 017101      0.0000 
     36 C36        44.5920   41.0930    8.2840 C.ar      1 017101      0.0000 
     37 C37        44.1860   39.8970    7.6770 C.ar      1 017101      0.0000 
     38 C38        42.9800   39.8490    6.9360 C.ar      1 017101      0.0000 
     39 H11        38.7500   37.2590   -2.4140 H         1 017101      0.0000 
     40 H12        40.2250   37.0420   -2.2270 H         1 017101      0.0000 
     41 H3         37.3150   37.3680   -0.3460 H         1 017101      0.0000 
     42 H4         37.1330   37.8580    1.9080 H         1 017101      0.0000 
     43 H6         41.1010   38.3280    2.1270 H         1 017101      0.0000 
     44 H7         41.2890   37.8360   -0.1370 H         1 017101      0.0000 
     45 H121       38.1640   37.5430    6.7250 H         1 017101      0.0000 
     46 H122       38.4370   36.0590    6.6000 H         1 017101      0.0000 
     47 H13        36.2870   36.3130    6.8400 H         1 017101      0.0000 
     48 H141       36.3100   38.5090    5.5520 H         1 017101      0.0000 
     49 H142       35.4590   37.6140    4.6440 H         1 017101      0.0000 
     50 H143       35.0320   37.8590    6.0960 H         1 017101      0.0000 
     51 H151       36.2090   34.4910    5.7370 H         1 017101      0.0000 
     52 H152       35.4450   35.3390    4.7150 H         1 017101      0.0000 
     53 H153       36.9440   35.0760    4.5250 H         1 017101      0.0000 
     54 H161       40.3260   35.5100    4.9240 H         1 017101      0.0000 
     55 H162       40.9830   36.8290    4.5330 H         1 017101      0.0000 
     56 H17        40.3920   36.1940    7.2210 H         1 017101      0.0000 
     57 H18        42.1540   35.3550    7.3360 H         1 017101      0.0000 
     58 H19        40.5220   38.5600    6.6490 H         1 017101      0.0000 
     59 H20        42.1560   38.0280    8.7500 H         1 017101      0.0000 
     60 H24        39.4500   40.0050   11.1910 H         1 017101      0.0000 
     61 H251       38.7530   37.8790   12.4020 H         1 017101      0.0000 
     62 H252       38.8820   39.0760   13.3790 H         1 017101      0.0000 
     63 H27        41.5290   39.4850   14.1940 H         1 017101      0.0000 
     64 H291       43.8370   39.3190   11.4270 H         1 017101      0.0000 
     65 H292       43.7600   40.3500   12.5700 H         1 017101      0.0000 
     66 H301       42.4500   41.2730   11.4280 H         1 017101      0.0000 
     67 H302       42.2140   40.0310   10.5580 H         1 017101      0.0000 
     68 H31        40.7020   40.8590   12.6050 H         1 017101      0.0000 
     69 H321       43.2070   37.9070    6.3760 H         1 017101      0.0000 
     70 H322       42.3680   38.6990    5.3690 H         1 017101      0.0000 
     71 H33        41.4110   40.9440    6.3330 H         1 017101      0.0000 
     72 H34        42.0870   42.9390    7.3430 H         1 017101      0.0000 
     73 H35        44.0800   43.0170    8.5620 H         1 017101      0.0000 
     74 H36        45.3840   41.1250    8.7690 H         1 017101      0.0000 
     75 H37        44.7090   39.1340    7.7600 H         1 017101      0.0000 
@<TRIPOS>BOND
     1    1    2 1    
     2    2    3 ar   
     3    1   39 1    
     4    1   40 1    
     5    2    7 ar   
     6    3    4 ar   
     7    4    5 ar   
     8    3   41 1    
     9    5    6 ar   
    10    4   42 1    
    11    5    8 1    
    12    6    7 ar   
    13    8    9 2    
    14    6   43 1    
    15    7   44 1    
    16    8   10 2    
    17    8   11 1    
    18   11   12 1    
    19   11   16 1    
    20   12   13 1    
    21   13   14 1    
    22   12   45 1    
    23   12   46 1    
    24   13   15 1    
    25   16   17 1    
    26   13   47 1    
    27   14   48 1    
    28   14   49 1    
    29   14   50 1    
    30   15   51 1    
    31   15   52 1    
    32   15   53 1    
    33   17   18 1    
    34   16   54 1    
    35   16   55 1    
    36   17   19 1    
    37   19   20 1    
    38   17   56 1    
    39   18   57 1    
    40   19   32 1    
    41   20   21 am   
    42   19   58 1    
    43   21   22 2    
    44   20   59 1    
    45   21   23 1    
    46   23   24 1    
    47   24   25 1    
    48   24   31 1    
    49   25   26 1    
    50   24   60 1    
    51   31   68 1    
    52   26   27 1    
    53   25   61 1    
    54   25   62 1    
    55   27   28 1    
    56   27   31 1    
    57   28   29 1    
    58   27   63 1    
    59   29   30 1    
    60   30   66 1    
    61   30   31 1    
    62   29   64 1    
    63   29   65 1    
    64   30   67 1    
    65   32   38 1    
    66   33   34 ar   
    67   32   69 1    
    68   32   70 1    
    69   33   38 ar   
    70   34   35 ar   
    71   33   71 1    
    72   35   36 ar   
    73   34   72 1    
    74   36   37 ar   
    75   35   73 1    
    76   37   38 ar   
    77   36   74 1    
    78   37   75 1    
@<TRIPOS>SUBSTRUCTURE
     1 017101      1 GROUP   
@<TRIPOS>SET

