#    Name: 6h9x_1_SSA_CAVITY_N1_12
#    Modification time : Fri May 22 19:28:25 2020

@<TRIPOS>MOLECULE
6h9x_1_SSA_CAVITY_N1_12
  121     0     7     0     0
SMALL
NO_CHARGES


@<TRIPOS>ATOM
      1 OG         -7.8700  -35.6700   -6.1400 O.3       1 SER1        0.0000 
      2 OG         -7.5300  -34.5000   -7.0100 O.3       1 SER1        0.0000 
      3 OG        -10.7800  -31.1200   -6.3100 O.3       1 SER1        0.0000 
      4 OG         -7.0300  -35.1000   -5.0400 O.3       1 SER1        0.0000 
      5 OG         -9.9500  -30.5400   -5.2100 O.3       1 SER1        0.0000 
      6 OG         -7.9100  -30.7000   -4.6300 O.3       1 SER1        0.0000 
      7 OG         -7.4100  -31.3000   -2.6600 O.3       1 SER1        0.0000 
      8 OG         -6.5700  -30.7200   -1.5500 O.3       1 SER1        0.0000 
      9 OG         -7.4300  -28.8100   -1.9000 O.3       1 SER1        0.0000 
     10 O         -14.3100  -36.3700   -7.0000 O.2       2 ALA2        0.0000 
     11 O         -13.9700  -35.2000   -7.8800 O.2       2 ALA2        0.0000 
     12 O         -15.5100  -35.6400   -6.4800 O.2       2 ALA2        0.0000 
     13 O         -13.1300  -34.6200   -6.7700 O.2       2 ALA2        0.0000 
     14 O         -14.3300  -33.8900   -6.2500 O.2       2 ALA2        0.0000 
     15 N          -9.2200  -33.1700   -8.4600 N.am      2 ALA2        0.0000 
     16 N          -9.2500  -30.6800   -7.7100 N.am      2 ALA2        0.0000 
     17 N         -10.3400  -31.4600    3.7400 N.am      2 ALA2        0.0000 
     18 O         -11.5400  -30.7300    4.2600 O.2       2 ALA2        0.0000 
     19 OD1       -10.7400  -36.0900   -7.8200 O.co2     3 ASP3        0.0000 
     20 OD1       -10.4000  -34.9200   -8.6900 O.co2     3 ASP3        0.0000 
     21 OD1        -8.3700  -35.0800   -8.1200 O.co2     3 ASP3        0.0000 
     22 OD1        -9.5600  -34.3400   -7.5900 O.co2     3 ASP3        0.0000 
     23 OD1       -12.9700  -36.3900   -3.9300 O.co2     3 ASP3        0.0000 
     24 OD1       -12.6300  -35.2200   -4.8000 O.co2     3 ASP3        0.0000 
     25 OD1       -12.3000  -34.0500   -5.6700 O.co2     3 ASP3        0.0000 
     26 OD1       -13.8300  -34.4800   -4.2700 O.co2     3 ASP3        0.0000 
     27 OD1       -13.4900  -33.3100   -5.1500 O.co2     3 ASP3        0.0000 
     28 OD1        -8.2000  -36.8500   -5.2700 O.co2     3 ASP3        0.0000 
     29 OD1        -9.7400  -37.2900   -3.8800 O.co2     3 ASP3        0.0000 
     30 OD1        -9.4000  -36.1100   -4.7500 O.co2     3 ASP3        0.0000 
     31 OD1       -10.6000  -35.3800   -4.2200 O.co2     3 ASP3        0.0000 
     32 OD1       -10.2600  -34.2000   -5.0900 O.co2     3 ASP3        0.0000 
     33 OD1       -11.4600  -33.4700   -4.5700 O.co2     3 ASP3        0.0000 
     34 OD1       -11.1200  -32.3000   -5.4400 O.co2     3 ASP3        0.0000 
     35 OD1        -8.5600  -35.5300   -3.6400 O.co2     3 ASP3        0.0000 
     36 OD1        -8.2300  -34.3600   -4.5200 O.co2     3 ASP3        0.0000 
     37 OD1        -9.7600  -34.8000   -3.1200 O.co2     3 ASP3        0.0000 
     38 OD1        -9.4200  -33.6300   -3.9900 O.co2     3 ASP3        0.0000 
     39 OD1        -9.0900  -32.4500   -4.8600 O.co2     3 ASP3        0.0000 
     40 OD1       -10.2800  -31.7200   -4.3400 O.co2     3 ASP3        0.0000 
     41 OD1        -8.5900  -33.0500   -2.8900 O.co2     3 ASP3        0.0000 
     42 OD1        -9.7800  -32.3100   -2.3600 O.co2     3 ASP3        0.0000 
     43 OD1        -9.4500  -31.1400   -3.2300 O.co2     3 ASP3        0.0000 
     44 OD1        -8.9500  -31.7400   -1.2600 O.co2     3 ASP3        0.0000 
     45 OD1       -10.8200  -33.3500    1.0100 O.co2     3 ASP3        0.0000 
     46 OD1       -10.4800  -32.1800    0.1400 O.co2     3 ASP3        0.0000 
     47 OD1        -9.1200  -34.6800    2.4600 O.co2     3 ASP3        0.0000 
     48 OD1        -8.7900  -33.5100    1.5800 O.co2     3 ASP3        0.0000 
     49 OD1        -8.4500  -32.3300    0.7100 O.co2     3 ASP3        0.0000 
     50 OD1       -10.3200  -33.9500    2.9800 O.co2     3 ASP3        0.0000 
     51 OD1        -9.9800  -32.7700    2.1100 O.co2     3 ASP3        0.0000 
     52 OD1        -7.2700  -30.5800    0.9400 O.co2     3 ASP3        0.0000 
     53 OD1        -8.8100  -31.0200    2.3400 O.co2     3 ASP3        0.0000 
     54 OD1       -10.0100  -30.2900    2.8700 O.co2     3 ASP3        0.0000 
     55 NZ        -14.9900  -38.7200   -5.2600 N.4       4 LYS4        0.0000 
     56 NZ        -15.8500  -36.8100   -5.6100 N.4       4 LYS4        0.0000 
     57 NZ        -11.6000  -34.1800   -8.1700 N.4       4 LYS4        0.0000 
     58 NZ        -14.1500  -38.1400   -4.1600 N.4       4 LYS4        0.0000 
     59 NZ        -12.8000  -33.4500   -7.6400 N.4       4 LYS4        0.0000 
     60 NZ        -15.3500  -37.4100   -3.6300 N.4       4 LYS4        0.0000 
     61 NZ        -15.0100  -36.2400   -4.5100 N.4       4 LYS4        0.0000 
     62 NZ        -10.7600  -33.6100   -7.0700 N.4       4 LYS4        0.0000 
     63 NZ        -11.9600  -32.8700   -6.5400 N.4       4 LYS4        0.0000 
     64 NZ         -9.5900  -31.8600   -6.8400 N.4       4 LYS4        0.0000 
     65 NZ         -8.4100  -30.1100   -6.6000 N.4       4 LYS4        0.0000 
     66 NZ         -9.6100  -29.3700   -6.0800 N.4       4 LYS4        0.0000 
     67 NZ         -7.3900  -33.7800   -3.4100 N.4       4 LYS4        0.0000 
     68 NZ         -7.7500  -32.4700   -1.7900 N.4       4 LYS4        0.0000 
     69 NZ        -10.3000  -36.4300    2.2200 N.4       4 LYS4        0.0000 
     70 NZ        -12.0200  -32.6100    1.5300 N.4       4 LYS4        0.0000 
     71 NZ         -6.9100  -31.9000   -0.6800 N.4       4 LYS4        0.0000 
     72 NZ        -11.5200  -33.2100    3.5100 N.4       4 LYS4        0.0000 
     73 NZ         -6.0700  -31.3200    0.4200 N.4       4 LYS4        0.0000 
     74 CZ        -10.1400  -31.0000   -0.7400 C.ar      5 PHE5        0.0000 
     75 CZ         -9.8100  -29.8300   -1.6100 C.ar      5 PHE5        0.0000 
     76 CZ         -9.6500  -31.6000    1.2400 C.ar      5 PHE5        0.0000 
     77 CZ         -9.3100  -30.4300    0.3700 C.ar      5 PHE5        0.0000 
     78 CZ        -11.1800  -32.0400    2.6300 C.ar      5 PHE5        0.0000 
     79 CZ        -10.8400  -30.8600    1.7600 C.ar      5 PHE5        0.0000 
     80 CZ        -12.3800  -31.3000    3.1600 C.ar      5 PHE5        0.0000 
     81 CZ         -9.6700  -29.1100    1.9900 C.ar      5 PHE5        0.0000 
     82 CZ        -11.2000  -29.5500    3.3900 C.ar      5 PHE5        0.0000 
     83 CA        -16.6800  -37.3900   -6.7100 C.3       6 GLY6        0.0000 
     84 CA        -16.3400  -36.2200   -7.5800 C.3       6 GLY6        0.0000 
     85 CA        -17.0400  -36.0800   -5.0800 C.3       6 GLY6        0.0000 
     86 CA        -16.7000  -34.9000   -5.9500 C.3       6 GLY6        0.0000 
     87 CA         -9.5400  -36.8300   -8.3500 C.3       6 GLY6        0.0000 
     88 CA        -11.0800  -37.2700   -6.9500 C.3       6 GLY6        0.0000 
     89 CA        -16.2100  -35.5000   -3.9800 C.3       6 GLY6        0.0000 
     90 CA        -15.8700  -34.3300   -4.8500 C.3       6 GLY6        0.0000 
     91 CA         -9.3800  -38.6000   -5.5000 C.3       6 GLY6        0.0000 
     92 CA         -9.0400  -37.4200   -6.3700 C.3       6 GLY6        0.0000 
     93 CA         -8.7000  -36.2500   -7.2500 C.3       6 GLY6        0.0000 
     94 CA        -15.0300  -33.7500   -3.7500 C.3       6 GLY6        0.0000 
     95 CA         -7.8900  -33.1900   -5.3900 C.3       6 GLY6        0.0000 
     96 CA         -7.5500  -32.0100   -6.2600 C.3       6 GLY6        0.0000 
     97 CA         -8.2500  -31.8800   -3.7600 C.3       6 GLY6        0.0000 
     98 CA         -9.1100  -29.9700   -4.1100 C.3       6 GLY6        0.0000 
     99 CA         -8.6100  -30.5600   -2.1300 C.3       6 GLY6        0.0000 
    100 CA         -8.2700  -29.3900   -3.0000 C.3       6 GLY6        0.0000 
    101 CA         -7.7700  -29.9900   -1.0300 C.3       6 GLY6        0.0000 
    102 CA         -6.9300  -29.4100    0.0700 C.3       6 GLY6        0.0000 
    103 CA         -8.4700  -29.8500    1.4700 C.3       6 GLY6        0.0000 
    104 DU        -13.1100  -37.1100   -7.5300 H         7 CUB7        0.0000 
    105 DU        -14.6500  -37.5500   -6.1300 H         7 CUB7        0.0000 
    106 DU        -11.9400  -35.3600   -7.3000 H         7 CUB7        0.0000 
    107 DU        -13.8100  -36.9700   -5.0300 H         7 CUB7        0.0000 
    108 DU        -13.4700  -35.8000   -5.9000 H         7 CUB7        0.0000 
    109 DU        -14.6700  -35.0600   -5.3800 H         7 CUB7        0.0000 
    110 DU        -10.5800  -37.8600   -4.9800 H         7 CUB7        0.0000 
    111 DU        -10.2400  -36.6900   -5.8500 H         7 CUB7        0.0000 
    112 DU         -9.9000  -35.5200   -6.7200 H         7 CUB7        0.0000 
    113 DU        -11.7700  -37.1300   -4.4500 H         7 CUB7        0.0000 
    114 DU        -11.4400  -35.9500   -5.3200 H         7 CUB7        0.0000 
    115 DU        -11.1000  -34.7800   -6.2000 H         7 CUB7        0.0000 
    116 DU         -9.0600  -34.9400   -5.6200 H         7 CUB7        0.0000 
    117 DU         -8.7300  -33.7700   -6.4900 H         7 CUB7        0.0000 
    118 DU         -9.9200  -33.0300   -5.9600 H         7 CUB7        0.0000 
    119 DU         -8.7500  -31.2800   -5.7300 H         7 CUB7        0.0000 
    120 DU         -9.9600  -35.2600    1.3500 H         7 CUB7        0.0000 
    121 DU         -8.1100  -31.1600   -0.1600 H         7 CUB7        0.0000 
@<TRIPOS>BOND
@<TRIPOS>SUBSTRUCTURE
     1 SER1        1 GROUP   
     2 ALA2       10 GROUP   
     3 ASP3       19 GROUP   
     4 LYS4       55 GROUP   
     5 PHE5       74 GROUP   
     6 GLY6       83 GROUP   
     7 CUB7      104 GROUP   
@<TRIPOS>SET

