#    Name: 6h9x_1_SSA_CAVITY_N1_4
#    Modification time : Fri May 22 19:28:25 2020

@<TRIPOS>MOLECULE
6h9x_1_SSA_CAVITY_N1_4
   85     0     7     0     0
SMALL
NO_CHARGES


@<TRIPOS>ATOM
      1 OG         -7.8700  -35.6700   -6.1400 O.3       1 SER1        0.0000 
      2 OG         -7.5300  -34.5000   -7.0100 O.3       1 SER1        0.0000 
      3 OG        -10.7800  -31.1200   -6.3100 O.3       1 SER1        0.0000 
      4 OG         -7.0300  -35.1000   -5.0400 O.3       1 SER1        0.0000 
      5 OG         -9.9500  -30.5400   -5.2100 O.3       1 SER1        0.0000 
      6 OG         -7.9100  -30.7000   -4.6300 O.3       1 SER1        0.0000 
      7 OG         -7.4100  -31.3000   -2.6600 O.3       1 SER1        0.0000 
      8 OG         -6.5700  -30.7200   -1.5500 O.3       1 SER1        0.0000 
      9 OG         -7.4300  -28.8100   -1.9000 O.3       1 SER1        0.0000 
     10 N          -9.2200  -33.1700   -8.4600 N.am      2 ALA2        0.0000 
     11 N          -9.2500  -30.6800   -7.7100 N.am      2 ALA2        0.0000 
     12 N         -10.3400  -31.4600    3.7400 N.am      2 ALA2        0.0000 
     13 O         -11.5400  -30.7300    4.2600 O.2       2 ALA2        0.0000 
     14 OD1        -9.5600  -34.3400   -7.5900 O.co2     3 ASP3        0.0000 
     15 OD1       -12.6300  -35.2200   -4.8000 O.co2     3 ASP3        0.0000 
     16 OD1       -12.3000  -34.0500   -5.6700 O.co2     3 ASP3        0.0000 
     17 OD1       -13.8300  -34.4800   -4.2700 O.co2     3 ASP3        0.0000 
     18 OD1       -13.4900  -33.3100   -5.1500 O.co2     3 ASP3        0.0000 
     19 OD1        -8.2000  -36.8500   -5.2700 O.co2     3 ASP3        0.0000 
     20 OD1        -9.7400  -37.2900   -3.8800 O.co2     3 ASP3        0.0000 
     21 OD1        -9.4000  -36.1100   -4.7500 O.co2     3 ASP3        0.0000 
     22 OD1       -10.6000  -35.3800   -4.2200 O.co2     3 ASP3        0.0000 
     23 OD1       -10.2600  -34.2000   -5.0900 O.co2     3 ASP3        0.0000 
     24 OD1       -11.4600  -33.4700   -4.5700 O.co2     3 ASP3        0.0000 
     25 OD1       -11.1200  -32.3000   -5.4400 O.co2     3 ASP3        0.0000 
     26 OD1        -8.5600  -35.5300   -3.6400 O.co2     3 ASP3        0.0000 
     27 OD1        -8.2300  -34.3600   -4.5200 O.co2     3 ASP3        0.0000 
     28 OD1        -9.7600  -34.8000   -3.1200 O.co2     3 ASP3        0.0000 
     29 OD1        -9.4200  -33.6300   -3.9900 O.co2     3 ASP3        0.0000 
     30 OD1        -9.0900  -32.4500   -4.8600 O.co2     3 ASP3        0.0000 
     31 OD1       -10.2800  -31.7200   -4.3400 O.co2     3 ASP3        0.0000 
     32 OD1        -8.5900  -33.0500   -2.8900 O.co2     3 ASP3        0.0000 
     33 OD1        -9.7800  -32.3100   -2.3600 O.co2     3 ASP3        0.0000 
     34 OD1        -9.4500  -31.1400   -3.2300 O.co2     3 ASP3        0.0000 
     35 OD1        -8.9500  -31.7400   -1.2600 O.co2     3 ASP3        0.0000 
     36 OD1       -10.8200  -33.3500    1.0100 O.co2     3 ASP3        0.0000 
     37 OD1       -10.4800  -32.1800    0.1400 O.co2     3 ASP3        0.0000 
     38 OD1        -9.1200  -34.6800    2.4600 O.co2     3 ASP3        0.0000 
     39 OD1        -8.7900  -33.5100    1.5800 O.co2     3 ASP3        0.0000 
     40 OD1        -8.4500  -32.3300    0.7100 O.co2     3 ASP3        0.0000 
     41 OD1       -10.3200  -33.9500    2.9800 O.co2     3 ASP3        0.0000 
     42 OD1        -9.9800  -32.7700    2.1100 O.co2     3 ASP3        0.0000 
     43 OD1        -7.2700  -30.5800    0.9400 O.co2     3 ASP3        0.0000 
     44 OD1        -8.8100  -31.0200    2.3400 O.co2     3 ASP3        0.0000 
     45 OD1       -10.0100  -30.2900    2.8700 O.co2     3 ASP3        0.0000 
     46 NZ        -10.7600  -33.6100   -7.0700 N.4       4 LYS4        0.0000 
     47 NZ        -11.9600  -32.8700   -6.5400 N.4       4 LYS4        0.0000 
     48 NZ         -9.5900  -31.8600   -6.8400 N.4       4 LYS4        0.0000 
     49 NZ         -8.4100  -30.1100   -6.6000 N.4       4 LYS4        0.0000 
     50 NZ         -9.6100  -29.3700   -6.0800 N.4       4 LYS4        0.0000 
     51 NZ         -7.3900  -33.7800   -3.4100 N.4       4 LYS4        0.0000 
     52 NZ         -7.7500  -32.4700   -1.7900 N.4       4 LYS4        0.0000 
     53 NZ        -10.3000  -36.4300    2.2200 N.4       4 LYS4        0.0000 
     54 NZ        -12.0200  -32.6100    1.5300 N.4       4 LYS4        0.0000 
     55 NZ         -6.9100  -31.9000   -0.6800 N.4       4 LYS4        0.0000 
     56 NZ        -11.5200  -33.2100    3.5100 N.4       4 LYS4        0.0000 
     57 NZ         -6.0700  -31.3200    0.4200 N.4       4 LYS4        0.0000 
     58 CZ        -10.1400  -31.0000   -0.7400 C.ar      5 PHE5        0.0000 
     59 CZ         -9.8100  -29.8300   -1.6100 C.ar      5 PHE5        0.0000 
     60 CZ         -9.6500  -31.6000    1.2400 C.ar      5 PHE5        0.0000 
     61 CZ         -9.3100  -30.4300    0.3700 C.ar      5 PHE5        0.0000 
     62 CZ        -11.1800  -32.0400    2.6300 C.ar      5 PHE5        0.0000 
     63 CZ        -10.8400  -30.8600    1.7600 C.ar      5 PHE5        0.0000 
     64 CZ        -12.3800  -31.3000    3.1600 C.ar      5 PHE5        0.0000 
     65 CZ         -9.6700  -29.1100    1.9900 C.ar      5 PHE5        0.0000 
     66 CZ        -11.2000  -29.5500    3.3900 C.ar      5 PHE5        0.0000 
     67 CA         -7.8900  -33.1900   -5.3900 C.3       6 GLY6        0.0000 
     68 CA         -7.5500  -32.0100   -6.2600 C.3       6 GLY6        0.0000 
     69 CA         -8.2500  -31.8800   -3.7600 C.3       6 GLY6        0.0000 
     70 CA         -9.1100  -29.9700   -4.1100 C.3       6 GLY6        0.0000 
     71 CA         -8.6100  -30.5600   -2.1300 C.3       6 GLY6        0.0000 
     72 CA         -8.2700  -29.3900   -3.0000 C.3       6 GLY6        0.0000 
     73 CA         -7.7700  -29.9900   -1.0300 C.3       6 GLY6        0.0000 
     74 CA         -6.9300  -29.4100    0.0700 C.3       6 GLY6        0.0000 
     75 CA         -8.4700  -29.8500    1.4700 C.3       6 GLY6        0.0000 
     76 DU        -10.2400  -36.6900   -5.8500 H         7 CUB7        0.0000 
     77 DU         -9.9000  -35.5200   -6.7200 H         7 CUB7        0.0000 
     78 DU        -11.4400  -35.9500   -5.3200 H         7 CUB7        0.0000 
     79 DU        -11.1000  -34.7800   -6.2000 H         7 CUB7        0.0000 
     80 DU         -9.0600  -34.9400   -5.6200 H         7 CUB7        0.0000 
     81 DU         -8.7300  -33.7700   -6.4900 H         7 CUB7        0.0000 
     82 DU         -9.9200  -33.0300   -5.9600 H         7 CUB7        0.0000 
     83 DU         -8.7500  -31.2800   -5.7300 H         7 CUB7        0.0000 
     84 DU         -9.9600  -35.2600    1.3500 H         7 CUB7        0.0000 
     85 DU         -8.1100  -31.1600   -0.1600 H         7 CUB7        0.0000 
@<TRIPOS>BOND
@<TRIPOS>SUBSTRUCTURE
     1 SER1        1 GROUP   
     2 ALA2       10 GROUP   
     3 ASP3       14 GROUP   
     4 LYS4       46 GROUP   
     5 PHE5       58 GROUP   
     6 GLY6       67 GROUP   
     7 CUB7       76 GROUP   
@<TRIPOS>SET

