#    Name: 6h9x_1_SSA
#    Modification time : Fri May 22 19:28:23 2020

@<TRIPOS>MOLECULE
6h9x_1_SSA
   29    31     1     0     0
SMALL
NO_CHARGES


@<TRIPOS>ATOM
      1 N10       -10.2440  -30.0270   -7.5960 N.4       1 SSA501      0.0000 
      2 CA         -9.1050  -30.7990   -7.0800 C.3       1 SSA501      0.0000 
      3 CB         -7.8340  -29.9780   -6.8670 C.3       1 SSA501      0.0000 
      4 OG         -8.0310  -28.9850   -5.8770 O.3       1 SSA501      0.0000 
      5 C9         -9.5680  -31.3790   -5.7600 C.2       1 SSA501      0.0000 
      6 O9        -10.5980  -31.0520   -5.1690 O.2       1 SSA501      0.0000 
      7 N8         -8.6870  -32.3410   -5.2160 N.am      1 SSA501      0.0000 
      8 S1         -8.8110  -32.9260   -3.7400 S.o2      1 SSA501      0.0000 
      9 O1S       -10.0620  -33.5790   -3.5770 O.2       1 SSA501      0.0000 
     10 O2S        -7.5930  -33.5880   -3.4440 O.2       1 SSA501      0.0000 
     11 O5'        -8.9420  -31.6680   -2.7610 O.3       1 SSA501      0.0000 
     12 C5'        -7.9640  -30.5920   -2.8600 C.3       1 SSA501      0.0000 
     13 C4'        -7.4350  -30.3000   -1.4790 C.3       1 SSA501      0.0000 
     14 O4'        -8.5080  -29.9220   -0.5910 O.3       1 SSA501      0.0000 
     15 C3'        -6.7540  -31.4630   -0.7700 C.3       1 SSA501      0.0000 
     16 O3'        -5.4060  -31.5850   -1.1980 O.3       1 SSA501      0.0000 
     17 C2'        -6.8250  -31.0310    0.6940 C.3       1 SSA501      0.0000 
     18 O2'        -5.7750  -30.1180    0.9740 O.3       1 SSA501      0.0000 
     19 C1'        -8.1610  -30.2670    0.7440 C.3       1 SSA501      0.0000 
     20 N9         -9.2690  -31.0210    1.3210 N.pl3     1 SSA501      0.0000 
     21 C8         -9.8940  -32.1020    0.7550 C.2       1 SSA501      0.0000 
     22 N7        -10.9010  -32.5660    1.4540 N.2       1 SSA501      0.0000 
     23 C5        -10.9500  -31.7270    2.5570 C.ar      1 SSA501      0.0000 
     24 C6        -11.8410  -31.6440    3.6450 C.ar      1 SSA501      0.0000 
     25 N6        -12.9110  -32.4330    3.7830 N.pl3     1 SSA501      0.0000 
     26 N1        -11.6320  -30.6650    4.5590 N.ar      1 SSA501      0.0000 
     27 C2        -10.6190  -29.8080    4.3690 C.ar      1 SSA501      0.0000 
     28 N3         -9.7260  -29.7780    3.3720 N.ar      1 SSA501      0.0000 
     29 C4         -9.9440  -30.7730    2.4940 C.ar      1 SSA501      0.0000 
@<TRIPOS>BOND
     1    1    2 1    
     2    2    3 1    
     3    2    5 1    
     4    3    4 1    
     5    5    6 2    
     6    5    7 am   
     7    7    8 1    
     8    8    9 2    
     9    8   10 2    
    10    8   11 1    
    11   11   12 1    
    12   12   13 1    
    13   13   14 1    
    14   13   15 1    
    15   14   19 1    
    16   15   16 1    
    17   15   17 1    
    18   17   18 1    
    19   17   19 1    
    20   19   20 1    
    21   20   21 1    
    22   20   29 1    
    23   21   22 2    
    24   22   23 1    
    25   23   24 ar   
    26   23   29 ar   
    27   24   25 1    
    28   24   26 ar   
    29   26   27 ar   
    30   27   28 ar   
    31   28   29 ar   
@<TRIPOS>SUBSTRUCTURE
     1 SSA501      1 GROUP   
@<TRIPOS>SET

