#    Name: 6o2q_8_GDP
#    Modification time : Fri May 22 19:37:34 2020

@<TRIPOS>MOLECULE
6o2q_8_GDP
   28    30     1     0     1
SMALL
NO_CHARGES


@<TRIPOS>ATOM
      1 PB         73.5550   58.9490   27.5230 P.3       1 GDP501      0.0000 
      2 O1B        72.7420   59.7410   26.5350 O.co2     1 GDP501      0.0000 
      3 O2B        73.2540   57.4820   27.3550 O.co2     1 GDP501      0.0000 
      4 O3B        73.2270   59.4050   28.9200 O.co2     1 GDP501      0.0000 
      5 O3A        75.1100   59.1990   27.2490 O.3       1 GDP501      0.0000 
      6 PA         76.1900   58.3950   28.1190 P.3       1 GDP501      0.0000 
      7 O1A        76.9790   57.4470   27.2530 O.co2     1 GDP501      0.0000 
      8 O2A        75.5200   57.6470   29.2420 O.co2     1 GDP501      0.0000 
      9 O5'        77.1290   59.5660   28.6820 O.3       1 GDP501      0.0000 
     10 C5'        78.4250   59.7530   28.1320 C.3       1 GDP501      0.0000 
     11 C4'        79.3860   60.0240   29.2690 C.3       1 GDP501      0.0000 
     12 O4'        79.3930   58.8680   30.0940 O.3       1 GDP501      0.0000 
     13 C3'        80.7990   60.2150   28.7630 C.3       1 GDP501      0.0000 
     14 O3'        81.2480   61.5180   29.1280 O.3       1 GDP501      0.0000 
     15 C2'        81.6400   59.1830   29.4730 C.3       1 GDP501      0.0000 
     16 O2'        82.7060   59.8400   30.1530 O.3       1 GDP501      0.0000 
     17 C1'        80.7190   58.5500   30.4880 C.3       1 GDP501      0.0000 
     18 N9         80.8690   57.0860   30.4870 N.pl3     1 GDP501      0.0000 
     19 C8         80.4280   56.2450   29.5470 C.2       1 GDP501      0.0000 
     20 N7         80.7250   54.9630   29.8710 N.2       1 GDP501      0.0000 
     21 C5         81.3620   54.9850   31.0480 C.2       1 GDP501      0.0000 
     22 C6         81.9520   53.9960   31.9640 C.2       1 GDP501      0.0000 
     23 O6         81.9220   52.7800   31.7040 O.2       1 GDP501      0.0000 
     24 N1         82.5210   54.4390   33.0810 N.am      1 GDP501      0.0000 
     25 C2         82.5680   55.7400   33.3970 C.2       1 GDP501      0.0000 
     26 N2         83.1630   56.1100   34.5510 N.pl3     1 GDP501      0.0000 
     27 N3         82.0500   56.7030   32.6060 N.2       1 GDP501      0.0000 
     28 C4         81.4540   56.3870   31.4430 C.2       1 GDP501      0.0000 
@<TRIPOS>BOND
     1    1    2 ar   
     2    1    3 ar   
     3    1    4 ar   
     4    1    5 1    
     5    5    6 1    
     6    6    7 ar   
     7    6    8 ar   
     8    6    9 1    
     9    9   10 1    
    10   10   11 1    
    11   11   12 1    
    12   11   13 1    
    13   12   17 1    
    14   13   14 1    
    15   13   15 1    
    16   15   16 1    
    17   15   17 1    
    18   17   18 1    
    19   18   19 1    
    20   18   28 1    
    21   19   20 2    
    22   20   21 1    
    23   21   22 1    
    24   21   28 2    
    25   22   23 2    
    26   22   24 am   
    27   24   25 1    
    28   25   26 1    
    29   25   27 2    
    30   27   28 1    
@<TRIPOS>SUBSTRUCTURE
     1 GDP501      1 GROUP   
@<TRIPOS>SET
ATOM$ORANGE STATIC     ATOMS   COLORGROUP SYSTEM 
20 10 10 11 11 13 13 15 15 17 17 19 19 21 21 22 22 25 \
25 28 28 

