#    Name: 6o2q_12_GTP_CAVITY_N1_6
#    Modification time : Fri May 22 19:38:01 2020

@<TRIPOS>MOLECULE
6o2q_12_GTP_CAVITY_N1_6
   72     0     7     0     0
SMALL
NO_CHARGES


@<TRIPOS>ATOM
      1 OG        132.5500   56.9900  156.5800 O.3       1 SER1        0.0000 
      2 OG        131.2600   56.5000  159.6400 O.3       1 SER1        0.0000 
      3 OG        132.3800   56.8100  158.6900 O.3       1 SER1        0.0000 
      4 OG        132.8600   53.7100  160.6000 O.3       1 SER1        0.0000 
      5 OG        133.9800   54.0200  159.6500 O.3       1 SER1        0.0000 
      6 OG        134.4400   57.2600  158.8900 O.3       1 SER1        0.0000 
      7 OG        134.7700   55.8000  158.7900 O.3       1 SER1        0.0000 
      8 OG        135.1000   54.3400  158.7000 O.3       1 SER1        0.0000 
      9 N         131.2800   58.3200  155.5200 N.am      2 ALA2        0.0000 
     10 O         129.2000   56.0500  159.4300 O.2       2 ALA2        0.0000 
     11 O         129.5300   54.5900  159.3300 O.2       2 ALA2        0.0000 
     12 O         129.8500   53.1300  159.2400 O.2       2 ALA2        0.0000 
     13 O         129.9900   57.8200  158.5800 O.2       2 ALA2        0.0000 
     14 O         131.1100   58.1400  157.6300 O.2       2 ALA2        0.0000 
     15 O         132.2300   58.4500  156.6800 O.2       2 ALA2        0.0000 
     16 N         130.0100   51.4900  161.2500 N.am      2 ALA2        0.0000 
     17 N         131.1300   51.8000  160.3000 N.am      2 ALA2        0.0000 
     18 O         132.0500   58.2700  158.7800 O.2       2 ALA2        0.0000 
     19 N         131.9000   51.7600  163.5600 N.am      2 ALA2        0.0000 
     20 O         133.0200   52.0700  162.6100 O.2       2 ALA2        0.0000 
     21 N         133.8100   53.8400  161.7600 N.am      2 ALA2        0.0000 
     22 O         134.1400   52.3800  161.6600 O.2       2 ALA2        0.0000 
     23 O         133.9500   58.5400  161.1000 O.2       2 ALA2        0.0000 
     24 N         134.6000   55.6200  160.9000 N.am      2 ALA2        0.0000 
     25 N         134.9300   54.1600  160.8000 N.am      2 ALA2        0.0000 
     26 N         135.7200   55.9300  159.9500 N.am      2 ALA2        0.0000 
     27 N         136.0400   54.4700  159.8500 N.am      2 ALA2        0.0000 
     28 N         136.3400   57.5300  161.2000 N.am      2 ALA2        0.0000 
     29 N         137.7800   56.3800  160.1600 N.am      2 ALA2        0.0000 
     30 OD1       128.1000   57.5600  156.2700 O.co2     3 ASP3        0.0000 
     31 OD1       128.4300   56.0900  156.1700 O.co2     3 ASP3        0.0000 
     32 OD1       127.9300   57.3800  158.3700 O.co2     3 ASP3        0.0000 
     33 NZ        134.1200   58.7200  158.9900 N.4       4 LYS4        0.0000 
     34 NZ        135.0600   58.8500  160.1500 N.4       4 LYS4        0.0000 
     35 NZ        135.3900   57.3900  160.0500 N.4       4 LYS4        0.0000 
     36 NZ        137.4500   57.8400  160.2500 N.4       4 LYS4        0.0000 
     37 CZ        132.2400   52.1200  159.3500 C.ar      5 PHE5        0.0000 
     38 CZ        132.0700   51.9400  161.4500 C.ar      5 PHE5        0.0000 
     39 CZ        132.4000   50.4800  161.3600 C.ar      5 PHE5        0.0000 
     40 CZ        133.1900   52.2500  160.5000 C.ar      5 PHE5        0.0000 
     41 CZ        133.3400   50.6100  162.5100 C.ar      5 PHE5        0.0000 
     42 CA        128.2500   55.9200  158.2800 C.3       6 GLY6        0.0000 
     43 CA        129.0400   57.6900  157.4200 C.3       6 GLY6        0.0000 
     44 CA        129.3700   56.2300  157.3300 C.3       6 GLY6        0.0000 
     45 CA        129.7000   54.7700  157.2300 C.3       6 GLY6        0.0000 
     46 CA        130.1600   58.0000  156.4700 C.3       6 GLY6        0.0000 
     47 CA        130.4900   56.5400  156.3700 C.3       6 GLY6        0.0000 
     48 CA        131.6100   56.8500  155.4200 C.3       6 GLY6        0.0000 
     49 CA        130.6400   54.9000  158.3800 C.3       6 GLY6        0.0000 
     50 CA        130.9700   53.4400  158.2900 C.3       6 GLY6        0.0000 
     51 CA        131.4300   56.6800  157.5300 C.3       6 GLY6        0.0000 
     52 CA        130.8000   53.2600  160.3900 C.3       6 GLY6        0.0000 
     53 CA        131.5900   55.0400  159.5400 C.3       6 GLY6        0.0000 
     54 CA        131.9200   53.5800  159.4400 C.3       6 GLY6        0.0000 
     55 CA        132.7100   55.3500  158.5900 C.3       6 GLY6        0.0000 
     56 CA        133.0300   53.8900  158.4900 C.3       6 GLY6        0.0000 
     57 CA        133.1700   58.5800  157.8300 C.3       6 GLY6        0.0000 
     58 CA        130.9500   51.6200  162.4000 C.3       6 GLY6        0.0000 
     59 CA        131.7500   53.4000  161.5500 C.3       6 GLY6        0.0000 
     60 CA        132.2100   56.6300  160.7900 C.3       6 GLY6        0.0000 
     61 CA        132.5400   55.1700  160.7000 C.3       6 GLY6        0.0000 
     62 CA        133.0000   58.4100  159.9400 C.3       6 GLY6        0.0000 
     63 CA        132.6900   53.5300  162.7100 C.3       6 GLY6        0.0000 
     64 CA        133.1600   56.7700  161.9500 C.3       6 GLY6        0.0000 
     65 CA        133.4800   55.3100  161.8500 C.3       6 GLY6        0.0000 
     66 CA        134.2700   57.0800  161.0000 C.3       6 GLY6        0.0000 
     67 CA        136.8300   56.2400  159.0000 C.3       6 GLY6        0.0000 
     68 CA        135.2200   57.2100  162.1500 C.3       6 GLY6        0.0000 
     69 CA        136.0100   58.9900  161.3000 C.3       6 GLY6        0.0000 
     70 DU        130.3200   56.3600  158.4800 H         7 CUB7        0.0000 
     71 DU        133.3300   56.9400  159.8400 H         7 CUB7        0.0000 
     72 DU        133.6500   55.4800  159.7500 H         7 CUB7        0.0000 
@<TRIPOS>BOND
@<TRIPOS>SUBSTRUCTURE
     1 SER1        1 GROUP   
     2 ALA2        9 GROUP   
     3 ASP3       30 GROUP   
     4 LYS4       33 GROUP   
     5 PHE5       37 GROUP   
     6 GLY6       42 GROUP   
     7 CUB7       70 GROUP   
@<TRIPOS>SET

