#    Name: 6o2q_4_GDP_CAVITY_N1_4
#    Modification time : Fri May 22 19:37:06 2020

@<TRIPOS>MOLECULE
6o2q_4_GDP_CAVITY_N1_4
   99     0     7     0     0
SMALL
NO_CHARGES


@<TRIPOS>ATOM
      1 OG        132.0000   58.0200  116.0400 O.3       1 SER1        0.0000 
      2 OG        129.5900   57.2200  120.0500 O.3       1 SER1        0.0000 
      3 OG        132.9500   58.1600  117.2000 O.3       1 SER1        0.0000 
      4 OG        131.6600   57.6700  120.2500 O.3       1 SER1        0.0000 
      5 OG        131.9800   56.2100  120.1600 O.3       1 SER1        0.0000 
      6 OG        133.8900   58.2900  118.3500 O.3       1 SER1        0.0000 
      7 OG        132.9300   56.3400  121.3100 O.3       1 SER1        0.0000 
      8 OG        133.7200   58.1100  120.4600 O.3       1 SER1        0.0000 
      9 O         126.4300   58.2800  116.6800 O.2       2 ALA2        0.0000 
     10 O         127.5500   58.5900  115.7300 O.2       2 ALA2        0.0000 
     11 N         128.2000   55.6700  115.5300 N.am      2 ALA2        0.0000 
     12 N         128.6600   58.9000  114.7800 N.am      2 ALA2        0.0000 
     13 N         129.3200   55.9800  114.5800 N.am      2 ALA2        0.0000 
     14 O         130.1100   57.7500  113.7300 O.2       2 ALA2        0.0000 
     15 O         127.7000   56.9500  117.7400 O.2       2 ALA2        0.0000 
     16 N         129.1400   55.8000  116.6900 N.am      2 ALA2        0.0000 
     17 O         131.0500   57.8900  114.8900 O.2       2 ALA2        0.0000 
     18 O         127.5300   56.7700  119.8400 O.2       2 ALA2        0.0000 
     19 O         128.6500   57.0800  118.8900 O.2       2 ALA2        0.0000 
     20 O         128.9700   55.6200  118.8000 O.2       2 ALA2        0.0000 
     21 O         129.3000   54.1600  118.7000 O.2       2 ALA2        0.0000 
     22 N         132.3300   56.5600  115.9400 N.am      2 ALA2        0.0000 
     23 N         130.9000   51.3800  119.6600 N.am      2 ALA2        0.0000 
     24 O         131.8300   57.8400  118.1500 O.2       2 ALA2        0.0000 
     25 N         130.7300   51.2000  121.7700 N.am      2 ALA2        0.0000 
     26 N         131.5200   52.9700  120.9100 N.am      2 ALA2        0.0000 
     27 O         132.7700   57.9800  119.3000 O.2       2 ALA2        0.0000 
     28 O         131.6700   51.3300  122.9200 O.2       2 ALA2        0.0000 
     29 O         132.0000   49.8700  122.8300 O.2       2 ALA2        0.0000 
     30 N         132.4600   53.1100  122.0700 N.am      2 ALA2        0.0000 
     31 N         132.7900   51.6400  121.9700 N.am      2 ALA2        0.0000 
     32 O         133.2600   54.8800  121.2200 O.2       2 ALA2        0.0000 
     33 O         133.5800   53.4200  121.1200 O.2       2 ALA2        0.0000 
     34 O         134.0500   56.6500  120.3600 O.2       2 ALA2        0.0000 
     35 O         135.0300   52.2700  120.0700 O.2       2 ALA2        0.0000 
     36 O         135.4900   55.5000  119.3200 O.2       2 ALA2        0.0000 
     37 N         132.2900   52.9300  124.1800 N.am      2 ALA2        0.0000 
     38 O         132.6200   51.4700  124.0800 O.2       2 ALA2        0.0000 
     39 N         133.4100   53.2400  123.2300 N.am      2 ALA2        0.0000 
     40 N         133.7400   51.7800  123.1300 N.am      2 ALA2        0.0000 
     41 N         134.0600   50.3200  123.0300 N.am      2 ALA2        0.0000 
     42 N         134.6700   58.2500  121.6200 N.am      2 ALA2        0.0000 
     43 O         134.9900   56.7900  121.5200 O.2       2 ALA2        0.0000 
     44 O         136.1100   57.1000  120.5700 O.2       2 ALA2        0.0000 
     45 O         137.5500   55.9500  119.5200 O.2       2 ALA2        0.0000 
     46 O         138.3400   57.7300  118.6700 O.2       2 ALA2        0.0000 
     47 N         133.5700   51.6000  125.2400 N.am      2 ALA2        0.0000 
     48 O         137.0600   57.2300  121.7200 O.2       2 ALA2        0.0000 
     49 O         138.5000   56.0900  120.6800 O.2       2 ALA2        0.0000 
     50 OD1       130.4300   56.2900  113.6300 O.co2     3 ASP3        0.0000 
     51 NZ        125.4800   58.1400  115.5200 N.4       4 LYS4        0.0000 
     52 NZ        125.8100   56.6800  115.4300 N.4       4 LYS4        0.0000 
     53 NZ        126.6000   58.4500  114.5700 N.4       4 LYS4        0.0000 
     54 NZ        126.9300   56.9900  114.4700 N.4       4 LYS4        0.0000 
     55 NZ        127.8700   57.1300  115.6300 N.4       4 LYS4        0.0000 
     56 NZ        128.9900   57.4400  114.6800 N.4       4 LYS4        0.0000 
     57 NZ        132.4800   54.9200  117.9500 N.4       4 LYS4        0.0000 
     58 NZ        133.2700   56.7000  117.1000 N.4       4 LYS4        0.0000 
     59 NZ        133.4300   55.0600  119.1100 N.4       4 LYS4        0.0000 
     60 NZ        133.7500   53.6000  119.0100 N.4       4 LYS4        0.0000 
     61 NZ        134.2200   56.8300  118.2600 N.4       4 LYS4        0.0000 
     62 NZ        134.8400   58.4300  119.5100 N.4       4 LYS4        0.0000 
     63 NZ        135.9500   58.7400  118.5600 N.4       4 LYS4        0.0000 
     64 NZ        136.9000   58.8700  119.7100 N.4       4 LYS4        0.0000 
     65 CZ        132.0200   51.6900  118.7100 C.ar      5 PHE5        0.0000 
     66 CZ        132.1700   50.0500  120.7200 C.ar      5 PHE5        0.0000 
     67 CZ        132.9600   51.8200  119.8700 C.ar      5 PHE5        0.0000 
     68 CZ        133.1200   50.1800  121.8800 C.ar      5 PHE5        0.0000 
     69 CZ        133.9100   51.9600  121.0200 C.ar      5 PHE5        0.0000 
     70 CA        126.7500   56.8200  116.5800 C.3       6 GLY6        0.0000 
     71 CA        127.3700   58.4100  117.8300 C.3       6 GLY6        0.0000 
     72 CA        128.0300   55.4900  117.6400 C.3       6 GLY6        0.0000 
     73 CA        128.4900   58.7200  116.8800 C.3       6 GLY6        0.0000 
     74 CA        128.8200   57.2600  116.7900 C.3       6 GLY6        0.0000 
     75 CA        129.6100   59.0400  115.9300 C.3       6 GLY6        0.0000 
     76 CA        129.9400   57.5800  115.8400 C.3       6 GLY6        0.0000 
     77 CA        130.2600   56.1100  115.7400 C.3       6 GLY6        0.0000 
     78 CA        131.3800   56.4300  114.7900 C.3       6 GLY6        0.0000 
     79 CA        127.2000   58.2300  119.9400 C.3       6 GLY6        0.0000 
     80 CA        128.3200   58.5500  118.9900 C.3       6 GLY6        0.0000 
     81 CA        129.7600   57.4000  117.9400 C.3       6 GLY6        0.0000 
     82 CA        130.0900   55.9400  117.8500 C.3       6 GLY6        0.0000 
     83 CA        130.4200   54.4800  117.7500 C.3       6 GLY6        0.0000 
     84 CA        130.8800   57.7100  116.9900 C.3       6 GLY6        0.0000 
     85 CA        131.2100   56.2500  116.8900 C.3       6 GLY6        0.0000 
     86 CA        130.5700   52.8400  119.7600 C.3       6 GLY6        0.0000 
     87 CA        130.7100   57.5300  119.1000 C.3       6 GLY6        0.0000 
     88 CA        131.0400   56.0700  119.0000 C.3       6 GLY6        0.0000 
     89 CA        131.3600   54.6100  118.9000 C.3       6 GLY6        0.0000 
     90 CA        131.6900   53.1500  118.8100 C.3       6 GLY6        0.0000 
     91 CA        132.8100   53.4600  117.8600 C.3       6 GLY6        0.0000 
     92 CA        132.3100   54.7400  120.0600 C.3       6 GLY6        0.0000 
     93 CA        135.1600   56.9700  119.4100 C.3       6 GLY6        0.0000 
     94 CA        135.7800   58.5600  120.6700 C.3       6 GLY6        0.0000 
     95 CA        137.2300   57.4100  119.6200 C.3       6 GLY6        0.0000 
     96 DU        132.1500   56.3800  118.0500 H         7 CUB7        0.0000 
     97 DU        131.8500   51.5100  120.8200 H         7 CUB7        0.0000 
     98 DU        132.6400   53.2800  119.9600 H         7 CUB7        0.0000 
     99 DU        133.1000   56.5200  119.2100 H         7 CUB7        0.0000 
@<TRIPOS>BOND
@<TRIPOS>SUBSTRUCTURE
     1 SER1        1 GROUP   
     2 ALA2        9 GROUP   
     3 ASP3       50 GROUP   
     4 LYS4       51 GROUP   
     5 PHE5       65 GROUP   
     6 GLY6       70 GROUP   
     7 CUB7       96 GROUP   
@<TRIPOS>SET

