#    Name: 6o2q_1_GTP
#    Modification time : Fri May 22 19:36:46 2020

@<TRIPOS>MOLECULE
6o2q_1_GTP
   32    34     1     0     1
SMALL
NO_CHARGES


@<TRIPOS>ATOM
      1 PG         72.9460   59.5760   65.9340 P.3       1 GTP501      0.0000 
      2 O1G        73.7960   60.6380   65.2850 O.co2     1 GTP501      0.0000 
      3 O2G        71.5070   59.7580   65.5240 O.co2     1 GTP501      0.0000 
      4 O3G        73.4410   58.2100   65.5330 O.co2     1 GTP501      0.0000 
      5 O3B        73.0460   59.7610   67.5210 O.3       1 GTP501      0.0000 
      6 PB         73.8490   58.6920   68.4030 P.3       1 GTP501      0.0000 
      7 O1B        73.2280   57.3260   68.2730 O.co2     1 GTP501      0.0000 
      8 O2B        73.8660   59.1640   69.8320 O.co2     1 GTP501      0.0000 
      9 O3A        75.3250   58.6590   67.7820 O.3       1 GTP501      0.0000 
     10 PA         76.5660   58.2230   68.7040 P.3       1 GTP501      0.0000 
     11 O1A        77.5380   57.4340   67.8700 O.co2     1 GTP501      0.0000 
     12 O2A        76.1280   57.4270   69.9050 O.co2     1 GTP501      0.0000 
     13 O5'        77.2400   59.6030   69.1640 O.3       1 GTP501      0.0000 
     14 C5'        78.5100   59.9670   68.6870 C.3       1 GTP501      0.0000 
     15 C4'        79.5110   59.8370   69.8210 C.3       1 GTP501      0.0000 
     16 O4'        79.4360   58.5670   70.4220 O.3       1 GTP501      0.0000 
     17 C3'        80.9360   59.9540   69.3340 C.3       1 GTP501      0.0000 
     18 O3'        81.4120   61.2520   69.5830 O.3       1 GTP501      0.0000 
     19 C2'        81.7270   58.9660   70.1530 C.3       1 GTP501      0.0000 
     20 O2'        82.6260   59.6670   70.9710 O.3       1 GTP501      0.0000 
     21 C1'        80.6860   58.2860   71.0130 C.3       1 GTP501      0.0000 
     22 N9         80.8920   56.8370   71.0890 N.pl3     1 GTP501      0.0000 
     23 C8         80.4830   55.8980   70.1950 C.2       1 GTP501      0.0000 
     24 N7         80.8560   54.6860   70.6570 N.2       1 GTP501      0.0000 
     25 C5         81.4810   54.8410   71.8370 C.2       1 GTP501      0.0000 
     26 C6         82.0500   53.9450   72.7250 C.2       1 GTP501      0.0000 
     27 O6         82.0380   52.7450   72.4890 O.2       1 GTP501      0.0000 
     28 N1         82.6310   54.4020   73.8800 N.am      1 GTP501      0.0000 
     29 C2         82.6420   55.7520   74.1400 C.2       1 GTP501      0.0000 
     30 N2         83.2010   56.2090   75.2520 N.pl3     1 GTP501      0.0000 
     31 N3         82.0750   56.6370   73.2540 N.2       1 GTP501      0.0000 
     32 C4         81.5030   56.1880   72.1200 C.2       1 GTP501      0.0000 
@<TRIPOS>BOND
     1    1    2 ar   
     2    1    3 ar   
     3    1    4 ar   
     4    1    5 1    
     5    5    6 1    
     6    6    7 ar   
     7    6    8 ar   
     8    6    9 1    
     9    9   10 1    
    10   10   11 ar   
    11   10   12 ar   
    12   10   13 1    
    13   13   14 1    
    14   14   15 1    
    15   15   16 1    
    16   15   17 1    
    17   16   21 1    
    18   17   18 1    
    19   17   19 1    
    20   19   20 1    
    21   19   21 1    
    22   21   22 1    
    23   22   23 1    
    24   22   32 1    
    25   23   24 2    
    26   24   25 1    
    27   25   26 1    
    28   25   32 2    
    29   26   27 2    
    30   26   28 am   
    31   28   29 1    
    32   29   30 1    
    33   29   31 2    
    34   31   32 1    
@<TRIPOS>SUBSTRUCTURE
     1 GTP501      1 GROUP   
@<TRIPOS>SET
ATOM$ORANGE STATIC     ATOMS   COLORGROUP SYSTEM 
20 14 14 15 15 17 17 19 19 21 21 23 23 25 25 26 26 29 \
29 32 32 

