#    Name: 6o2q_12_GTP
#    Modification time : Fri May 22 19:38:00 2020

@<TRIPOS>MOLECULE
6o2q_12_GTP
   32    34     1     0     1
SMALL
NO_CHARGES


@<TRIPOS>ATOM
      1 PG        126.2300   59.5530  155.5060 P.3       1 GTP501      0.0000 
      2 O1G       127.4750   60.0980  154.8540 O.co2     1 GTP501      0.0000 
      3 O2G       125.0400   60.3820  155.0940 O.co2     1 GTP501      0.0000 
      4 O3G       126.0340   58.1130  155.1090 O.co2     1 GTP501      0.0000 
      5 O3B       126.4060   59.6760  157.0920 O.3       1 GTP501      0.0000 
      6 PB        126.6230   58.3590  157.9780 P.3       1 GTP501      0.0000 
      7 O1B       125.4380   57.4370  157.8520 O.co2     1 GTP501      0.0000 
      8 O2B       126.8570   58.7730  159.4060 O.co2     1 GTP501      0.0000 
      9 O3A       127.9140   57.6430  157.3580 O.3       1 GTP501      0.0000 
     10 PA        128.8120   56.6840  158.2810 P.3       1 GTP501      0.0000 
     11 O1A       129.3050   55.5310  157.4500 O.co2     1 GTP501      0.0000 
     12 O2A       128.0560   56.1850  159.4850 O.co2     1 GTP501      0.0000 
     13 O5'       130.0490   57.5940  158.7380 O.3       1 GTP501      0.0000 
     14 C5'       131.3430   57.3260  158.2610 C.3       1 GTP501      0.0000 
     15 C4'       132.1700   56.7490  159.3960 C.3       1 GTP501      0.0000 
     16 O4'       131.5150   55.6620  160.0010 O.3       1 GTP501      0.0000 
     17 C3'       133.4870   56.1910  158.9080 C.3       1 GTP501      0.0000 
     18 O3'       134.5110   57.1210  159.1540 O.3       1 GTP501      0.0000 
     19 C2'       133.7290   54.9510  159.7320 C.3       1 GTP501      0.0000 
     20 O2'       134.8520   55.1570  160.5480 O.3       1 GTP501      0.0000 
     21 C1'       132.4920   54.8340  160.5930 C.3       1 GTP501      0.0000 
     22 N9        132.0030   53.4550  160.6730 N.pl3     1 GTP501      0.0000 
     23 C8        131.2040   52.8110  159.7820 C.2       1 GTP501      0.0000 
     24 N7        130.9720   51.5650  160.2480 N.2       1 GTP501      0.0000 
     25 C5        131.5990   51.4160  161.4280 C.2       1 GTP501      0.0000 
     26 C6        131.6880   50.3610  162.3180 C.2       1 GTP501      0.0000 
     27 O6        131.1200   49.3020  162.0860 O.2       1 GTP501      0.0000 
     28 N1        132.4150   50.4990  163.4720 N.am      1 GTP501      0.0000 
     29 C2        133.0520   51.6900  163.7280 C.2       1 GTP501      0.0000 
     30 N2        133.7610   51.8390  164.8390 N.pl3     1 GTP501      0.0000 
     31 N3        132.9600   52.7350  162.8400 N.2       1 GTP501      0.0000 
     32 C4        132.2440   52.6000  161.7070 C.2       1 GTP501      0.0000 
@<TRIPOS>BOND
     1    1    2 ar   
     2    1    3 ar   
     3    1    4 ar   
     4    1    5 1    
     5    5    6 1    
     6    6    7 ar   
     7    6    8 ar   
     8    6    9 1    
     9    9   10 1    
    10   10   11 ar   
    11   10   12 ar   
    12   10   13 1    
    13   13   14 1    
    14   14   15 1    
    15   15   16 1    
    16   15   17 1    
    17   16   21 1    
    18   17   18 1    
    19   17   19 1    
    20   19   20 1    
    21   19   21 1    
    22   21   22 1    
    23   22   23 1    
    24   22   32 1    
    25   23   24 2    
    26   24   25 1    
    27   25   26 1    
    28   25   32 2    
    29   26   27 2    
    30   26   28 am   
    31   28   29 1    
    32   29   30 1    
    33   29   31 2    
    34   31   32 1    
@<TRIPOS>SUBSTRUCTURE
     1 GTP501      1 GROUP   
@<TRIPOS>SET
ATOM$ORANGE STATIC     ATOMS   COLORGROUP SYSTEM 
20 14 14 15 15 17 17 19 19 21 21 23 23 25 25 26 26 29 \
29 32 32 

