#    Name: 6o2q_2_GDP
#    Modification time : Fri May 22 19:36:55 2020

@<TRIPOS>MOLECULE
6o2q_2_GDP
   28    30     1     0     1
SMALL
NO_CHARGES


@<TRIPOS>ATOM
      1 PB         73.7190   58.9640  107.9060 P.3       1 GDP501      0.0000 
      2 O1B        72.9090   59.7550  106.9140 O.co2     1 GDP501      0.0000 
      3 O2B        73.4180   57.4970  107.7410 O.co2     1 GDP501      0.0000 
      4 O3B        73.3890   59.4230  109.3010 O.co2     1 GDP501      0.0000 
      5 O3A        75.2760   59.2130  107.6350 O.3       1 GDP501      0.0000 
      6 PA         76.3530   58.4100  108.5090 P.3       1 GDP501      0.0000 
      7 O1A        77.1440   57.4600  107.6470 O.co2     1 GDP501      0.0000 
      8 O2A        75.6800   57.6650  109.6320 O.co2     1 GDP501      0.0000 
      9 O5'        77.2910   59.5830  109.0710 O.3       1 GDP501      0.0000 
     10 C5'        78.5880   59.7670  108.5240 C.3       1 GDP501      0.0000 
     11 C4'        79.5480   60.0410  109.6620 C.3       1 GDP501      0.0000 
     12 O4'        79.5520   58.8870  110.4890 O.3       1 GDP501      0.0000 
     13 C3'        80.9610   60.2300  109.1580 C.3       1 GDP501      0.0000 
     14 O3'        81.4100   61.5340  109.5210 O.3       1 GDP501      0.0000 
     15 C2'        81.8000   59.1990  109.8720 C.3       1 GDP501      0.0000 
     16 O2'        82.8650   59.8580  110.5530 O.3       1 GDP501      0.0000 
     17 C1'        80.8780   58.5690  110.8870 C.3       1 GDP501      0.0000 
     18 N9         81.0260   57.1060  110.8900 N.pl3     1 GDP501      0.0000 
     19 C8         80.5870   56.2620  109.9510 C.2       1 GDP501      0.0000 
     20 N7         80.8830   54.9810  110.2790 N.2       1 GDP501      0.0000 
     21 C5         81.5180   55.0060  111.4570 C.2       1 GDP501      0.0000 
     22 C6         82.1060   54.0180  112.3760 C.2       1 GDP501      0.0000 
     23 O6         82.0760   52.8020  112.1190 O.2       1 GDP501      0.0000 
     24 N1         82.6730   54.4640  113.4940 N.am      1 GDP501      0.0000 
     25 C2         82.7190   55.7650  113.8060 C.2       1 GDP501      0.0000 
     26 N2         83.3110   56.1370  114.9610 N.pl3     1 GDP501      0.0000 
     27 N3         82.2030   56.7260  113.0120 N.2       1 GDP501      0.0000 
     28 C4         81.6090   56.4080  111.8480 C.2       1 GDP501      0.0000 
@<TRIPOS>BOND
     1    1    2 ar   
     2    1    3 ar   
     3    1    4 ar   
     4    1    5 1    
     5    5    6 1    
     6    6    7 ar   
     7    6    8 ar   
     8    6    9 1    
     9    9   10 1    
    10   10   11 1    
    11   11   12 1    
    12   11   13 1    
    13   12   17 1    
    14   13   14 1    
    15   13   15 1    
    16   15   16 1    
    17   15   17 1    
    18   17   18 1    
    19   18   19 1    
    20   18   28 1    
    21   19   20 2    
    22   20   21 1    
    23   21   22 1    
    24   21   28 2    
    25   22   23 2    
    26   22   24 am   
    27   24   25 1    
    28   25   26 1    
    29   25   27 2    
    30   27   28 1    
@<TRIPOS>SUBSTRUCTURE
     1 GDP501      1 GROUP   
@<TRIPOS>SET
ATOM$ORANGE STATIC     ATOMS   COLORGROUP SYSTEM 
20 10 10 11 11 13 13 15 15 17 17 19 19 21 21 22 22 25 \
25 28 28 

