#    Name: 6o2q_9_GDP
#    Modification time : Fri May 22 19:37:39 2020

@<TRIPOS>MOLECULE
6o2q_9_GDP
   28    30     1     0     1
SMALL
NO_CHARGES


@<TRIPOS>ATOM
      1 PB        126.1070   58.7440   36.9150 P.3       1 GDP501      0.0000 
      2 O1B       125.7500   59.8270   35.9320 O.co2     1 GDP501      0.0000 
      3 O2B       125.1600   57.5850   36.7460 O.co2     1 GDP501      0.0000 
      4 O3B       126.0320   59.2950   38.3140 O.co2     1 GDP501      0.0000 
      5 O3A       127.6010   58.2470   36.6350 O.3       1 GDP501      0.0000 
      6 PA        128.1880   57.0310   37.4990 P.3       1 GDP501      0.0000 
      7 O1A       128.4450   55.8290   36.6280 O.co2     1 GDP501      0.0000 
      8 O2A       127.2510   56.6740   38.6230 O.co2     1 GDP501      0.0000 
      9 O5'       129.5640   57.6320   38.0590 O.3       1 GDP501      0.0000 
     10 C5'       130.7970   57.1990   37.5050 C.3       1 GDP501      0.0000 
     11 C4'       131.7780   56.9900   38.6380 C.3       1 GDP501      0.0000 
     12 O4'       131.2520   55.9600   39.4600 O.3       1 GDP501      0.0000 
     13 C3'       133.1170   56.5080   38.1260 C.3       1 GDP501      0.0000 
     14 O3'       134.1200   57.4530   38.4910 O.3       1 GDP501      0.0000 
     15 C2'       133.3870   55.2010   38.8300 C.3       1 GDP501      0.0000 
     16 O2'       134.6380   55.2870   39.5070 O.3       1 GDP501      0.0000 
     17 C1'       132.2810   55.0620   39.8480 C.3       1 GDP501      0.0000 
     18 N9        131.7360   53.6960   39.8440 N.pl3     1 GDP501      0.0000 
     19 C8        130.9530   53.1580   38.9040 C.2       1 GDP501      0.0000 
     20 N7        130.6230   51.8830   39.2250 N.2       1 GDP501      0.0000 
     21 C5        131.2020   51.6040   40.3990 C.2       1 GDP501      0.0000 
     22 C6        131.2700   50.4500   41.3110 C.2       1 GDP501      0.0000 
     23 O6        130.6800   49.3870   41.0490 O.2       1 GDP501      0.0000 
     24 N1        131.9830   50.5750   42.4270 N.am      1 GDP501      0.0000 
     25 C2        132.6270   51.7050   42.7440 C.2       1 GDP501      0.0000 
     26 N2        133.3290   51.7540   43.8970 N.pl3     1 GDP501      0.0000 
     27 N3        132.6120   52.8020   41.9570 N.2       1 GDP501      0.0000 
     28 C4        131.9340   52.8020   40.7960 C.2       1 GDP501      0.0000 
@<TRIPOS>BOND
     1    1    2 ar   
     2    1    3 ar   
     3    1    4 ar   
     4    1    5 1    
     5    5    6 1    
     6    6    7 ar   
     7    6    8 ar   
     8    6    9 1    
     9    9   10 1    
    10   10   11 1    
    11   11   12 1    
    12   11   13 1    
    13   12   17 1    
    14   13   14 1    
    15   13   15 1    
    16   15   16 1    
    17   15   17 1    
    18   17   18 1    
    19   18   19 1    
    20   18   28 1    
    21   19   20 2    
    22   20   21 1    
    23   21   22 1    
    24   21   28 2    
    25   22   23 2    
    26   22   24 am   
    27   24   25 1    
    28   25   26 1    
    29   25   27 2    
    30   27   28 1    
@<TRIPOS>SUBSTRUCTURE
     1 GDP501      1 GROUP   
@<TRIPOS>SET
ATOM$ORANGE STATIC     ATOMS   COLORGROUP SYSTEM 
20 10 10 11 11 13 13 15 15 17 17 19 19 21 21 22 22 25 \
25 28 28 

