#    Name: 6o2q_7_GDP
#    Modification time : Fri May 22 19:37:29 2020

@<TRIPOS>MOLECULE
6o2q_7_GDP
   28    30     1     0     1
SMALL
NO_CHARGES


@<TRIPOS>ATOM
      1 PB         26.6990   34.6040   18.3400 P.3       1 GDP501      0.0000 
      2 O1B        25.6110   34.9290   17.3530 O.co2     1 GDP501      0.0000 
      3 O2B        27.1090   33.1640   18.1740 O.co2     1 GDP501      0.0000 
      4 O3B        26.2000   34.8600   19.7370 O.co2     1 GDP501      0.0000 
      5 O3A        27.9640   35.5430   18.0630 O.3       1 GDP501      0.0000 
      6 PA         29.2940   35.3300   18.9310 P.3       1 GDP501      0.0000 
      7 O1A        30.4300   34.8520   18.0640 O.co2     1 GDP501      0.0000 
      8 O2A        29.0460   34.3600   20.0560 O.co2     1 GDP501      0.0000 
      9 O5'        29.5860   36.8040   19.4900 O.3       1 GDP501      0.0000 
     10 C5'        30.6490   37.5660   18.9370 C.3       1 GDP501      0.0000 
     11 C4'        31.3790   38.2530   20.0720 C.3       1 GDP501      0.0000 
     12 O4'        31.9190   37.2330   20.8980 O.3       1 GDP501      0.0000 
     13 C3'        32.5420   39.0740   19.5620 C.3       1 GDP501      0.0000 
     14 O3'        32.3400   40.4380   19.9240 O.3       1 GDP501      0.0000 
     15 C2'        33.7660   38.5480   20.2710 C.3       1 GDP501      0.0000 
     16 O2'        34.4090   39.6240   20.9480 O.3       1 GDP501      0.0000 
     17 C1'        33.2430   37.5640   21.2890 C.3       1 GDP501      0.0000 
     18 N9         34.0510   36.3350   21.2900 N.pl3     1 GDP501      0.0000 
     19 C8         34.0470   35.3820   20.3520 C.2       1 GDP501      0.0000 
     20 N7         34.9030   34.3830   20.6780 N.2       1 GDP501      0.0000 
     21 C5         35.4590   34.7000   21.8530 C.2       1 GDP501      0.0000 
     22 C6         36.4420   34.0970   22.7680 C.2       1 GDP501      0.0000 
     23 O6         36.9760   33.0040   22.5100 O.2       1 GDP501      0.0000 
     24 N1         36.7430   34.7550   23.8840 N.am      1 GDP501      0.0000 
     25 C2         36.1840   35.9310   24.1980 C.2       1 GDP501      0.0000 
     26 N2         36.5430   36.5360   25.3500 N.pl3     1 GDP501      0.0000 
     27 N3         35.2790   36.5440   23.4070 N.2       1 GDP501      0.0000 
     28 C4         34.8950   35.9860   22.2450 C.2       1 GDP501      0.0000 
@<TRIPOS>BOND
     1    1    2 ar   
     2    1    3 ar   
     3    1    4 ar   
     4    1    5 1    
     5    5    6 1    
     6    6    7 ar   
     7    6    8 ar   
     8    6    9 1    
     9    9   10 1    
    10   10   11 1    
    11   11   12 1    
    12   11   13 1    
    13   12   17 1    
    14   13   14 1    
    15   13   15 1    
    16   15   16 1    
    17   15   17 1    
    18   17   18 1    
    19   18   19 1    
    20   18   28 1    
    21   19   20 2    
    22   20   21 1    
    23   21   22 1    
    24   21   28 2    
    25   22   23 2    
    26   22   24 am   
    27   24   25 1    
    28   25   26 1    
    29   25   27 2    
    30   27   28 1    
@<TRIPOS>SUBSTRUCTURE
     1 GDP501      1 GROUP   
@<TRIPOS>SET
ATOM$ORANGE STATIC     ATOMS   COLORGROUP SYSTEM 
20 10 10 11 11 13 13 15 15 17 17 19 19 21 21 22 22 25 \
25 28 28 

