#    Name: 6o2q_5_GTP
#    Modification time : Fri May 22 19:37:15 2020

@<TRIPOS>MOLECULE
6o2q_5_GTP
   32    34     1     0     1
SMALL
NO_CHARGES


@<TRIPOS>ATOM
      1 PG         25.9400   35.0130   56.6350 P.3       1 GTP501      0.0000 
      2 O1G        26.2000   36.3480   55.9850 O.co2     1 GTP501      0.0000 
      3 O2G        24.5810   34.5070   56.2230 O.co2     1 GTP501      0.0000 
      4 O3G        27.0130   34.0330   56.2330 O.co2     1 GTP501      0.0000 
      5 O3B        25.9420   35.2230   58.2220 O.3       1 GTP501      0.0000 
      6 PB         27.1490   34.6490   59.1040 P.3       1 GTP501      0.0000 
      7 O1B        27.2320   33.1510   58.9740 O.co2     1 GTP501      0.0000 
      8 O2B        26.9440   35.0740   60.5330 O.co2     1 GTP501      0.0000 
      9 O3A        28.4720   35.3050   58.4840 O.3       1 GTP501      0.0000 
     10 PA         29.7720   35.4940   59.4060 P.3       1 GTP501      0.0000 
     11 O1A        31.0000   35.2460   58.5730 O.co2     1 GTP501      0.0000 
     12 O2A        29.7540   34.5860   60.6070 O.co2     1 GTP501      0.0000 
     13 O5'        29.7290   37.0290   59.8670 O.3       1 GTP501      0.0000 
     14 C5'        30.6850   37.9420   59.3910 C.3       1 GTP501      0.0000 
     15 C4'        31.6320   38.2900   60.5260 C.3       1 GTP501      0.0000 
     16 O4'        32.1530   37.1310   61.1270 O.3       1 GTP501      0.0000 
     17 C3'        32.8390   39.0560   60.0390 C.3       1 GTP501      0.0000 
     18 O3'        32.6580   40.4270   60.2890 O.3       1 GTP501      0.0000 
     19 C2'        33.9980   38.5480   60.8590 C.3       1 GTP501      0.0000 
     20 O2'        34.4680   39.5860   61.6780 O.3       1 GTP501      0.0000 
     21 C1'        33.3910   37.4620   61.7180 C.3       1 GTP501      0.0000 
     22 N9         34.2460   36.2750   61.7950 N.pl3     1 GTP501      0.0000 
     23 C8         34.3200   35.2530   60.9000 C.2       1 GTP501      0.0000 
     24 N7         35.2130   34.3520   61.3620 N.2       1 GTP501      0.0000 
     25 C5         35.6940   34.7800   62.5430 C.2       1 GTP501      0.0000 
     26 C6         36.6140   34.2500   63.4310 C.2       1 GTP501      0.0000 
     27 O6         37.1610   33.1810   63.1950 O.2       1 GTP501      0.0000 
     28 N1         36.9150   34.9230   64.5860 N.am      1 GTP501      0.0000 
     29 C2         36.2990   36.1250   64.8460 C.2       1 GTP501      0.0000 
     30 N2         36.5810   36.7890   65.9590 N.pl3     1 GTP501      0.0000 
     31 N3         35.3860   36.6460   63.9600 N.2       1 GTP501      0.0000 
     32 C4         35.0880   35.9830   62.8260 C.2       1 GTP501      0.0000 
@<TRIPOS>BOND
     1    1    2 ar   
     2    1    3 ar   
     3    1    4 ar   
     4    1    5 1    
     5    5    6 1    
     6    6    7 ar   
     7    6    8 ar   
     8    6    9 1    
     9    9   10 1    
    10   10   11 ar   
    11   10   12 ar   
    12   10   13 1    
    13   13   14 1    
    14   14   15 1    
    15   15   16 1    
    16   15   17 1    
    17   16   21 1    
    18   17   18 1    
    19   17   19 1    
    20   19   20 1    
    21   19   21 1    
    22   21   22 1    
    23   22   23 1    
    24   22   32 1    
    25   23   24 2    
    26   24   25 1    
    27   25   26 1    
    28   25   32 2    
    29   26   27 2    
    30   26   28 am   
    31   28   29 1    
    32   29   30 1    
    33   29   31 2    
    34   31   32 1    
@<TRIPOS>SUBSTRUCTURE
     1 GTP501      1 GROUP   
@<TRIPOS>SET
ATOM$ORANGE STATIC     ATOMS   COLORGROUP SYSTEM 
20 14 14 15 15 17 17 19 19 21 21 23 23 25 25 26 26 29 \
29 32 32 

