#    Name: 6o2q_4_GDP
#    Modification time : Fri May 22 19:37:05 2020

@<TRIPOS>MOLECULE
6o2q_4_GDP
   28    30     1     0     1
SMALL
NO_CHARGES


@<TRIPOS>ATOM
      1 PB        126.4440   58.7250  117.2410 P.3       1 GDP501      0.0000 
      2 O1B       126.0940   59.8040  116.2510 O.co2     1 GDP501      0.0000 
      3 O2B       125.4940   57.5680  117.0760 O.co2     1 GDP501      0.0000 
      4 O3B       126.3670   59.2840  118.6370 O.co2     1 GDP501      0.0000 
      5 O3A       127.9370   58.2200  116.9680 O.3       1 GDP501      0.0000 
      6 PA        128.5170   57.0070  117.8400 P.3       1 GDP501      0.0000 
      7 O1A       128.7720   55.7990  116.9760 O.co2     1 GDP501      0.0000 
      8 O2A       127.5750   56.6600  118.9640 O.co2     1 GDP501      0.0000 
      9 O5'       129.8940   57.6060  118.4000 O.3       1 GDP501      0.0000 
     10 C5'       131.1270   57.1650  117.8510 C.3       1 GDP501      0.0000 
     11 C4'       132.1040   56.9590  118.9880 C.3       1 GDP501      0.0000 
     12 O4'       131.5720   55.9350  119.8150 O.3       1 GDP501      0.0000 
     13 C3'       133.4430   56.4680  118.4820 C.3       1 GDP501      0.0000 
     14 O3'       134.4480   57.4120  118.8450 O.3       1 GDP501      0.0000 
     15 C2'       133.7050   55.1640  119.1940 C.3       1 GDP501      0.0000 
     16 O2'       134.9550   55.2490  119.8740 O.3       1 GDP501      0.0000 
     17 C1'       132.5960   55.0350  120.2100 C.3       1 GDP501      0.0000 
     18 N9        132.0460   53.6710  120.2120 N.pl3     1 GDP501      0.0000 
     19 C8        131.2630   53.1310  119.2730 C.2       1 GDP501      0.0000 
     20 N7        130.9280   51.8590  119.6000 N.2       1 GDP501      0.0000 
     21 C5        131.5020   51.5840  120.7770 C.2       1 GDP501      0.0000 
     22 C6        131.5630   50.4350  121.6950 C.2       1 GDP501      0.0000 
     23 O6        130.9700   49.3730  121.4370 O.2       1 GDP501      0.0000 
     24 N1        132.2740   50.5640  122.8120 N.am      1 GDP501      0.0000 
     25 C2        132.9220   51.6930  123.1250 C.2       1 GDP501      0.0000 
     26 N2        133.6210   51.7450  124.2790 N.pl3     1 GDP501      0.0000 
     27 N3        132.9130   52.7850  122.3320 N.2       1 GDP501      0.0000 
     28 C4        132.2380   52.7810  121.1690 C.2       1 GDP501      0.0000 
@<TRIPOS>BOND
     1    1    2 ar   
     2    1    3 ar   
     3    1    4 ar   
     4    1    5 1    
     5    5    6 1    
     6    6    7 ar   
     7    6    8 ar   
     8    6    9 1    
     9    9   10 1    
    10   10   11 1    
    11   11   12 1    
    12   11   13 1    
    13   12   17 1    
    14   13   14 1    
    15   13   15 1    
    16   15   16 1    
    17   15   17 1    
    18   17   18 1    
    19   18   19 1    
    20   18   28 1    
    21   19   20 2    
    22   20   21 1    
    23   21   22 1    
    24   21   28 2    
    25   22   23 2    
    26   22   24 am   
    27   24   25 1    
    28   25   26 1    
    29   25   27 2    
    30   27   28 1    
@<TRIPOS>SUBSTRUCTURE
     1 GDP501      1 GROUP   
@<TRIPOS>SET
ATOM$ORANGE STATIC     ATOMS   COLORGROUP SYSTEM 
20 10 10 11 11 13 13 15 15 17 17 19 19 21 21 22 22 25 \
25 28 28 

