#    Name: 6o2q_1_GTP_CAVITY_N1_12
#    Modification time : Fri May 22 19:36:47 2020

@<TRIPOS>MOLECULE
6o2q_1_GTP_CAVITY_N1_12
   70     0     7     0     0
SMALL
NO_CHARGES


@<TRIPOS>ATOM
      1 OG         79.6500   60.3700   67.1400 O.3       1 SER1        0.0000 
      2 OG         78.3700   59.8700   70.2000 O.3       1 SER1        0.0000 
      3 OG         80.6000   60.5000   68.3000 O.3       1 SER1        0.0000 
      4 OG         80.9300   59.0400   68.2000 O.3       1 SER1        0.0000 
      5 OG         81.5500   60.6300   69.4500 O.3       1 SER1        0.0000 
      6 OG         81.8700   59.1700   69.3600 O.3       1 SER1        0.0000 
      7 OG         82.2000   57.7100   69.2600 O.3       1 SER1        0.0000 
      8 OG         82.0300   57.5300   71.3600 O.3       1 SER1        0.0000 
      9 O          77.4200   59.7400   69.0400 O.2       2 ALA2        0.0000 
     10 O          78.5400   60.0500   68.0900 O.2       2 ALA2        0.0000 
     11 O          79.4800   60.1900   69.2500 O.2       2 ALA2        0.0000 
     12 N          79.5000   53.8500   71.9200 N.am      2 ALA2        0.0000 
     13 N          80.4500   53.9900   73.0700 N.am      2 ALA2        0.0000 
     14 N          81.5600   54.3000   72.1200 N.am      2 ALA2        0.0000 
     15 O          80.7200   63.3800   71.7500 O.2       2 ALA2        0.0000 
     16 N          81.0500   61.9200   71.6600 N.am      2 ALA2        0.0000 
     17 N          81.7000   59.0000   71.4600 N.am      2 ALA2        0.0000 
     18 N          82.4900   60.7700   70.6100 N.am      2 ALA2        0.0000 
     19 N          82.8200   59.3100   70.5100 N.am      2 ALA2        0.0000 
     20 N          81.0700   55.5800   74.3300 N.am      2 ALA2        0.0000 
     21 O          82.1800   55.9000   73.3700 O.2       2 ALA2        0.0000 
     22 N          82.5100   54.4300   73.2800 N.am      2 ALA2        0.0000 
     23 O          82.9700   57.6700   72.5200 O.2       2 ALA2        0.0000 
     24 O          83.3000   56.2100   72.4200 O.2       2 ALA2        0.0000 
     25 N          83.1100   62.3600   71.8600 N.am      2 ALA2        0.0000 
     26 N          84.2300   62.6800   70.9100 N.am      2 ALA2        0.0000 
     27 O          83.1300   56.0300   74.5300 O.2       2 ALA2        0.0000 
     28 N          83.4600   54.5700   74.4300 N.am      2 ALA2        0.0000 
     29 OD1        76.8000   58.1400   67.7900 O.co2     3 ASP3        0.0000 
     30 NZ         80.2700   61.9600   68.3900 N.4       4 LYS4        0.0000 
     31 NZ         81.2200   62.1000   69.5500 N.4       4 LYS4        0.0000 
     32 NZ         81.8400   63.6900   70.8000 N.4       4 LYS4        0.0000 
     33 NZ         82.1700   62.2300   70.7100 N.4       4 LYS4        0.0000 
     34 NZ         83.2800   62.5400   69.7500 N.4       4 LYS4        0.0000 
     35 CZ         81.4100   55.9400   70.1100 C.ar      5 PHE5        0.0000 
     36 CZ         82.3500   56.0700   71.2700 C.ar      5 PHE5        0.0000 
     37 CZ         83.6300   54.7500   72.3300 C.ar      5 PHE5        0.0000 
     38 CZ         84.5700   54.8800   73.4800 C.ar      5 PHE5        0.0000 
     39 CA         77.5900   59.9200   66.9300 C.3       6 GLY6        0.0000 
     40 CA         77.9200   58.4600   66.8400 C.3       6 GLY6        0.0000 
     41 CA         78.0700   56.8200   68.8500 C.3       6 GLY6        0.0000 
     42 CA         78.8600   58.5900   67.9900 C.3       6 GLY6        0.0000 
     43 CA         78.6900   58.4100   70.1000 C.3       6 GLY6        0.0000 
     44 CA         79.0200   56.9500   70.0000 C.3       6 GLY6        0.0000 
     45 CA         79.3500   55.4900   69.9100 C.3       6 GLY6        0.0000 
     46 CA         79.1600   61.6500   69.3400 C.3       6 GLY6        0.0000 
     47 CA         79.8100   58.7300   69.1500 C.3       6 GLY6        0.0000 
     48 CA         80.1400   57.2700   69.0500 C.3       6 GLY6        0.0000 
     49 CA         80.4600   55.8000   68.9600 C.3       6 GLY6        0.0000 
     50 CA         78.9900   61.4700   71.4500 C.3       6 GLY6        0.0000 
     51 CA         79.3100   60.0100   71.3500 C.3       6 GLY6        0.0000 
     52 CA         79.6400   58.5500   71.2600 C.3       6 GLY6        0.0000 
     53 CA         79.9600   57.0900   71.1600 C.3       6 GLY6        0.0000 
     54 CA         80.2900   55.6300   71.0600 C.3       6 GLY6        0.0000 
     55 CA         80.1000   61.7800   70.5000 C.3       6 GLY6        0.0000 
     56 CA         80.1200   55.4500   73.1700 C.3       6 GLY6        0.0000 
     57 CA         79.9300   61.6000   72.6100 C.3       6 GLY6        0.0000 
     58 CA         80.2600   60.1400   72.5100 C.3       6 GLY6        0.0000 
     59 CA         80.5800   58.6800   72.4100 C.3       6 GLY6        0.0000 
     60 CA         80.9100   57.2200   72.3200 C.3       6 GLY6        0.0000 
     61 CA         81.2400   55.7600   72.2200 C.3       6 GLY6        0.0000 
     62 CA         81.3800   60.4600   71.5600 C.3       6 GLY6        0.0000 
     63 CA         83.6100   61.0800   69.6600 C.3       6 GLY6        0.0000 
     64 CA         81.8600   57.3600   73.4700 C.3       6 GLY6        0.0000 
     65 CA         82.0000   62.0500   72.8100 C.3       6 GLY6        0.0000 
     66 CA         82.7900   63.8300   71.9600 C.3       6 GLY6        0.0000 
     67 DU         77.7500   58.2800   68.9400 H         7 CUB7        0.0000 
     68 DU         80.4300   60.3200   70.4000 H         7 CUB7        0.0000 
     69 DU         80.7600   58.8600   70.3100 H         7 CUB7        0.0000 
     70 DU         81.0800   57.4000   70.2100 H         7 CUB7        0.0000 
@<TRIPOS>BOND
@<TRIPOS>SUBSTRUCTURE
     1 SER1        1 GROUP   
     2 ALA2        9 GROUP   
     3 ASP3       29 GROUP   
     4 LYS4       30 GROUP   
     5 PHE5       35 GROUP   
     6 GLY6       39 GROUP   
     7 CUB7       67 GROUP   
@<TRIPOS>SET

