#    Name: 6o2q_10_GTP
#    Modification time : Fri May 22 19:37:49 2020

@<TRIPOS>MOLECULE
6o2q_10_GTP
   32    34     1     0     1
SMALL
NO_CHARGES


@<TRIPOS>ATOM
      1 PG         26.0920   35.1870  136.9050 P.3       1 GTP501      0.0000 
      2 O1G        26.3580   36.5200  136.2530 O.co2     1 GTP501      0.0000 
      3 O2G        24.7320   34.6840  136.4910 O.co2     1 GTP501      0.0000 
      4 O3G        27.1630   34.2030  136.5110 O.co2     1 GTP501      0.0000 
      5 O3B        26.0890   35.4020  138.4920 O.3       1 GTP501      0.0000 
      6 PB         27.2910   34.8270  139.3800 P.3       1 GTP501      0.0000 
      7 O1B        27.3710   33.3280  139.2550 O.co2     1 GTP501      0.0000 
      8 O2B        27.0830   35.2570  140.8070 O.co2     1 GTP501      0.0000 
      9 O3A        28.6180   35.4770  138.7620 O.3       1 GTP501      0.0000 
     10 PA         29.9170   35.6660  139.6880 P.3       1 GTP501      0.0000 
     11 O1A        31.1460   35.4110  138.8590 O.co2     1 GTP501      0.0000 
     12 O2A        29.8920   34.7610  140.8920 O.co2     1 GTP501      0.0000 
     13 O5'        29.8770   37.2020  140.1440 O.3       1 GTP501      0.0000 
     14 C5'        30.8370   38.1100  139.6680 C.3       1 GTP501      0.0000 
     15 C4'        31.7810   38.4590  140.8040 C.3       1 GTP501      0.0000 
     16 O4'        32.2980   37.3000  141.4110 O.3       1 GTP501      0.0000 
     17 C3'        32.9930   39.2190  140.3190 C.3       1 GTP501      0.0000 
     18 O3'        32.8150   40.5910  140.5640 O.3       1 GTP501      0.0000 
     19 C2'        34.1470   38.7100  141.1440 C.3       1 GTP501      0.0000 
     20 O2'        34.6190   39.7490  141.9610 O.3       1 GTP501      0.0000 
     21 C1'        33.5340   37.6290  142.0050 C.3       1 GTP501      0.0000 
     22 N9         34.3860   36.4390  142.0880 N.pl3     1 GTP501      0.0000 
     23 C8         34.4590   35.4140  141.1970 C.2       1 GTP501      0.0000 
     24 N7         35.3470   34.5120  141.6650 N.2       1 GTP501      0.0000 
     25 C5         35.8260   34.9420  142.8460 C.2       1 GTP501      0.0000 
     26 C6         36.7410   34.4120  143.7380 C.2       1 GTP501      0.0000 
     27 O6         37.2860   33.3410  143.5070 O.2       1 GTP501      0.0000 
     28 N1         37.0410   35.0880  144.8920 N.am      1 GTP501      0.0000 
     29 C2         36.4280   36.2920  145.1460 C.2       1 GTP501      0.0000 
     30 N2         36.7080   36.9590  146.2580 N.pl3     1 GTP501      0.0000 
     31 N3         35.5200   36.8130  144.2560 N.2       1 GTP501      0.0000 
     32 C4         35.2230   36.1480  143.1230 C.2       1 GTP501      0.0000 
@<TRIPOS>BOND
     1    1    2 ar   
     2    1    3 ar   
     3    1    4 ar   
     4    1    5 1    
     5    5    6 1    
     6    6    7 ar   
     7    6    8 ar   
     8    6    9 1    
     9    9   10 1    
    10   10   11 ar   
    11   10   12 ar   
    12   10   13 1    
    13   13   14 1    
    14   14   15 1    
    15   15   16 1    
    16   15   17 1    
    17   16   21 1    
    18   17   18 1    
    19   17   19 1    
    20   19   20 1    
    21   19   21 1    
    22   21   22 1    
    23   22   23 1    
    24   22   32 1    
    25   23   24 2    
    26   24   25 1    
    27   25   26 1    
    28   25   32 2    
    29   26   27 2    
    30   26   28 am   
    31   28   29 1    
    32   29   30 1    
    33   29   31 2    
    34   31   32 1    
@<TRIPOS>SUBSTRUCTURE
     1 GTP501      1 GROUP   
@<TRIPOS>SET
ATOM$ORANGE STATIC     ATOMS   COLORGROUP SYSTEM 
20 14 14 15 15 17 17 19 19 21 21 23 23 25 25 26 26 29 \
29 32 32 

