#    Name: 6o2q_6_GDP
#    Modification time : Fri May 22 19:37:25 2020

@<TRIPOS>MOLECULE
6o2q_6_GDP
   28    30     1     0     1
SMALL
NO_CHARGES


@<TRIPOS>ATOM
      1 PB         26.9610   34.6300   98.5820 P.3       1 GDP501      0.0000 
      2 O1B        25.8760   34.9560   97.5910 O.co2     1 GDP501      0.0000 
      3 O2B        27.3700   33.1890   98.4160 O.co2     1 GDP501      0.0000 
      4 O3B        26.4580   34.8850   99.9780 O.co2     1 GDP501      0.0000 
      5 O3A        28.2270   35.5680   98.3090 O.3       1 GDP501      0.0000 
      6 PA         29.5550   35.3530   99.1800 P.3       1 GDP501      0.0000 
      7 O1A        30.6930   34.8740   98.3170 O.co2     1 GDP501      0.0000 
      8 O2A        29.3030   34.3820  100.3050 O.co2     1 GDP501      0.0000 
      9 O5'        29.8470   36.8260   99.7410 O.3       1 GDP501      0.0000 
     10 C5'        30.9120   37.5880   99.1920 C.3       1 GDP501      0.0000 
     11 C4'        31.6390   38.2730  100.3290 C.3       1 GDP501      0.0000 
     12 O4'        32.1760   37.2520  101.1560 O.3       1 GDP501      0.0000 
     13 C3'        32.8050   39.0940   99.8230 C.3       1 GDP501      0.0000 
     14 O3'        32.6020   40.4570  100.1860 O.3       1 GDP501      0.0000 
     15 C2'        34.0260   38.5660  100.5360 C.3       1 GDP501      0.0000 
     16 O2'        34.6680   39.6410  101.2150 O.3       1 GDP501      0.0000 
     17 C1'        33.4990   37.5810  101.5520 C.3       1 GDP501      0.0000 
     18 N9         34.3060   36.3520  101.5540 N.pl3     1 GDP501      0.0000 
     19 C8         34.3040   35.4000  100.6150 C.2       1 GDP501      0.0000 
     20 N7         35.1580   34.4000  100.9430 N.2       1 GDP501      0.0000 
     21 C5         35.7110   34.7150  102.1190 C.2       1 GDP501      0.0000 
     22 C6         36.6900   34.1110  103.0380 C.2       1 GDP501      0.0000 
     23 O6         37.2240   33.0180  102.7800 O.2       1 GDP501      0.0000 
     24 N1         36.9890   34.7680  104.1550 N.am      1 GDP501      0.0000 
     25 C2         36.4300   35.9440  104.4670 C.2       1 GDP501      0.0000 
     26 N2         36.7860   36.5490  105.6220 N.pl3     1 GDP501      0.0000 
     27 N3         35.5280   36.5590  103.6740 N.2       1 GDP501      0.0000 
     28 C4         35.1460   36.0020  102.5110 C.2       1 GDP501      0.0000 
@<TRIPOS>BOND
     1    1    2 ar   
     2    1    3 ar   
     3    1    4 ar   
     4    1    5 1    
     5    5    6 1    
     6    6    7 ar   
     7    6    8 ar   
     8    6    9 1    
     9    9   10 1    
    10   10   11 1    
    11   11   12 1    
    12   11   13 1    
    13   12   17 1    
    14   13   14 1    
    15   13   15 1    
    16   15   16 1    
    17   15   17 1    
    18   17   18 1    
    19   18   19 1    
    20   18   28 1    
    21   19   20 2    
    22   20   21 1    
    23   21   22 1    
    24   21   28 2    
    25   22   23 2    
    26   22   24 am   
    27   24   25 1    
    28   25   26 1    
    29   25   27 2    
    30   27   28 1    
@<TRIPOS>SUBSTRUCTURE
     1 GDP501      1 GROUP   
@<TRIPOS>SET
ATOM$ORANGE STATIC     ATOMS   COLORGROUP SYSTEM 
20 10 10 11 11 13 13 15 15 17 17 19 19 21 21 22 22 25 \
25 28 28 

