#    Name: 6dc9_1_THR_PRO_ARG_HIS_LEU_SEP
#    Modification time : Fri May 22 19:23:32 2020

@<TRIPOS>MOLECULE
6dc9_1_THR_PRO_ARG_HIS_LEU_SEP
   53    54     6     0     0
SMALL
NO_CHARGES


@<TRIPOS>ATOM
      1 N        -115.4980  -21.1630  -35.6210 N.4       1 THR403      0.0000 
      2 CA       -114.5470  -20.1630  -35.1510 C.3       1 THR403      0.0000 
      3 C        -113.1090  -20.6650  -35.3050 C.2       1 THR403      0.0000 
      4 O        -112.8420  -21.8630  -35.1920 O.2       1 THR403      0.0000 
      5 CB       -114.8160  -19.7780  -33.6760 C.3       1 THR403      0.0000 
      6 OG1      -113.8960  -18.7580  -33.2640 O.3       1 THR403      0.0000 
      7 CG2      -114.6780  -20.9890  -32.7620 C.3       1 THR403      0.0000 
      8 N        -108.6920  -20.1640  -34.5280 N.am      2 PRO405      0.0000 
      9 CA       -107.7450  -19.6990  -33.5050 C.3       2 PRO405      0.0000 
     10 C        -107.3720  -18.2250  -33.6640 C.2       2 PRO405      0.0000 
     11 O        -107.4990  -17.6690  -34.7560 O.2       2 PRO405      0.0000 
     12 CB       -106.5230  -20.5940  -33.7250 C.3       2 PRO405      0.0000 
     13 CG       -107.0710  -21.8260  -34.3370 C.3       2 PRO405      0.0000 
     14 CD       -108.2060  -21.3770  -35.2090 C.3       2 PRO405      0.0000 
     15 N        -106.9120  -17.6030  -32.5760 N.am      3 ARG406      0.0000 
     16 CA       -106.6410  -16.1700  -32.5590 C.3       3 ARG406      0.0000 
     17 C        -105.1830  -15.8540  -32.2440 C.2       3 ARG406      0.0000 
     18 O        -104.8700  -14.7290  -31.8420 O.2       3 ARG406      0.0000 
     19 CB       -107.5620  -15.4680  -31.5600 C.3       3 ARG406      0.0000 
     20 CG       -109.0450  -15.7150  -31.7880 C.3       3 ARG406      0.0000 
     21 CD       -109.8570  -14.9390  -30.7760 C.3       3 ARG406      0.0000 
     22 NE       -111.2650  -15.3230  -30.7330 N.pl3     3 ARG406      0.0000 
     23 CZ       -112.2580  -14.5760  -31.2040 C.cat     3 ARG406      0.0000 
     24 NH1      -111.9990  -13.4000  -31.7610 N.pl3     3 ARG406      0.0000 
     25 NH2      -113.5110  -15.0000  -31.1150 N.pl3     3 ARG406      0.0000 
     26 N        -104.2810  -16.8180  -32.4160 N.am      4 HIS407      0.0000 
     27 CA       -102.8580  -16.5700  -32.2480 C.3       4 HIS407      0.0000 
     28 C        -102.0850  -17.4120  -33.2530 C.2       4 HIS407      0.0000 
     29 O        -102.6230  -18.3330  -33.8720 O.2       4 HIS407      0.0000 
     30 CB       -102.3920  -16.8590  -30.8140 C.3       4 HIS407      0.0000 
     31 CG       -102.4280  -18.3070  -30.4380 C.2       4 HIS407      0.0000 
     32 ND1      -103.4890  -18.8750  -29.7660 N.pl3     4 HIS407      0.0000 
     33 CD2      -101.5260  -19.3000  -30.6260 C.2       4 HIS407      0.0000 
     34 CE1      -103.2430  -20.1580  -29.5640 C.2       4 HIS407      0.0000 
     35 NE2      -102.0590  -20.4410  -30.0750 N.2       4 HIS407      0.0000 
     36 N        -100.8100  -17.0810  -33.4130 N.am      5 LEU408      0.0000 
     37 CA        -99.9600  -17.7650  -34.3780 C.3       5 LEU408      0.0000 
     38 C         -99.1670  -18.8900  -33.7240 C.2       5 LEU408      0.0000 
     39 O         -98.1330  -18.6540  -33.1010 O.2       5 LEU408      0.0000 
     40 CB        -99.0100  -16.7690  -35.0470 C.3       5 LEU408      0.0000 
     41 CG        -99.4950  -15.9990  -36.2820 C.3       5 LEU408      0.0000 
     42 CD1      -100.9830  -16.1960  -36.5350 C.3       5 LEU408      0.0000 
     43 CD2       -99.1630  -14.5180  -36.1590 C.3       5 LEU408      0.0000 
     44 N        -112.1910  -19.7410  -35.5730 N.am      6 SEP404      0.0000 
     45 CA       -110.7890  -20.0800  -35.8110 C.3       6 SEP404      0.0000 
     46 CB       -110.3320  -19.5000  -37.1540 C.3       6 SEP404      0.0000 
     47 OG       -110.7120  -18.1410  -37.2800 O.3       6 SEP404      0.0000 
     48 C        -109.8940  -19.5740  -34.6780 C.2       6 SEP404      0.0000 
     49 O        -110.2870  -18.6710  -33.9400 O.2       6 SEP404      0.0000 
     50 P        -110.2200  -17.5650  -38.7010 P.3       6 SEP404      0.0000 
     51 O1P      -108.6110  -17.4980  -38.7040 O.co2     6 SEP404      0.0000 
     52 O2P      -110.7290  -18.5350  -39.8800 O.co2     6 SEP404      0.0000 
     53 O3P      -110.8280  -16.0930  -38.9290 O.co2     6 SEP404      0.0000 
@<TRIPOS>BOND
     1    1    2 1    
     2    2    3 1    
     3    2    5 1    
     4    3    4 2    
     5    3   44 du   
     6    5    6 1    
     7    5    7 1    
     8    8    9 1    
     9    8   14 1    
    10    8   48 am   
    11    9   10 1    
    12    9   12 1    
    13   10   11 2    
    14   10   15 am   
    15   12   13 1    
    16   13   14 1    
    17   15   16 1    
    18   16   17 1    
    19   16   19 1    
    20   17   18 2    
    21   17   26 am   
    22   19   20 1    
    23   20   21 1    
    24   21   22 1    
    25   22   23 ar   
    26   23   24 ar   
    27   23   25 ar   
    28   26   27 1    
    29   27   28 1    
    30   27   30 1    
    31   28   29 2    
    32   28   36 am   
    33   30   31 1    
    34   31   32 1    
    35   31   33 2    
    36   32   34 1    
    37   33   35 1    
    38   34   35 2    
    39   36   37 1    
    40   37   38 1    
    41   37   40 1    
    42   38   39 2    
    43   40   41 1    
    44   41   42 1    
    45   41   43 1    
    46   44   45 1    
    47   45   46 1    
    48   45   48 1    
    49   46   47 1    
    50   47   50 1    
    51   48   49 2    
    52   50   51 ar   
    53   50   52 ar   
    54   50   53 ar   
@<TRIPOS>SUBSTRUCTURE
     1 THR403      1 RESIDUE 
     2 PRO405      8 RESIDUE 
     3 ARG406     15 RESIDUE 
     4 HIS407     26 RESIDUE 
     5 LEU408     36 RESIDUE 
     6 SEP404     44 RESIDUE 
@<TRIPOS>SET

