#    Name: 6dc9_2_THR_PRO_ARG_HIS_LEU_SEP_CAVITY_N1_ALL
#    Modification time : Fri May 22 19:23:37 2020

@<TRIPOS>MOLECULE
6dc9_2_THR_PRO_ARG_HIS_LEU_SEP_CAVITY_N1_ALL
   82     0     6     0     0
SMALL
NO_CHARGES


@<TRIPOS>ATOM
      1 OG        -67.3000  -11.2200  -88.3500 O.3       1 SER1        0.0000 
      2 OG        -66.5600  -10.0400  -88.9100 O.3       1 SER1        0.0000 
      3 OG        -65.4900  -10.9600  -89.4100 O.3       1 SER1        0.0000 
      4 OG        -64.7500   -9.7800  -89.9800 O.3       1 SER1        0.0000 
      5 OG        -63.6700  -10.7000  -90.4800 O.3       1 SER1        0.0000 
      6 OG        -64.0100   -8.6100  -90.5400 O.3       1 SER1        0.0000 
      7 OG        -68.3800  -11.3200  -85.9800 O.3       1 SER1        0.0000 
      8 OG        -66.5600  -11.0600  -87.0500 O.3       1 SER1        0.0000 
      9 OG        -68.7200  -10.2400  -84.1900 O.3       1 SER1        0.0000 
     10 OG        -67.9800   -9.0700  -84.7500 O.3       1 SER1        0.0000 
     11 OG        -69.0600   -9.1700  -82.3900 O.3       1 SER1        0.0000 
     12 OG        -67.9800  -10.0800  -82.8900 O.3       1 SER1        0.0000 
     13 OG        -65.0900  -10.7400  -84.4600 O.3       1 SER1        0.0000 
     14 N         -68.0400  -12.3900  -87.7800 N.am      2 ALA2        0.0000 
     15 N         -66.9700  -13.3100  -88.2800 N.am      2 ALA2        0.0000 
     16 N         -65.8900  -14.2300  -88.7800 N.am      2 ALA2        0.0000 
     17 N         -66.2300  -12.1400  -88.8500 N.am      2 ALA2        0.0000 
     18 N         -65.4900  -11.9800  -87.5500 N.am      2 ALA2        0.0000 
     19 N         -64.4100  -12.8900  -88.0500 N.am      2 ALA2        0.0000 
     20 N         -66.9000   -8.9700  -87.1200 N.am      2 ALA2        0.0000 
     21 N         -65.8200   -9.8800  -87.6200 N.am      2 ALA2        0.0000 
     22 O         -65.0900   -8.7100  -88.1800 O.2       2 ALA2        0.0000 
     23 O         -63.2700   -8.4500  -89.2500 O.2       2 ALA2        0.0000 
     24 N         -67.6400  -11.1600  -84.6900 N.am      2 ALA2        0.0000 
     25 O         -66.5700  -12.0800  -85.1900 O.2       2 ALA2        0.0000 
     26 O         -64.7500  -11.8200  -86.2600 O.2       2 ALA2        0.0000 
     27 O         -63.6700  -12.7400  -86.7600 O.2       2 ALA2        0.0000 
     28 N         -60.7200   -8.0300  -89.0200 N.am      2 ALA2        0.0000 
     29 N         -58.9000   -7.7700  -90.0800 N.am      2 ALA2        0.0000 
     30 N         -66.9000  -11.0000  -83.3900 N.am      2 ALA2        0.0000 
     31 O         -62.9400  -12.5800  -85.4600 O.2       2 ALA2        0.0000 
     32 N         -59.9800   -7.8700  -87.7200 N.am      2 ALA2        0.0000 
     33 NZ        -63.6700   -9.6800  -92.3400 N.4       3 LYS4        0.0000 
     34 NZ        -62.2600  -13.7100  -90.9100 N.4       3 LYS4        0.0000 
     35 NZ        -62.5900  -11.6200  -90.9800 N.4       3 LYS4        0.0000 
     36 NZ        -62.9300   -9.5200  -91.0400 N.4       3 LYS4        0.0000 
     37 NZ        -61.8600  -11.4600  -89.6800 N.4       3 LYS4        0.0000 
     38 CZ        -64.0700  -13.9700  -89.8500 C.ar      4 PHE5        0.0000 
     39 CZ        -63.3300  -12.7900  -90.4100 C.ar      4 PHE5        0.0000 
     40 CZ        -61.1200  -10.2800  -90.2500 C.ar      4 PHE5        0.0000 
     41 CZ        -60.0400  -11.2000  -90.7500 C.ar      4 PHE5        0.0000 
     42 CZ        -60.3800   -9.1100  -90.8100 C.ar      4 PHE5        0.0000 
     43 CZ        -69.7900   -9.3300  -83.6900 C.ar      4 PHE5        0.0000 
     44 CZ        -70.1300   -7.2300  -83.7500 C.ar      4 PHE5        0.0000 
     45 CZ        -69.0500   -8.1500  -84.2500 C.ar      4 PHE5        0.0000 
     46 CZ        -66.9000   -9.9800  -85.2500 C.ar      4 PHE5        0.0000 
     47 CZ        -68.3100   -6.9700  -84.8200 C.ar      4 PHE5        0.0000 
     48 CZ        -67.2400   -7.8900  -85.3200 C.ar      4 PHE5        0.0000 
     49 CZ        -65.0900   -9.7200  -86.3200 C.ar      4 PHE5        0.0000 
     50 CZ        -64.0100  -10.6400  -86.8200 C.ar      4 PHE5        0.0000 
     51 CZ        -63.2700   -9.4700  -87.3900 C.ar      4 PHE5        0.0000 
     52 CZ        -62.5300   -8.2900  -87.9500 C.ar      4 PHE5        0.0000 
     53 CZ        -61.4600   -9.2100  -88.4500 C.ar      4 PHE5        0.0000 
     54 CZ        -59.6400   -8.9500  -89.5200 C.ar      4 PHE5        0.0000 
     55 CZ        -67.2400   -8.9100  -83.4600 C.ar      4 PHE5        0.0000 
     56 CZ        -66.1600   -9.8200  -83.9600 C.ar      4 PHE5        0.0000 
     57 CZ        -63.2700  -10.4800  -85.5200 C.ar      4 PHE5        0.0000 
     58 CZ        -61.4600  -10.2200  -86.5900 C.ar      4 PHE5        0.0000 
     59 CZ        -60.7200   -9.0500  -87.1600 C.ar      4 PHE5        0.0000 
     60 CZ        -59.9800   -8.8900  -85.8600 C.ar      4 PHE5        0.0000 
     61 CA        -66.9600  -12.2900  -90.1400 C.3       5 GLY6        0.0000 
     62 CA        -64.4100  -10.8600  -91.7700 C.3       5 GLY6        0.0000 
     63 CA        -65.1500  -13.0500  -89.3500 C.3       5 GLY6        0.0000 
     64 CA        -64.4100  -11.8800  -89.9100 C.3       5 GLY6        0.0000 
     65 CA        -62.1900   -8.3500  -91.6100 C.3       5 GLY6        0.0000 
     66 CA        -64.0800  -14.9900  -87.9900 C.3       5 GLY6        0.0000 
     67 CA        -62.5300   -7.2700  -89.8100 C.3       5 GLY6        0.0000 
     68 CA        -61.4500   -8.1900  -90.3100 C.3       5 GLY6        0.0000 
     69 CA        -65.8300  -10.9000  -85.7500 C.3       5 GLY6        0.0000 
     70 CA        -61.7900   -7.1100  -88.5200 C.3       5 GLY6        0.0000 
     71 CA        -69.3900   -7.0700  -82.4600 C.3       5 GLY6        0.0000 
     72 CA        -68.3200   -7.9900  -82.9600 C.3       5 GLY6        0.0000 
     73 DU        -63.3400  -13.8100  -88.5500 H         6 CUB7        0.0000 
     74 DU        -64.7500  -10.8000  -88.1200 H         6 CUB7        0.0000 
     75 DU        -63.6700  -11.7200  -88.6200 H         6 CUB7        0.0000 
     76 DU        -62.6000  -12.6400  -89.1200 H         6 CUB7        0.0000 
     77 DU        -64.0100   -9.6200  -88.6800 H         6 CUB7        0.0000 
     78 DU        -62.9300  -10.5400  -89.1800 H         6 CUB7        0.0000 
     79 DU        -62.1900   -9.3700  -89.7500 H         6 CUB7        0.0000 
     80 DU        -62.9300  -11.5600  -87.3200 H         6 CUB7        0.0000 
     81 DU        -62.1900  -10.3800  -87.8900 H         6 CUB7        0.0000 
     82 DU        -60.3800  -10.1200  -88.9500 H         6 CUB7        0.0000 
@<TRIPOS>BOND
@<TRIPOS>SUBSTRUCTURE
     1 SER1        1 GROUP   
     2 ALA2       14 GROUP   
     3 LYS4       33 GROUP   
     4 PHE5       38 GROUP   
     5 GLY6       61 GROUP   
     6 CUB7       73 GROUP   
@<TRIPOS>SET

