#    Name: 6dc9_1_THR_PRO_ARG_HIS_LEU_SEP_CAVITY_N1_8
#    Modification time : Fri May 22 19:23:33 2020

@<TRIPOS>MOLECULE
6dc9_1_THR_PRO_ARG_HIS_LEU_SEP_CAVITY_N1_8
  102     0     5     0     0
SMALL
NO_CHARGES


@<TRIPOS>ATOM
      1 OG       -104.5100  -17.7000  -35.1100 O.3       1 SER1        0.0000 
      2 OG       -102.7000  -17.4400  -36.1700 O.3       1 SER1        0.0000 
      3 OG       -101.2200  -15.0900  -37.3000 O.3       1 SER1        0.0000 
      4 OG       -100.1500  -17.0300  -35.9400 O.3       1 SER1        0.0000 
      5 OG        -99.0700  -17.9400  -36.4400 O.3       1 SER1        0.0000 
      6 OG        -99.4100  -15.8500  -36.5100 O.3       1 SER1        0.0000 
      7 OG       -102.3000  -16.2100  -33.0800 O.3       1 SER1        0.0000 
      8 OG       -101.2200  -17.1300  -33.5800 O.3       1 SER1        0.0000 
      9 OG       -100.1500  -18.0400  -34.0800 O.3       1 SER1        0.0000 
     10 OG       -100.4800  -15.9500  -34.1400 O.3       1 SER1        0.0000 
     11 OG        -99.4100  -16.8700  -34.6400 O.3       1 SER1        0.0000 
     12 OG        -99.7400  -14.7700  -34.7100 O.3       1 SER1        0.0000 
     13 OG       -105.1900  -16.5700  -29.6500 O.3       1 SER1        0.0000 
     14 OG       -104.1200  -17.4800  -30.1500 O.3       1 SER1        0.0000 
     15 OG       -104.4500  -15.3900  -30.2200 O.3       1 SER1        0.0000 
     16 OG       -103.3800  -16.3100  -30.7200 O.3       1 SER1        0.0000 
     17 OG       -102.3000  -17.2300  -31.2200 O.3       1 SER1        0.0000 
     18 OG       -101.2200  -18.1400  -31.7200 O.3       1 SER1        0.0000 
     19 OG       -103.7100  -14.2100  -30.7800 O.3       1 SER1        0.0000 
     20 OG       -101.5600  -16.0500  -31.7800 O.3       1 SER1        0.0000 
     21 OG       -104.4500  -16.4100  -28.3500 O.3       1 SER1        0.0000 
     22 OG       -104.7900  -14.3100  -28.4200 O.3       1 SER1        0.0000 
     23 OG       -101.5600  -17.0700  -29.9200 O.3       1 SER1        0.0000 
     24 N        -109.5600  -15.2100  -32.5400 N.am      2 ALA2        0.0000 
     25 N        -101.6200  -18.3600  -36.6700 N.am      2 ALA2        0.0000 
     26 O        -105.2600  -19.9000  -32.6800 O.2       2 ALA2        0.0000 
     27 N        -108.8200  -15.0500  -31.2400 N.am      2 ALA2        0.0000 
     28 O        -104.5200  -18.7200  -33.2400 O.2       2 ALA2        0.0000 
     29 N        -107.0100  -14.7900  -32.3100 N.am      2 ALA2        0.0000 
     30 N        -101.6200  -19.3800  -34.8100 N.am      2 ALA2        0.0000 
     31 N        -100.8800  -18.2000  -35.3800 N.am      2 ALA2        0.0000 
     32 O        -104.5200  -19.7400  -31.3800 O.2       2 ALA2        0.0000 
     33 O        -103.7800  -18.5600  -31.9500 O.2       2 ALA2        0.0000 
     34 O        -102.7000  -19.4800  -32.4500 O.2       2 ALA2        0.0000 
     35 N        -101.9600  -18.3000  -33.0100 N.am      2 ALA2        0.0000 
     36 N        -100.8900  -19.2200  -33.5100 N.am      2 ALA2        0.0000 
     37 O        -104.4500  -14.3700  -32.0800 O.2       2 ALA2        0.0000 
     38 O        -103.3700  -15.2900  -32.5800 O.2       2 ALA2        0.0000 
     39 N         -99.0700  -18.9600  -34.5800 N.am      2 ALA2        0.0000 
     40 N        -101.5600  -15.0300  -33.6400 N.am      2 ALA2        0.0000 
     41 O         -98.3300  -17.7800  -35.1500 O.2       2 ALA2        0.0000 
     42 O        -103.4400  -21.6700  -30.0200 O.2       2 ALA2        0.0000 
     43 N        -102.7000  -20.4900  -30.5900 N.am      2 ALA2        0.0000 
     44 N        -101.9600  -19.3200  -31.1500 N.am      2 ALA2        0.0000 
     45 N        -100.1500  -19.0600  -32.2200 N.am      2 ALA2        0.0000 
     46 O        -104.7900  -13.3000  -30.2800 O.2       2 ALA2        0.0000 
     47 N        -102.6400  -15.1300  -31.2800 N.am      2 ALA2        0.0000 
     48 O         -98.3300  -18.8000  -33.2800 O.2       2 ALA2        0.0000 
     49 O        -101.9600  -20.3400  -29.2900 O.2       2 ALA2        0.0000 
     50 O        -105.5300  -15.4900  -27.8500 O.2       2 ALA2        0.0000 
     51 CZ       -106.3300  -17.9600  -34.0400 C.ar      3 PHE5        0.0000 
     52 CZ       -107.7400  -14.9500  -33.6000 C.ar      3 PHE5        0.0000 
     53 CZ       -101.9600  -16.2700  -36.7400 C.ar      3 PHE5        0.0000 
     54 CZ       -100.8800  -17.1800  -37.2400 C.ar      3 PHE5        0.0000 
     55 CZ       -100.4800  -13.9100  -37.8700 C.ar      3 PHE5        0.0000 
     56 CZ       -105.5900  -17.8000  -32.7400 C.ar      3 PHE5        0.0000 
     57 CZ       -105.9300  -15.7100  -32.8100 C.ar      3 PHE5        0.0000 
     58 CZ       -104.8500  -16.6300  -33.3100 C.ar      3 PHE5        0.0000 
     59 CZ       -103.7800  -17.5400  -33.8100 C.ar      3 PHE5        0.0000 
     60 CZ       -103.0400  -16.3700  -34.3700 C.ar      3 PHE5        0.0000 
     61 CZ       -101.9600  -17.2800  -34.8700 C.ar      3 PHE5        0.0000 
     62 CZ       -101.2200  -16.1100  -35.4400 C.ar      3 PHE5        0.0000 
     63 CZ       -100.4800  -14.9300  -36.0100 C.ar      3 PHE5        0.0000 
     64 CZ       -100.8200  -12.8400  -36.0700 C.ar      3 PHE5        0.0000 
     65 CZ        -99.7400  -13.7600  -36.5700 C.ar      3 PHE5        0.0000 
     66 CZ       -108.4900  -18.1600  -29.3100 C.ar      3 PHE5        0.0000 
     67 CZ       -107.7500  -16.9800  -29.8800 C.ar      3 PHE5        0.0000 
     68 CZ        -98.6700  -15.6900  -35.2100 C.ar      3 PHE5        0.0000 
     69 CZ       -104.5200  -20.7500  -29.5200 C.ar      3 PHE5        0.0000 
     70 CZ       -107.0100  -16.8300  -28.5800 C.ar      3 PHE5        0.0000 
     71 CZ       -104.8600  -18.6600  -29.5900 C.ar      3 PHE5        0.0000 
     72 CZ       -103.7800  -19.5800  -30.0900 C.ar      3 PHE5        0.0000 
     73 CZ       -107.3400  -14.7300  -28.6500 C.ar      3 PHE5        0.0000 
     74 CZ       -106.2700  -15.6500  -29.1500 C.ar      3 PHE5        0.0000 
     75 CZ       -103.0400  -19.4200  -28.7900 C.ar      3 PHE5        0.0000 
     76 CA       -105.2500  -18.8800  -34.5400 C.3       4 GLY6        0.0000 
     77 CA       -100.1400  -16.0100  -37.8000 C.3       4 GLY6        0.0000 
     78 CA       -102.7000  -18.4600  -34.3100 C.3       4 GLY6        0.0000 
     79 CA        -98.6700  -14.6700  -37.0700 C.3       4 GLY6        0.0000 
     80 CA       -105.2600  -20.9100  -30.8200 C.3       4 GLY6        0.0000 
     81 CA       -104.1800  -21.8300  -31.3200 C.3       4 GLY6        0.0000 
     82 CA       -103.4400  -20.6500  -31.8800 C.3       4 GLY6        0.0000 
     83 CA       -108.0800  -14.8900  -29.9500 C.3       4 GLY6        0.0000 
     84 CA       -107.3400  -13.7200  -30.5100 C.3       4 GLY6        0.0000 
     85 CA       -106.2700  -14.6300  -31.0100 C.3       4 GLY6        0.0000 
     86 CA       -105.9300  -17.7400  -29.0800 C.3       4 GLY6        0.0000 
     87 CA       -105.5300  -14.4700  -29.7200 C.3       4 GLY6        0.0000 
     88 CA       -105.1900  -17.5800  -27.7900 C.3       4 GLY6        0.0000 
     89 CA       -103.3800  -17.3300  -28.8500 C.3       4 GLY6        0.0000 
     90 CA       -102.3000  -18.2400  -29.3600 C.3       4 GLY6        0.0000 
     91 CA       -101.2300  -19.1600  -29.8600 C.3       4 GLY6        0.0000 
     92 CA       -100.4900  -17.9800  -30.4200 C.3       4 GLY6        0.0000 
     93 DU       -106.3300  -18.9800  -32.1800 H         5 CUB7        0.0000 
     94 DU       -107.7400  -15.9700  -31.7400 H         5 CUB7        0.0000 
     95 DU       -106.6700  -16.8800  -32.2400 H         5 CUB7        0.0000 
     96 DU       -106.6700  -17.9000  -30.3800 H         5 CUB7        0.0000 
     97 DU       -107.0100  -15.8100  -30.4500 H         5 CUB7        0.0000 
     98 DU       -104.8500  -17.6400  -31.4500 H         5 CUB7        0.0000 
     99 DU       -105.1900  -15.5500  -31.5100 H         5 CUB7        0.0000 
    100 DU       -104.1100  -16.4700  -32.0100 H         5 CUB7        0.0000 
    101 DU       -103.0400  -17.3800  -32.5100 H         5 CUB7        0.0000 
    102 DU       -103.0400  -18.4000  -30.6500 H         5 CUB7        0.0000 
@<TRIPOS>BOND
@<TRIPOS>SUBSTRUCTURE
     1 SER1        1 GROUP   
     2 ALA2       24 GROUP   
     3 PHE5       51 GROUP   
     4 GLY6       76 GROUP   
     5 CUB7       93 GROUP   
@<TRIPOS>SET

