#    Name: 6dc9_2_THR_PRO_ARG_HIS_LEU_SEP
#    Modification time : Fri May 22 19:23:35 2020

@<TRIPOS>MOLECULE
6dc9_2_THR_PRO_ARG_HIS_LEU_SEP
   53    54     6     0     0
SMALL
NO_CHARGES


@<TRIPOS>ATOM
      1 N         -53.3150  -14.0950  -84.4110 N.4       1 THR403      0.0000 
      2 CA        -54.1150  -12.9180  -84.0940 C.3       1 THR403      0.0000 
      3 C         -55.6080  -13.2310  -84.1620 C.2       1 THR403      0.0000 
      4 O         -56.0160  -14.2510  -84.7180 O.2       1 THR403      0.0000 
      5 CB        -53.7980  -11.7460  -85.0460 C.3       1 THR403      0.0000 
      6 OG1       -54.5740  -10.5990  -84.6760 O.3       1 THR403      0.0000 
      7 CG2       -54.1130  -12.1260  -86.4850 C.3       1 THR403      0.0000 
      8 N         -59.6480  -12.8330  -85.1910 N.am      2 PRO405      0.0000 
      9 CA        -60.4100  -12.5670  -86.4180 C.3       2 PRO405      0.0000 
     10 C         -60.9920  -11.1530  -86.4760 C.2       2 PRO405      0.0000 
     11 O         -60.9720  -10.4360  -85.4760 O.2       2 PRO405      0.0000 
     12 CB        -61.5280  -13.6170  -86.3750 C.3       2 PRO405      0.0000 
     13 CG        -61.5980  -14.0620  -84.9600 C.3       2 PRO405      0.0000 
     14 CD        -60.2100  -13.9610  -84.4290 C.3       2 PRO405      0.0000 
     15 N         -61.5120  -10.7650  -87.6420 N.am      3 ARG406      0.0000 
     16 CA        -61.9980   -9.4100  -87.8760 C.3       3 ARG406      0.0000 
     17 C         -63.5020   -9.3730  -88.1350 C.2       3 ARG406      0.0000 
     18 O         -63.9900   -8.5100  -88.8680 O.2       3 ARG406      0.0000 
     19 CB        -61.2510   -8.7600  -89.0410 C.3       3 ARG406      0.0000 
     20 CG        -59.7430   -8.6920  -88.8770 C.3       3 ARG406      0.0000 
     21 CD        -59.1160   -8.0700  -90.1130 C.3       3 ARG406      0.0000 
     22 NE        -57.6590   -8.1580  -90.1180 N.pl3     3 ARG406      0.0000 
     23 CZ        -56.8500   -7.1730  -89.7420 C.cat     3 ARG406      0.0000 
     24 NH1       -57.3540   -6.0190  -89.3280 N.pl3     3 ARG406      0.0000 
     25 NH2       -55.5360   -7.3420  -89.7810 N.pl3     3 ARG406      0.0000 
     26 N         -64.2510  -10.3010  -87.5430 N.am      4 HIS407      0.0000 
     27 CA        -65.7030  -10.2750  -87.6480 C.3       4 HIS407      0.0000 
     28 C         -66.2920  -11.0480  -86.4790 C.2       4 HIS407      0.0000 
     29 O         -65.6080  -11.8390  -85.8250 O.2       4 HIS407      0.0000 
     30 CB        -66.1900  -10.8490  -88.9860 C.3       4 HIS407      0.0000 
     31 CG        -65.8110  -12.2800  -89.2130 C.2       4 HIS407      0.0000 
     32 ND1       -64.5860  -12.6540  -89.7210 N.pl3     4 HIS407      0.0000 
     33 CD2       -66.5020  -13.4270  -89.0140 C.2       4 HIS407      0.0000 
     34 CE1       -64.5350  -13.9710  -89.8170 C.2       4 HIS407      0.0000 
     35 NE2       -65.6850  -14.4640  -89.3940 N.2       4 HIS407      0.0000 
     36 N         -67.5700  -10.7990  -86.2190 N.am      5 LEU408      0.0000 
     37 CA        -68.2670  -11.4590  -85.1220 C.3       5 LEU408      0.0000 
     38 C         -68.8990  -12.7670  -85.5840 C.2       5 LEU408      0.0000 
     39 O         -69.9520  -13.1670  -85.0890 O.2       5 LEU408      0.0000 
     40 CB        -69.3390  -10.5390  -84.5280 C.3       5 LEU408      0.0000 
     41 CG        -68.8840   -9.2830  -83.7760 C.3       5 LEU408      0.0000 
     42 CD1       -67.6610   -9.5780  -82.9180 C.3       5 LEU408      0.0000 
     43 CD2       -68.6260   -8.1150  -84.7220 C.3       5 LEU408      0.0000 
     44 N         -56.4140  -12.3430  -83.5920 N.am      6 SEP404      0.0000 
     45 CA        -57.8610  -12.5210  -83.5430 C.3       6 SEP404      0.0000 
     46 CB        -58.4530  -11.6710  -82.4170 C.3       6 SEP404      0.0000 
     47 OG        -58.0860  -10.3130  -82.5750 O.3       6 SEP404      0.0000 
     48 C         -58.5250  -12.1660  -84.8740 C.2       6 SEP404      0.0000 
     49 O         -58.0320  -11.3060  -85.6070 O.2       6 SEP404      0.0000 
     50 P         -58.6660   -9.4290  -81.3630 P.3       6 SEP404      0.0000 
     51 O1P       -57.9180   -9.8340  -79.9960 O.co2     6 SEP404      0.0000 
     52 O2P       -58.4100   -7.8710  -81.6800 O.co2     6 SEP404      0.0000 
     53 O3P       -60.2470   -9.7000  -81.2210 O.co2     6 SEP404      0.0000 
@<TRIPOS>BOND
     1    1    2 1    
     2    2    3 1    
     3    2    5 1    
     4    3    4 2    
     5    3   44 du   
     6    5    6 1    
     7    5    7 1    
     8    8    9 1    
     9    8   14 1    
    10    8   48 am   
    11    9   10 1    
    12    9   12 1    
    13   10   11 2    
    14   10   15 am   
    15   12   13 1    
    16   13   14 1    
    17   15   16 1    
    18   16   17 1    
    19   16   19 1    
    20   17   18 2    
    21   17   26 am   
    22   19   20 1    
    23   20   21 1    
    24   21   22 1    
    25   22   23 ar   
    26   23   24 ar   
    27   23   25 ar   
    28   26   27 1    
    29   27   28 1    
    30   27   30 1    
    31   28   29 2    
    32   28   36 am   
    33   30   31 1    
    34   31   32 1    
    35   31   33 2    
    36   32   34 1    
    37   33   35 1    
    38   34   35 2    
    39   36   37 1    
    40   37   38 1    
    41   37   40 1    
    42   38   39 2    
    43   40   41 1    
    44   41   42 1    
    45   41   43 1    
    46   44   45 1    
    47   45   46 1    
    48   45   48 1    
    49   46   47 1    
    50   47   50 1    
    51   48   49 2    
    52   50   51 ar   
    53   50   52 ar   
    54   50   53 ar   
@<TRIPOS>SUBSTRUCTURE
     1 THR403      1 RESIDUE 
     2 PRO405      8 RESIDUE 
     3 ARG406     15 RESIDUE 
     4 HIS407     26 RESIDUE 
     5 LEU408     36 RESIDUE 
     6 SEP404     44 RESIDUE 
@<TRIPOS>SET

