#    Name: 6avp_2_ADP
#    Modification time : Fri May 22 19:24:35 2020

@<TRIPOS>MOLECULE
6avp_2_ADP
   27    29     1     0     1
SMALL
NO_CHARGES


@<TRIPOS>ATOM
      1 PB         10.6600   13.8400   49.2840 P.3       1 ADP301      0.0000 
      2 O1B         9.2430   14.2060   48.9360 O.co2     1 ADP301      0.0000 
      3 O2B        10.8530   12.3380   49.4110 O.co2     1 ADP301      0.0000 
      4 O3B        11.1880   14.6930   50.4220 O.co2     1 ADP301      0.0000 
      5 PA         11.4800   13.9480   46.5310 P.3       1 ADP301      0.0000 
      6 O1A        12.4990   12.9440   46.0520 O.co2     1 ADP301      0.0000 
      7 O2A        10.0140   13.6850   46.2870 O.co2     1 ADP301      0.0000 
      8 O3A        11.6850   14.2720   48.1000 O.3       1 ADP301      0.0000 
      9 O5'        11.9970   15.3160   45.8520 O.3       1 ADP301      0.0000 
     10 C5'        11.4340   16.5900   46.1570 C.3       1 ADP301      0.0000 
     11 C4'        12.0520   17.6520   45.2580 C.3       1 ADP301      0.0000 
     12 O4'        11.7470   17.4150   43.8840 O.3       1 ADP301      0.0000 
     13 C3'        11.5160   19.0530   45.5470 C.3       1 ADP301      0.0000 
     14 O3'        12.1380   19.6630   46.6930 O.3       1 ADP301      0.0000 
     15 C2'        11.7270   19.7790   44.2160 C.3       1 ADP301      0.0000 
     16 O2'        13.0530   20.2940   44.0690 O.3       1 ADP301      0.0000 
     17 C1'        11.5250   18.6670   43.1910 C.3       1 ADP301      0.0000 
     18 N9         10.1670   18.5640   42.6080 N.pl3     1 ADP301      0.0000 
     19 C8          9.9000   17.7770   41.5560 C.2       1 ADP301      0.0000 
     20 N7          8.5880   17.8210   41.2350 N.2       1 ADP301      0.0000 
     21 C5          7.9780   18.6190   42.1080 C.ar      1 ADP301      0.0000 
     22 C6          6.5920   19.0740   42.3160 C.ar      1 ADP301      0.0000 
     23 N6          5.6030   18.6580   41.4990 N.pl3     1 ADP301      0.0000 
     24 N1          6.3590   19.9220   43.3410 N.ar      1 ADP301      0.0000 
     25 C2          7.3500   20.3360   44.1520 C.ar      1 ADP301      0.0000 
     26 N3          8.6320   19.9490   44.0040 N.ar      1 ADP301      0.0000 
     27 C4          9.0140   19.1120   43.0200 C.ar      1 ADP301      0.0000 
@<TRIPOS>BOND
     1    1    2 ar   
     2    1    3 ar   
     3    1    4 ar   
     4    1    8 1    
     5    5    6 ar   
     6    5    7 ar   
     7    5    8 1    
     8    5    9 1    
     9    9   10 1    
    10   10   11 1    
    11   11   12 1    
    12   11   13 1    
    13   12   17 1    
    14   13   14 1    
    15   13   15 1    
    16   15   16 1    
    17   15   17 1    
    18   17   18 1    
    19   18   19 1    
    20   18   27 1    
    21   19   20 2    
    22   20   21 1    
    23   21   22 ar   
    24   21   27 ar   
    25   22   23 1    
    26   22   24 ar   
    27   24   25 ar   
    28   25   26 ar   
    29   26   27 ar   
@<TRIPOS>SUBSTRUCTURE
     1 ADP301      1 GROUP   
@<TRIPOS>SET
ATOM$ORANGE STATIC     ATOMS   COLORGROUP SYSTEM 
20 10 10 11 11 13 13 15 15 17 17 19 19 21 21 22 22 25 \
25 27 27 

