#    Name: 6avp_3_ADP
#    Modification time : Fri May 22 19:24:41 2020

@<TRIPOS>MOLECULE
6avp_3_ADP
   27    29     1     0     1
SMALL
NO_CHARGES


@<TRIPOS>ATOM
      1 PB         22.7350  -19.7500    0.9190 P.3       1 ADP301      0.0000 
      2 O1B        23.4040  -18.8720   -0.1170 O.co2     1 ADP301      0.0000 
      3 O2B        22.9330  -19.3430    2.3760 O.co2     1 ADP301      0.0000 
      4 O3B        22.9270  -21.2330    0.7540 O.co2     1 ADP301      0.0000 
      5 PA         20.2890  -19.7250   -0.6560 P.3       1 ADP301      0.0000 
      6 O1A        20.2940  -18.4840   -1.5220 O.co2     1 ADP301      0.0000 
      7 O2A        20.7320  -21.0160   -1.2990 O.co2     1 ADP301      0.0000 
      8 O3A        21.1450  -19.4920    0.6970 O.3       1 ADP301      0.0000 
      9 O5'        18.8530  -19.9810    0.0280 O.3       1 ADP301      0.0000 
     10 C5'        18.7670  -21.0920    0.9210 C.3       1 ADP301      0.0000 
     11 C4'        17.4130  -21.1520    1.5970 C.3       1 ADP301      0.0000 
     12 O4'        16.4740  -21.5590    0.6180 O.3       1 ADP301      0.0000 
     13 C3'        17.3090  -22.1780    2.6950 C.3       1 ADP301      0.0000 
     14 O3'        17.6020  -21.6530    4.0000 O.3       1 ADP301      0.0000 
     15 C2'        15.8580  -22.5680    2.5890 C.3       1 ADP301      0.0000 
     16 O2'        15.0550  -21.5570    3.1690 O.3       1 ADP301      0.0000 
     17 C1'        15.5470  -22.5310    1.1180 C.3       1 ADP301      0.0000 
     18 N9         15.6430  -23.8350    0.3770 N.pl3     1 ADP301      0.0000 
     19 C8         15.2740  -23.9710   -0.9150 C.2       1 ADP301      0.0000 
     20 N7         15.4330  -25.2470   -1.3630 N.2       1 ADP301      0.0000 
     21 C5         15.9100  -25.9640   -0.3510 C.ar      1 ADP301      0.0000 
     22 C6         16.2960  -27.3790   -0.1490 C.ar      1 ADP301      0.0000 
     23 N6         16.2030  -28.2640   -1.1610 N.pl3     1 ADP301      0.0000 
     24 N1         16.7370  -27.7680    1.0720 N.ar      1 ADP301      0.0000 
     25 C2         16.8250  -26.8800    2.0760 C.ar      1 ADP301      0.0000 
     26 N3         16.5000  -25.5750    1.9490 N.ar      1 ADP301      0.0000 
     27 C4         16.0460  -25.0440    0.7930 C.ar      1 ADP301      0.0000 
@<TRIPOS>BOND
     1    1    2 ar   
     2    1    3 ar   
     3    1    4 ar   
     4    1    8 1    
     5    5    6 ar   
     6    5    7 ar   
     7    5    8 1    
     8    5    9 1    
     9    9   10 1    
    10   10   11 1    
    11   11   12 1    
    12   11   13 1    
    13   12   17 1    
    14   13   14 1    
    15   13   15 1    
    16   15   16 1    
    17   15   17 1    
    18   17   18 1    
    19   18   19 1    
    20   18   27 1    
    21   19   20 2    
    22   20   21 1    
    23   21   22 ar   
    24   21   27 ar   
    25   22   23 1    
    26   22   24 ar   
    27   24   25 ar   
    28   25   26 ar   
    29   26   27 ar   
@<TRIPOS>SUBSTRUCTURE
     1 ADP301      1 GROUP   
@<TRIPOS>SET
ATOM$ORANGE STATIC     ATOMS   COLORGROUP SYSTEM 
20 10 10 11 11 13 13 15 15 17 17 19 19 21 21 22 22 25 \
25 27 27 

