#    Name: 6avp_4_ADP
#    Modification time : Fri May 22 19:24:48 2020

@<TRIPOS>MOLECULE
6avp_4_ADP
   27    29     1     0     1
SMALL
NO_CHARGES


@<TRIPOS>ATOM
      1 PB         42.1800   32.8330   49.5930 P.3       1 ADP301      0.0000 
      2 O1B        41.3620   32.3760   48.4000 O.co2     1 ADP301      0.0000 
      3 O2B        43.5150   32.1230   49.6910 O.co2     1 ADP301      0.0000 
      4 O3B        42.2010   34.3410   49.6680 O.co2     1 ADP301      0.0000 
      5 PA         41.3590   32.8970   52.4620 P.3       1 ADP301      0.0000 
      6 O1A        42.0450   34.2220   52.6380 O.co2     1 ADP301      0.0000 
      7 O2A        41.6930   31.7400   53.3740 O.co2     1 ADP301      0.0000 
      8 O3A        41.3640   32.3430   50.9180 O.3       1 ADP301      0.0000 
      9 O5'        39.7970   33.2170   52.7040 O.3       1 ADP301      0.0000 
     10 C5'        39.1590   34.2280   51.9150 C.3       1 ADP301      0.0000 
     11 C4'        37.7860   34.4290   52.5180 C.3       1 ADP301      0.0000 
     12 O4'        38.0130   35.0380   53.7710 O.3       1 ADP301      0.0000 
     13 C3'        36.8440   35.3570   51.7880 C.3       1 ADP301      0.0000 
     14 O3'        36.1360   34.7100   50.7330 O.3       1 ADP301      0.0000 
     15 C2'        35.9420   35.8330   52.9100 C.3       1 ADP301      0.0000 
     16 O2'        34.8410   34.9560   53.1400 O.3       1 ADP301      0.0000 
     17 C1'        36.8600   35.8010   54.1330 C.3       1 ADP301      0.0000 
     18 N9         37.3080   37.1130   54.6500 N.pl3     1 ADP301      0.0000 
     19 C8         37.7660   37.2650   55.8960 C.2       1 ADP301      0.0000 
     20 N7         38.1050   38.5530   56.1520 N.2       1 ADP301      0.0000 
     21 C5         37.8800   39.2580   55.0410 C.ar      1 ADP301      0.0000 
     22 C6         38.0200   40.6810   54.6410 C.ar      1 ADP301      0.0000 
     23 N6         38.4900   41.5940   55.5200 N.pl3     1 ADP301      0.0000 
     24 N1         37.6570   41.0360   53.3820 N.ar      1 ADP301      0.0000 
     25 C2         37.1890   40.1080   52.5130 C.ar      1 ADP301      0.0000 
     26 N3         37.0410   38.7980   52.8140 N.ar      1 ADP301      0.0000 
     27 C4         37.3500   38.3060   54.0430 C.ar      1 ADP301      0.0000 
@<TRIPOS>BOND
     1    1    2 ar   
     2    1    3 ar   
     3    1    4 ar   
     4    1    8 1    
     5    5    6 ar   
     6    5    7 ar   
     7    5    8 1    
     8    5    9 1    
     9    9   10 1    
    10   10   11 1    
    11   11   12 1    
    12   11   13 1    
    13   12   17 1    
    14   13   14 1    
    15   13   15 1    
    16   15   16 1    
    17   15   17 1    
    18   17   18 1    
    19   18   19 1    
    20   18   27 1    
    21   19   20 2    
    22   20   21 1    
    23   21   22 ar   
    24   21   27 ar   
    25   22   23 1    
    26   22   24 ar   
    27   24   25 ar   
    28   25   26 ar   
    29   26   27 ar   
@<TRIPOS>SUBSTRUCTURE
     1 ADP301      1 GROUP   
@<TRIPOS>SET
ATOM$ORANGE STATIC     ATOMS   COLORGROUP SYSTEM 
20 10 10 11 11 13 13 15 15 17 17 19 19 21 21 22 22 25 \
25 27 27 

