#    Name: 6avp_2_ADP_CAVITY_N1_4
#    Modification time : Fri May 22 19:24:37 2020

@<TRIPOS>MOLECULE
6avp_2_ADP_CAVITY_N1_4
   63     0     4     0     0
SMALL
NO_CHARGES


@<TRIPOS>ATOM
      1 OG          7.2500   17.8200   38.4700 O.3       1 SER1        0.0000 
      2 OG          6.6000   14.4800   41.4200 O.3       1 SER1        0.0000 
      3 OG          7.6800   17.5300   40.5300 O.3       1 SER1        0.0000 
      4 OG          9.0200   16.9500   40.1600 O.3       1 SER1        0.0000 
      5 OG         12.3000   18.8300   43.0200 O.3       1 SER1        0.0000 
      6 OG         10.9800   16.8800   47.4000 O.3       1 SER1        0.0000 
      7 OG         12.5300   17.4200   46.0500 O.3       1 SER1        0.0000 
      8 OG         11.8400   18.8200   47.4900 O.3       1 SER1        0.0000 
      9 N           5.4800   16.1700   40.8000 N.am      2 ALA2        0.0000 
     10 N           5.2300   19.8000   40.2800 N.am      2 ALA2        0.0000 
     11 N           5.0100   18.6800   41.2600 N.am      2 ALA2        0.0000 
     12 N           6.3500   18.1100   40.9000 N.am      2 ALA2        0.0000 
     13 N           4.3300   20.0800   42.7000 N.am      2 ALA2        0.0000 
     14 N           5.6700   19.5000   42.3400 N.am      2 ALA2        0.0000 
     15 N           6.9700   21.1500   44.4800 N.am      2 ALA2        0.0000 
     16 N           8.3000   20.5700   44.1200 N.am      2 ALA2        0.0000 
     17 O          10.1100   14.9500   47.3100 O.2       2 ALA2        0.0000 
     18 O          12.0900   17.7100   44.0000 O.2       2 ALA2        0.0000 
     19 O          10.0700   19.6900   45.8100 O.2       2 ALA2        0.0000 
     20 O          11.6200   20.2300   44.4600 O.2       2 ALA2        0.0000 
     21 O          11.4100   19.1100   45.4400 O.2       2 ALA2        0.0000 
     22 O          12.3100   16.3000   47.0300 O.2       2 ALA2        0.0000 
     23 O          12.0600   19.9300   46.5100 O.2       2 ALA2        0.0000 
     24 CZ          8.1500   15.0100   40.0700 C.ar      3 PHE5        0.0000 
     25 CZ          6.5600   19.2200   39.9100 C.ar      3 PHE5        0.0000 
     26 CZ          7.9000   18.6400   39.5500 C.ar      3 PHE5        0.0000 
     27 CZ          7.0000   18.9300   41.9700 C.ar      3 PHE5        0.0000 
     28 CZ          8.3300   18.3500   41.6000 C.ar      3 PHE5        0.0000 
     29 CZ          9.6700   17.7700   41.2400 C.ar      3 PHE5        0.0000 
     30 CZ          7.6500   19.7500   43.0400 C.ar      3 PHE5        0.0000 
     31 CZ          8.9800   19.1700   42.6800 C.ar      3 PHE5        0.0000 
     32 CZ         10.3200   18.5900   42.3100 C.ar      3 PHE5        0.0000 
     33 CZ          9.6400   19.9900   43.7500 C.ar      3 PHE5        0.0000 
     34 CZ         10.9700   19.4100   43.3800 C.ar      3 PHE5        0.0000 
     35 CA          4.8300   15.3500   39.7300 C.3       4 GLY6        0.0000 
     36 CA          6.8200   15.5900   40.4400 C.3       4 GLY6        0.0000 
     37 CA          7.9400   13.9000   41.0500 C.3       4 GLY6        0.0000 
     38 CA          6.1300   16.9900   41.8800 C.3       4 GLY6        0.0000 
     39 CA          7.4700   16.4100   41.5100 C.3       4 GLY6        0.0000 
     40 CA          8.8000   15.8300   41.1400 C.3       4 GLY6        0.0000 
     41 CA          5.8800   20.6200   41.3500 C.3       4 GLY6        0.0000 
     42 CA          6.7800   17.8100   42.9500 C.3       4 GLY6        0.0000 
     43 CA          8.1200   17.2300   42.5800 C.3       4 GLY6        0.0000 
     44 CA          9.4500   16.6500   42.2200 C.3       4 GLY6        0.0000 
     45 CA          4.9800   20.9000   43.7800 C.3       4 GLY6        0.0000 
     46 CA          6.3200   20.3300   43.4100 C.3       4 GLY6        0.0000 
     47 CA          6.1000   19.2100   44.3900 C.3       4 GLY6        0.0000 
     48 CA          8.7700   18.0500   43.6600 C.3       4 GLY6        0.0000 
     49 CA         10.1000   17.4700   43.2900 C.3       4 GLY6        0.0000 
     50 CA          4.3000   22.3000   45.2200 C.3       4 GLY6        0.0000 
     51 CA          5.6300   21.7200   44.8500 C.3       4 GLY6        0.0000 
     52 CA          6.7500   20.0300   45.4600 C.3       4 GLY6        0.0000 
     53 CA          8.0900   19.4500   45.1000 C.3       4 GLY6        0.0000 
     54 CA          9.4200   18.8700   44.7300 C.3       4 GLY6        0.0000 
     55 CA         10.7600   18.2900   44.3700 C.3       4 GLY6        0.0000 
     56 CA         10.5400   17.1800   45.3500 C.3       4 GLY6        0.0000 
     57 CA         10.3300   16.0600   46.3300 C.3       4 GLY6        0.0000 
     58 CA         11.8700   16.6000   44.9800 C.3       4 GLY6        0.0000 
     59 CA         11.6600   15.4800   45.9600 C.3       4 GLY6        0.0000 
     60 CA         11.4500   14.3700   46.9400 C.3       4 GLY6        0.0000 
     61 CA         11.1900   18.0000   46.4200 C.3       4 GLY6        0.0000 
     62 CA         12.7400   18.5300   45.0700 C.3       4 GLY6        0.0000 
     63 CA         13.1800   18.2400   47.1300 C.3       4 GLY6        0.0000 
@<TRIPOS>BOND
@<TRIPOS>SUBSTRUCTURE
     1 SER1        1 GROUP   
     2 ALA2        9 GROUP   
     3 PHE5       24 GROUP   
     4 GLY6       35 GROUP   
@<TRIPOS>SET

