#    Name: 6avp_1_ADP
#    Modification time : Fri May 22 19:24:25 2020

@<TRIPOS>MOLECULE
6avp_1_ADP
   27    29     1     0     1
SMALL
NO_CHARGES


@<TRIPOS>ATOM
      1 PB         -0.3070   -0.4220   22.2920 P.3       1 ADP301      0.0000 
      2 O1B        -0.7440   -1.1720   21.0540 O.co2     1 ADP301      0.0000 
      3 O2B        -0.2260    1.0800   22.1060 O.co2     1 ADP301      0.0000 
      4 O3B        -1.0580   -0.8360   23.5160 O.co2     1 ADP301      0.0000 
      5 PA          2.0970   -0.6120   23.8370 P.3       1 ADP301      0.0000 
      6 O1A         3.3790    0.1280   23.5070 O.co2     1 ADP301      0.0000 
      7 O2A         1.2170   -0.0630   24.9090 O.co2     1 ADP301      0.0000 
      8 O3A         1.2260   -0.9070   22.5130 O.3       1 ADP301      0.0000 
      9 O5'         2.6130   -2.0270   24.3940 O.3       1 ADP301      0.0000 
     10 C5'         2.1910   -3.3180   23.9980 C.3       1 ADP301      0.0000 
     11 C4'         3.2560   -4.3230   24.4000 C.3       1 ADP301      0.0000 
     12 O4'         3.9110   -4.0540   25.6400 O.3       1 ADP301      0.0000 
     13 C3'         2.6950   -5.7230   24.5420 C.3       1 ADP301      0.0000 
     14 O3'         2.4590   -6.2740   23.2370 O.3       1 ADP301      0.0000 
     15 C2'         3.7850   -6.4070   25.3650 C.3       1 ADP301      0.0000 
     16 O2'         4.8780   -6.8820   24.5610 O.3       1 ADP301      0.0000 
     17 C1'         4.3030   -5.2920   26.2680 C.3       1 ADP301      0.0000 
     18 N9          3.7590   -5.2610   27.6570 N.pl3     1 ADP301      0.0000 
     19 C8          4.3220   -4.5310   28.6380 C.2       1 ADP301      0.0000 
     20 N7          3.6320   -4.6500   29.7920 N.2       1 ADP301      0.0000 
     21 C5          2.5800   -5.4360   29.5540 C.ar      1 ADP301      0.0000 
     22 C6          1.4440   -5.9570   30.3440 C.ar      1 ADP301      0.0000 
     23 N6          1.2870   -5.6440   31.6540 N.pl3     1 ADP301      0.0000 
     24 N1          0.5650   -6.7670   29.7100 N.ar      1 ADP301      0.0000 
     25 C2          0.6880   -7.0890   28.4120 C.ar      1 ADP301      0.0000 
     26 N3          1.6980   -6.6420   27.6600 N.ar      1 ADP301      0.0000 
     27 C4          2.6600   -5.8390   28.1490 C.ar      1 ADP301      0.0000 
@<TRIPOS>BOND
     1   22   24 ar   
     2   24   25 ar   
     3   25   26 ar   
     4   26   27 ar   
     5    1    2 ar   
     6    1    3 ar   
     7    1    4 ar   
     8    1    8 1    
     9    5    6 ar   
    10    5    7 ar   
    11    5    8 1    
    12    5    9 1    
    13    9   10 1    
    14   10   11 1    
    15   11   12 1    
    16   11   13 1    
    17   12   17 1    
    18   13   14 1    
    19   13   15 1    
    20   15   16 1    
    21   15   17 1    
    22   17   18 1    
    23   18   19 1    
    24   18   27 1    
    25   19   20 2    
    26   20   21 1    
    27   21   22 ar   
    28   21   27 ar   
    29   22   23 1    
@<TRIPOS>SUBSTRUCTURE
     1 ADP301      1 GROUP   
@<TRIPOS>SET
ATOM$ORANGE STATIC     ATOMS   COLORGROUP SYSTEM 
20 10 10 11 11 13 13 15 15 17 17 19 19 21 21 22 22 25 \
25 27 27 

