#    Name: 6o8c_1_BX7
#    Modification time : Fri May 22 19:25:18 2020

@<TRIPOS>MOLECULE
6o8c_1_BX7
   34    36     1     0     0
SMALL
NO_CHARGES


@<TRIPOS>ATOM
      1 I01       119.5500  -52.6000    7.3690 Du        1 BX7701      0.0000 
      2 S02       124.7010  -53.8320    8.0430 S.3       1 BX7701      0.0000 
      3 O03       122.3050  -49.6160   -2.1950 O.2       1 BX7701      0.0000 
      4 O04       122.5910  -51.9970    6.6740 O.2       1 BX7701      0.0000 
      5 N05       124.1590  -50.5390   -1.0540 N.am      1 BX7701      0.0000 
      6 N06       121.8340  -51.6840   -1.0360 N.am      1 BX7701      0.0000 
      7 N07       121.0970  -52.4570    4.0810 N.pl3     1 BX7701      0.0000 
      8 N08       117.2720  -52.3220    1.0560 N.pl3     1 BX7701      0.0000 
      9 N09       124.0050  -51.8680    4.7300 N.am      1 BX7701      0.0000 
     10 N10       119.1200  -52.4130    2.7670 N.ar      1 BX7701      0.0000 
     11 N11       116.9230  -52.4230    3.6410 N.ar      1 BX7701      0.0000 
     12 C12       125.9540  -49.2380   -0.1740 C.3       1 BX7701      0.0000 
     13 C13       125.6820  -50.5350    0.6910 C.3       1 BX7701      0.0000 
     14 C14       124.7930  -51.4570   -0.2680 C.3       1 BX7701      0.0000 
     15 C15       125.3030  -49.4570   -1.3990 C.3       1 BX7701      0.0000 
     16 C16       122.7220  -50.5360   -1.4790 C.2       1 BX7701      0.0000 
     17 C17       120.4250  -51.8810   -1.2920 C.ar      1 BX7701      0.0000 
     18 C18       119.5910  -51.9990   -0.1440 C.ar      1 BX7701      0.0000 
     19 C19       122.6770  -51.2780    2.7220 C.3       1 BX7701      0.0000 
     20 C20       119.9290  -51.9420   -2.5940 C.ar      1 BX7701      0.0000 
     21 C21       121.8360  -52.5810    2.8870 C.3       1 BX7701      0.0000 
     22 C22       118.1860  -52.1960   -0.1990 C.ar      1 BX7701      0.0000 
     23 C23       123.2740  -50.7720    4.1230 C.3       1 BX7701      0.0000 
     24 C24       118.5160  -52.1050   -2.7040 C.ar      1 BX7701      0.0000 
     25 C25       117.7240  -52.2410   -1.5380 C.ar      1 BX7701      0.0000 
     26 C26       119.5860  -52.4640    4.0170 C.ar      1 BX7701      0.0000 
     27 C27       117.7640  -52.3780    2.5240 C.ar      1 BX7701      0.0000 
     28 C28       118.7910  -52.5120    5.2410 C.ar      1 BX7701      0.0000 
     29 C29       123.5560  -52.3890    6.0120 C.2       1 BX7701      0.0000 
     30 C30       117.3870  -52.4890    4.9140 C.ar      1 BX7701      0.0000 
     31 C31       124.4100  -53.5500    6.5370 C.2       1 BX7701      0.0000 
     32 C32       125.0640  -54.5290    5.7200 C.2       1 BX7701      0.0000 
     33 C33       125.8180  -55.5190    6.7230 C.2       1 BX7701      0.0000 
     34 C34       125.6000  -55.0940    8.0940 C.2       1 BX7701      0.0000 
@<TRIPOS>BOND
     1    2   31 1    
     2    2   34 1    
     3    3   16 2    
     4    4   29 2    
     5    5   14 1    
     6    5   15 1    
     7    5   16 am   
     8    6   16 am   
     9    6   17 1    
    10    7   21 1    
    11    7   26 1    
    12    8   22 1    
    13    8   27 1    
    14    9   23 1    
    15    9   29 am   
    16   10   26 ar   
    17   10   27 ar   
    18   11   27 ar   
    19   11   30 ar   
    20   12   13 1    
    21   12   15 1    
    22   13   14 1    
    23   17   18 ar   
    24   17   20 ar   
    25   18   22 ar   
    26   19   21 1    
    27   19   23 1    
    28   20   24 ar   
    29   22   25 ar   
    30   24   25 ar   
    31   26   28 ar   
    32   28   30 ar   
    33   29   31 1    
    34   31   32 2    
    35   32   33 1    
    36   33   34 2    
@<TRIPOS>SUBSTRUCTURE
     1 BX7701      1 GROUP   
@<TRIPOS>SET

