#    Name: 6o8c_2_BX7
#    Modification time : Fri May 22 19:25:29 2020

@<TRIPOS>MOLECULE
6o8c_2_BX7
   34    36     1     0     0
SMALL
NO_CHARGES


@<TRIPOS>ATOM
      1 I01       115.3530  -55.7330  -42.8190 Du        1 BX7701      0.0000 
      2 S02       112.6430  -59.7190  -42.2050 S.3       1 BX7701      0.0000 
      3 O03       111.2210  -54.4440  -33.8540 O.2       1 BX7701      0.0000 
      4 O04       112.0600  -56.7590  -41.1340 O.2       1 BX7701      0.0000 
      5 N05       110.4000  -56.5940  -34.3620 N.am      1 BX7701      0.0000 
      6 N06       112.9620  -56.0420  -34.2570 N.am      1 BX7701      0.0000 
      7 N07       113.8810  -56.3380  -39.5510 N.pl3     1 BX7701      0.0000 
      8 N08       116.8590  -53.7670  -36.6120 N.pl3     1 BX7701      0.0000 
      9 N09       110.7900  -57.8440  -39.5130 N.am      1 BX7701      0.0000 
     10 N10       115.4170  -55.0490  -38.2530 N.ar      1 BX7701      0.0000 
     11 N11       117.2410  -53.8180  -39.1620 N.ar      1 BX7701      0.0000 
     12 C12       108.2470  -56.9990  -35.3450 C.3       1 BX7701      0.0000 
     13 C13       109.1900  -58.2620  -35.5300 C.3       1 BX7701      0.0000 
     14 C14       110.5080  -57.9190  -34.6880 C.3       1 BX7701      0.0000 
     15 C15       108.8130  -56.3040  -34.2660 C.3       1 BX7701      0.0000 
     16 C16       111.5110  -55.6090  -34.1410 C.2       1 BX7701      0.0000 
     17 C17       114.1550  -55.2210  -34.1140 C.ar      1 BX7701      0.0000 
     18 C18       114.8840  -54.9060  -35.2950 C.ar      1 BX7701      0.0000 
     19 C19       112.1620  -56.1770  -37.9750 C.3       1 BX7701      0.0000 
     20 C20       114.5740  -54.7990  -32.8610 C.ar      1 BX7701      0.0000 
     21 C21       113.4490  -56.9490  -38.3410 C.3       1 BX7701      0.0000 
     22 C22       116.0720  -54.1350  -35.3260 C.ar      1 BX7701      0.0000 
     23 C23       110.7530  -56.7590  -38.5200 C.3       1 BX7701      0.0000 
     24 C24       115.7570  -54.0110  -32.8580 C.ar      1 BX7701      0.0000 
     25 C25       116.4610  -53.7180  -34.0460 C.ar      1 BX7701      0.0000 
     26 C26       115.1120  -55.4430  -39.4960 C.ar      1 BX7701      0.0000 
     27 C27       116.5040  -54.2120  -38.0480 C.ar      1 BX7701      0.0000 
     28 C28       115.8300  -55.0910  -40.7090 C.ar      1 BX7701      0.0000 
     29 C29       111.4400  -57.7320  -40.7980 C.2       1 BX7701      0.0000 
     30 C30       116.9390  -54.2370  -40.4130 C.ar      1 BX7701      0.0000 
     31 C31       111.3850  -58.9190  -41.7640 C.2       1 BX7701      0.0000 
     32 C32       110.2080  -59.4510  -42.4170 C.2       1 BX7701      0.0000 
     33 C33       110.7020  -60.6730  -43.3380 C.2       1 BX7701      0.0000 
     34 C34       112.1380  -60.8100  -43.1900 C.2       1 BX7701      0.0000 
@<TRIPOS>BOND
     1    2   31 1    
     2    2   34 1    
     3    3   16 2    
     4    4   29 2    
     5    5   14 1    
     6    5   15 1    
     7    5   16 am   
     8    6   16 am   
     9    6   17 1    
    10    7   21 1    
    11    7   26 1    
    12    8   22 1    
    13    8   27 1    
    14    9   23 1    
    15    9   29 am   
    16   10   26 ar   
    17   10   27 ar   
    18   11   27 ar   
    19   11   30 ar   
    20   12   13 1    
    21   12   15 1    
    22   13   14 1    
    23   17   18 ar   
    24   17   20 ar   
    25   18   22 ar   
    26   19   21 1    
    27   19   23 1    
    28   20   24 ar   
    29   22   25 ar   
    30   24   25 ar   
    31   26   28 ar   
    32   28   30 ar   
    33   29   31 1    
    34   31   32 2    
    35   32   33 1    
    36   33   34 2    
@<TRIPOS>SUBSTRUCTURE
     1 BX7701      1 GROUP   
@<TRIPOS>SET

