#    Name: 6j63_3_NTD_CAVITY_N1_12
#    Modification time : Fri May 22 19:31:54 2020

@<TRIPOS>MOLECULE
6j63_3_NTD_CAVITY_N1_12
   90     0     7     0     0
SMALL
NO_CHARGES


@<TRIPOS>ATOM
      1 OG         50.7700   -8.9400   47.2100 O.3       1 SER1        0.0000 
      2 OG         49.8200   -7.7800   47.0900 O.3       1 SER1        0.0000 
      3 OG         50.8000   -7.0800   46.1900 O.3       1 SER1        0.0000 
      4 OG         53.3500   -6.8800   46.6100 O.3       1 SER1        0.0000 
      5 OG         51.4300   -6.4300   47.3900 O.3       1 SER1        0.0000 
      6 N          46.9900   -6.6900   42.3700 N.am      2 ALA2        0.0000 
      7 N          47.9600   -5.9900   41.4700 N.am      2 ALA2        0.0000 
      8 N          47.9900   -4.1300   40.4600 N.am      2 ALA2        0.0000 
      9 N          49.5200   -8.3600   43.8000 N.am      2 ALA2        0.0000 
     10 N          48.5700   -7.2100   43.6800 N.am      2 ALA2        0.0000 
     11 N          47.6300   -6.0500   43.5700 N.am      2 ALA2        0.0000 
     12 N          48.6000   -5.3500   42.6700 N.am      2 ALA2        0.0000 
     13 N          49.5700   -4.6400   41.7700 N.am      2 ALA2        0.0000 
     14 O          50.1600   -7.7200   45.0000 O.2       2 ALA2        0.0000 
     15 N          48.8700   -6.6300   46.9700 N.am      2 ALA2        0.0000 
     16 O          46.9500   -6.1800   47.7500 O.2       2 ALA2        0.0000 
     17 O          47.9300   -5.4700   46.8500 O.2       2 ALA2        0.0000 
     18 N          46.0100   -5.0200   47.6300 N.am      2 ALA2        0.0000 
     19 O          46.9800   -4.3100   46.7400 O.2       2 ALA2        0.0000 
     20 O          46.0300   -3.1600   46.6200 O.2       2 ALA2        0.0000 
     21 O          46.6700   -2.5100   47.8200 O.2       2 ALA2        0.0000 
     22 OD1        46.6300   -8.6200   45.4800 O.co2     3 ASP3        0.0000 
     23 OD1        47.6000   -7.9100   44.5800 O.co2     3 ASP3        0.0000 
     24 OD1        46.6500   -6.7600   44.4600 O.co2     3 ASP3        0.0000 
     25 NZ         50.1300   -9.5800   46.0100 N.4       4 LYS4        0.0000 
     26 NZ         52.7200   -7.5300   45.4100 N.4       4 LYS4        0.0000 
     27 NZ         54.3000   -8.0400   46.7300 N.4       4 LYS4        0.0000 
     28 CZ         48.5200  -10.9300   45.7100 C.ar      5 PHE5        0.0000 
     29 CZ         45.7100   -5.6000   44.3400 C.ar      5 PHE5        0.0000 
     30 CZ         46.6800   -4.8900   43.4500 C.ar      5 PHE5        0.0000 
     31 CZ         47.6500   -4.1900   42.5500 C.ar      5 PHE5        0.0000 
     32 CZ         48.6200   -3.4800   41.6500 C.ar      5 PHE5        0.0000 
     33 CZ         47.6800   -2.3300   41.5300 C.ar      5 PHE5        0.0000 
     34 CZ         46.7300   -1.1700   41.4200 C.ar      5 PHE5        0.0000 
     35 CZ         47.2600   -7.9800   46.6700 C.ar      5 PHE5        0.0000 
     36 CZ         49.2100   -6.5600   44.8800 C.ar      5 PHE5        0.0000 
     37 CZ         50.1800   -5.8600   43.9800 C.ar      5 PHE5        0.0000 
     38 CZ         46.3200   -6.8200   46.5600 C.ar      5 PHE5        0.0000 
     39 CZ         47.2900   -6.1100   45.6600 C.ar      5 PHE5        0.0000 
     40 CZ         48.2600   -5.4100   44.7600 C.ar      5 PHE5        0.0000 
     41 CZ         49.2400   -4.7000   43.8600 C.ar      5 PHE5        0.0000 
     42 CZ         46.3400   -4.9600   45.5400 C.ar      5 PHE5        0.0000 
     43 CZ         47.3200   -4.2500   44.6400 C.ar      5 PHE5        0.0000 
     44 CZ         48.2900   -3.5500   43.7500 C.ar      5 PHE5        0.0000 
     45 CZ         49.2600   -2.8400   42.8500 C.ar      5 PHE5        0.0000 
     46 CZ         50.2300   -2.1300   41.9500 C.ar      5 PHE5        0.0000 
     47 CZ         45.3900   -3.8000   45.4200 C.ar      5 PHE5        0.0000 
     48 CZ         46.3700   -3.0900   44.5300 C.ar      5 PHE5        0.0000 
     49 CZ         47.3400   -2.3900   43.6300 C.ar      5 PHE5        0.0000 
     50 CZ         48.3100   -1.6800   42.7300 C.ar      5 PHE5        0.0000 
     51 CZ         49.2900   -0.9800   41.8300 C.ar      5 PHE5        0.0000 
     52 CZ         44.4500   -2.6400   45.3000 C.ar      5 PHE5        0.0000 
     53 CZ         45.4200   -1.9400   44.4100 C.ar      5 PHE5        0.0000 
     54 CZ         49.8500   -5.9200   46.0800 C.ar      5 PHE5        0.0000 
     55 CZ         48.9000   -4.7600   45.9600 C.ar      5 PHE5        0.0000 
     56 CZ         47.9500   -3.6100   45.8400 C.ar      5 PHE5        0.0000 
     57 CZ         47.0000   -2.4500   45.7200 C.ar      5 PHE5        0.0000 
     58 CZ         47.9800   -1.7500   44.8200 C.ar      5 PHE5        0.0000 
     59 CZ         48.9500   -1.0400   43.9300 C.ar      5 PHE5        0.0000 
     60 CZ         45.0800   -2.0000   46.5000 C.ar      5 PHE5        0.0000 
     61 CZ         45.1100   -0.1400   45.4900 C.ar      5 PHE5        0.0000 
     62 CA         46.6000  -10.4800   46.4900 C.3       6 GLY6        0.0000 
     63 CA         47.5800   -9.7800   45.6000 C.3       6 GLY6        0.0000 
     64 CA         48.5500   -9.0700   44.7000 C.3       6 GLY6        0.0000 
     65 CA         49.5500   -6.5000   42.7900 C.3       6 GLY6        0.0000 
     66 CA         49.6000   -2.7800   40.7600 C.3       6 GLY6        0.0000 
     67 CA         48.6500   -1.6200   40.6400 C.3       6 GLY6        0.0000 
     68 CA         47.7000   -0.4600   40.5200 C.3       6 GLY6        0.0000 
     69 CA         49.1600  -10.2900   46.9100 C.3       6 GLY6        0.0000 
     70 CA         47.2400   -9.8400   47.6900 C.3       6 GLY6        0.0000 
     71 CA         49.1900   -8.4300   45.8900 C.3       6 GLY6        0.0000 
     72 CA         51.1300   -7.0100   44.1000 C.3       6 GLY6        0.0000 
     73 CA         46.2900   -8.6800   47.5700 C.3       6 GLY6        0.0000 
     74 CA         48.3400    0.1800   41.7200 C.3       6 GLY6        0.0000 
     75 CA         49.8000   -9.6500   48.1100 C.3       6 GLY6        0.0000 
     76 CA         48.8500   -8.4900   47.9900 C.3       6 GLY6        0.0000 
     77 CA         51.7700   -6.3700   45.3000 C.3       6 GLY6        0.0000 
     78 CA         54.3300   -6.1800   45.7100 C.3       6 GLY6        0.0000 
     79 CA         52.4000   -5.7300   46.4900 C.3       6 GLY6        0.0000 
     80 CA         50.4800   -5.2800   47.2700 C.3       6 GLY6        0.0000 
     81 CA         47.6100   -3.6700   47.9300 C.3       6 GLY6        0.0000 
     82 CA         48.5900   -2.9600   47.0400 C.3       6 GLY6        0.0000 
     83 CA         47.6400   -1.8100   46.9200 C.3       6 GLY6        0.0000 
     84 DU         48.2100   -9.1300   46.7900 H         7 CUB7        0.0000 
     85 DU         48.2400   -7.2700   45.7800 H         7 CUB7        0.0000 
     86 DU         47.3700   -0.5300   42.6100 H         7 CUB7        0.0000 
     87 DU         46.4200    0.6300   42.5000 H         7 CUB7        0.0000 
     88 DU         46.0600   -1.2900   45.6000 H         7 CUB7        0.0000 
     89 DU         47.0300   -0.5900   44.7100 H         7 CUB7        0.0000 
     90 DU         48.9700    0.8200   42.9100 H         7 CUB7        0.0000 
@<TRIPOS>BOND
@<TRIPOS>SUBSTRUCTURE
     1 SER1        1 GROUP   
     2 ALA2        6 GROUP   
     3 ASP3       22 GROUP   
     4 LYS4       25 GROUP   
     5 PHE5       28 GROUP   
     6 GLY6       62 GROUP   
     7 CUB7       84 GROUP   
@<TRIPOS>SET

