#    Name: 6j63_4_NTD
#    Modification time : Fri May 22 19:31:57 2020

@<TRIPOS>MOLECULE
6j63_4_NTD
   23    24     1     0     0
SMALL
NO_CHARGES


@<TRIPOS>ATOM
      1 O1         -2.6950   10.7350   44.6100 O.2       1 NTD502      0.0000 
      2 C5         -3.1380    9.8240   45.2220 C.2       1 NTD502      0.0000 
      3 C2         -3.2850    9.9430   46.7330 C.3       1 NTD502      0.0000 
      4 C3         -3.3800    8.6210   47.4210 C.3       1 NTD502      0.0000 
      5 C4         -4.4600    7.7240   46.9140 C.3       1 NTD502      0.0000 
      6 C1         -4.5620    7.6900   45.3940 C.2       1 NTD502      0.0000 
      7 O5         -5.4120    7.0320   44.9010 O.2       1 NTD502      0.0000 
      8 C6         -3.5670    8.5040   44.5210 C.2       1 NTD502      0.0000 
      9 C7         -2.7970    7.9260   43.6080 C.2       1 NTD502      0.0000 
     10 O7         -1.5180    8.4190   43.3640 O.co2     1 NTD502      0.0000 
     11 C8         -3.2830    6.6210   42.9790 C.ar      1 NTD502      0.0000 
     12 C13        -4.0880    6.6780   41.8480 C.ar      1 NTD502      0.0000 
     13 C12        -4.5570    5.5110   41.2620 C.ar      1 NTD502      0.0000 
     14 C11        -4.2120    4.2880   41.8070 C.ar      1 NTD502      0.0000 
     15 C14        -4.7050    2.9980   41.1630 C.3       1 NTD502      0.0000 
     16 F2         -4.6230    1.9900   42.0790 F         1 NTD502      0.0000 
     17 F3         -5.9930    3.1580   40.7400 F         1 NTD502      0.0000 
     18 F1         -3.9100    2.6910   40.1010 F         1 NTD502      0.0000 
     19 C10        -3.4080    4.2270   42.9310 C.ar      1 NTD502      0.0000 
     20 C9         -2.9420    5.3870   43.5230 C.ar      1 NTD502      0.0000 
     21 N          -2.0960    5.2880   44.7110 N.pl3     1 NTD502      0.0000 
     22 ON2        -1.3090    4.4130   44.7880 O.2       1 NTD502      0.0000 
     23 ON1        -2.2100    6.2040   45.7610 O.2       1 NTD502      0.0000 
@<TRIPOS>BOND
     1    1    2 2    
     2    2    3 1    
     3    2    8 1    
     4    3    4 1    
     5    4    5 1    
     6    5    6 1    
     7    6    7 2    
     8    6    8 1    
     9    8    9 2    
    10    9   10 ar   
    11    9   11 1    
    12   11   12 ar   
    13   11   20 ar   
    14   12   13 ar   
    15   13   14 ar   
    16   14   15 1    
    17   14   19 ar   
    18   15   16 1    
    19   15   17 1    
    20   15   18 1    
    21   19   20 ar   
    22   20   21 1    
    23   21   22 2    
    24   21   23 2    
@<TRIPOS>SUBSTRUCTURE
     1 NTD502      1 GROUP   
@<TRIPOS>SET

