#    Name: 6j63_3_NTD
#    Modification time : Fri May 22 19:31:53 2020

@<TRIPOS>MOLECULE
6j63_3_NTD
   23    24     1     0     0
SMALL
NO_CHARGES


@<TRIPOS>ATOM
      1 O1         46.6320   -9.0240   43.8890 O.2       1 NTD502      0.0000 
      2 C5         47.0410   -8.6190   44.9240 C.2       1 NTD502      0.0000 
      3 C2         47.2020   -9.5730   46.1080 C.3       1 NTD502      0.0000 
      4 C3         48.3750   -9.2220   46.9600 C.3       1 NTD502      0.0000 
      5 C4         48.2980   -7.8380   47.5150 C.3       1 NTD502      0.0000 
      6 C1         47.6530   -6.8030   46.5870 C.2       1 NTD502      0.0000 
      7 O5         47.3420   -5.7530   47.0340 O.2       1 NTD502      0.0000 
      8 C6         47.3920   -7.1140   45.0880 C.2       1 NTD502      0.0000 
      9 C7         46.6840   -6.2780   44.3320 C.2       1 NTD502      0.0000 
     10 O7         45.5040   -6.7990   43.8180 O.co2     1 NTD502      0.0000 
     11 C8         47.2890   -5.1010   43.5670 C.ar      1 NTD502      0.0000 
     12 C13        48.0890   -5.3250   42.4490 C.ar      1 NTD502      0.0000 
     13 C12        48.6180   -4.2530   41.7420 C.ar      1 NTD502      0.0000 
     14 C11        48.3300   -2.9580   42.1440 C.ar      1 NTD502      0.0000 
     15 C14        48.8730   -1.7580   41.3810 C.3       1 NTD502      0.0000 
     16 F2         47.9040   -0.8020   41.3370 F         1 NTD502      0.0000 
     17 F3         49.9770   -1.2590   42.0190 F         1 NTD502      0.0000 
     18 F1         49.2090   -2.1540   40.1210 F         1 NTD502      0.0000 
     19 C10        47.5220   -2.7350   43.2410 C.ar      1 NTD502      0.0000 
     20 C9         46.9950   -3.7990   43.9500 C.ar      1 NTD502      0.0000 
     21 N          46.1480   -3.5190   45.1050 N.pl3     1 NTD502      0.0000 
     22 ON2        46.6290   -3.2950   46.1610 O.2       1 NTD502      0.0000 
     23 ON1        44.7610   -3.4990   44.9610 O.2       1 NTD502      0.0000 
@<TRIPOS>BOND
     1    1    2 2    
     2    2    3 1    
     3    2    8 1    
     4    3    4 1    
     5    4    5 1    
     6    5    6 1    
     7    6    7 2    
     8    6    8 1    
     9    8    9 2    
    10    9   10 ar   
    11    9   11 1    
    12   11   12 ar   
    13   11   20 ar   
    14   12   13 ar   
    15   13   14 ar   
    16   14   15 1    
    17   14   19 ar   
    18   15   16 1    
    19   15   17 1    
    20   15   18 1    
    21   19   20 ar   
    22   20   21 1    
    23   21   22 2    
    24   21   23 2    
@<TRIPOS>SUBSTRUCTURE
     1 NTD502      1 GROUP   
@<TRIPOS>SET

