#    Name: 6j63_2_NTD
#    Modification time : Fri May 22 19:31:48 2020

@<TRIPOS>MOLECULE
6j63_2_NTD
   23    24     1     0     0
SMALL
NO_CHARGES


@<TRIPOS>ATOM
      1 O1         13.9650   27.0160    4.9540 O.2       1 NTD502      0.0000 
      2 C5         14.6020   27.5970    4.1410 C.2       1 NTD502      0.0000 
      3 C2         14.0230   27.7620    2.7360 C.3       1 NTD502      0.0000 
      4 C3         14.5070   28.9900    2.0430 C.3       1 NTD502      0.0000 
      5 C4         15.9940   29.0680    1.9920 C.3       1 NTD502      0.0000 
      6 C1         16.6510   29.0120    3.3710 C.2       1 NTD502      0.0000 
      7 O5         17.6510   29.6250    3.5510 O.2       1 NTD502      0.0000 
      8 C6         16.0040   28.1660    4.5050 C.2       1 NTD502      0.0000 
      9 C7         16.7330   27.4870    5.3820 C.2       1 NTD502      0.0000 
     10 O7         16.4500   26.1330    5.5460 O.co2     1 NTD502      0.0000 
     11 C8         18.0080   28.0630    5.9990 C.ar      1 NTD502      0.0000 
     12 C13        17.9340   29.0300    6.9960 C.ar      1 NTD502      0.0000 
     13 C12        19.0920   29.5410    7.5620 C.ar      1 NTD502      0.0000 
     14 C11        20.3230   29.0730    7.1340 C.ar      1 NTD502      0.0000 
     15 C14        21.6090   29.6040    7.7460 C.3       1 NTD502      0.0000 
     16 F2         22.5860   29.5990    6.7910 F         1 NTD502      0.0000 
     17 F3         21.3980   30.8710    8.2090 F         1 NTD502      0.0000 
     18 F1         21.9790   28.7950    8.7730 F         1 NTD502      0.0000 
     19 C10        20.4030   28.1050    6.1510 C.ar      1 NTD502      0.0000 
     20 C9         19.2440   27.6000    5.5790 C.ar      1 NTD502      0.0000 
     21 N          19.3470   26.5710    4.5490 N.pl3     1 NTD502      0.0000 
     22 ON2        18.8350   26.7130    3.4950 O.2       1 NTD502      0.0000 
     23 ON1        20.0600   25.3990    4.8260 O.2       1 NTD502      0.0000 
@<TRIPOS>BOND
     1    1    2 2    
     2    2    3 1    
     3    2    8 1    
     4    3    4 1    
     5    4    5 1    
     6    5    6 1    
     7    6    7 2    
     8    6    8 1    
     9    8    9 2    
    10    9   10 ar   
    11    9   11 1    
    12   11   12 ar   
    13   11   20 ar   
    14   12   13 ar   
    15   13   14 ar   
    16   14   15 1    
    17   14   19 ar   
    18   15   16 1    
    19   15   17 1    
    20   15   18 1    
    21   19   20 ar   
    22   20   21 1    
    23   21   22 2    
    24   21   23 2    
@<TRIPOS>SUBSTRUCTURE
     1 NTD502      1 GROUP   
@<TRIPOS>SET

