#    Name: 6j63_1_NTD
#    Modification time : Fri May 22 19:31:44 2020

@<TRIPOS>MOLECULE
6j63_1_NTD
   23    24     1     0     0
SMALL
NO_CHARGES


@<TRIPOS>ATOM
      1 O1         33.9020  -21.6530    4.5850 O.2       1 NTD502      0.0000 
      2 C5         33.1950  -22.1920    3.8000 C.2       1 NTD502      0.0000 
      3 C2         33.7070  -22.3820    2.3690 C.3       1 NTD502      0.0000 
      4 C3         33.0190  -23.4380    1.5670 C.3       1 NTD502      0.0000 
      5 C4         31.5330  -23.3820    1.6660 C.3       1 NTD502      0.0000 
      6 C1         31.0710  -23.5220    3.1140 C.2       1 NTD502      0.0000 
      7 O5         30.1890  -24.2790    3.3650 O.2       1 NTD502      0.0000 
      8 C6         31.7690  -22.6850    4.2210 C.2       1 NTD502      0.0000 
      9 C7         31.0740  -21.9930    5.1180 C.2       1 NTD502      0.0000 
     10 O7         31.4180  -20.6640    5.3510 O.co2     1 NTD502      0.0000 
     11 C8         29.7980  -22.5850    5.7180 C.ar      1 NTD502      0.0000 
     12 C13        29.8840  -23.4690    6.7860 C.ar      1 NTD502      0.0000 
     13 C12        28.7330  -24.0170    7.3310 C.ar      1 NTD502      0.0000 
     14 C11        27.4940  -23.6640    6.8190 C.ar      1 NTD502      0.0000 
     15 C14        26.2140  -24.2320    7.4170 C.3       1 NTD502      0.0000 
     16 F2         25.8960  -25.4070    6.7880 F         1 NTD502      0.0000 
     17 F3         26.3990  -24.4530    8.7500 F         1 NTD502      0.0000 
     18 F1         25.2110  -23.3240    7.2400 F         1 NTD502      0.0000 
     19 C10        27.4060  -22.7740    5.7630 C.ar      1 NTD502      0.0000 
     20 C9         28.5530  -22.2380    5.2100 C.ar      1 NTD502      0.0000 
     21 N          28.4270  -21.3110    4.0970 N.pl3     1 NTD502      0.0000 
     22 ON2        28.2380  -21.7190    3.0080 O.2       1 NTD502      0.0000 
     23 ON1        28.5190  -19.9380    4.3190 O.2       1 NTD502      0.0000 
@<TRIPOS>BOND
     1    1    2 2    
     2    2    3 1    
     3    2    8 1    
     4    3    4 1    
     5    4    5 1    
     6    5    6 1    
     7    6    7 2    
     8    6    8 1    
     9    8    9 2    
    10    9   10 ar   
    11    9   11 1    
    12   11   12 ar   
    13   11   20 ar   
    14   12   13 ar   
    15   13   14 ar   
    16   14   15 1    
    17   14   19 ar   
    18   15   16 1    
    19   15   17 1    
    20   15   18 1    
    21   19   20 ar   
    22   20   21 1    
    23   21   22 2    
    24   21   23 2    
@<TRIPOS>SUBSTRUCTURE
     1 NTD502      1 GROUP   
@<TRIPOS>SET

