#    Name: 6a0v_3_FMN
#    Modification time : Fri May 22 19:25:23 2020

@<TRIPOS>MOLECULE
6a0v_3_FMN
   31    33     1     0     1
SMALL
NO_CHARGES


@<TRIPOS>ATOM
      1 N1         -9.0660  -29.6380  -33.7480 N.2       1 FMN401      0.0000 
      2 C2         -9.1010  -30.8710  -34.2870 C.2       1 FMN401      0.0000 
      3 O2         -9.1840  -30.9650  -35.5240 O.2       1 FMN401      0.0000 
      4 N3         -9.0930  -31.9760  -33.5060 N.am      1 FMN401      0.0000 
      5 C4         -9.0100  -31.9360  -32.1830 C.2       1 FMN401      0.0000 
      6 O4         -8.9850  -32.9850  -31.4720 O.2       1 FMN401      0.0000 
      7 C4A        -8.9720  -30.6390  -31.5340 C.2       1 FMN401      0.0000 
      8 N5         -8.9220  -30.4970  -30.1970 N.2       1 FMN401      0.0000 
      9 C5A        -8.9070  -29.2730  -29.6230 C.ar      1 FMN401      0.0000 
     10 C6         -8.8620  -29.1610  -28.2430 C.ar      1 FMN401      0.0000 
     11 C7         -8.8930  -27.9220  -27.6370 C.ar      1 FMN401      0.0000 
     12 C7M        -8.8530  -27.7960  -26.1290 C.3       1 FMN401      0.0000 
     13 C8         -8.9700  -26.7130  -28.4620 C.ar      1 FMN401      0.0000 
     14 C8M        -8.9800  -25.3540  -27.8200 C.3       1 FMN401      0.0000 
     15 C9         -9.0150  -26.8240  -29.8340 C.ar      1 FMN401      0.0000 
     16 C9A        -8.9680  -28.0570  -30.4530 C.ar      1 FMN401      0.0000 
     17 N10        -8.9910  -28.2090  -31.8590 N.pl3     1 FMN401      0.0000 
     18 C10        -9.0030  -29.4730  -32.4260 C.2       1 FMN401      0.0000 
     19 C1'        -9.0370  -27.0290  -32.7440 C.3       1 FMN401      0.0000 
     20 C2'       -10.4620  -26.5780  -32.9400 C.3       1 FMN401      0.0000 
     21 O2'       -11.1580  -27.4890  -33.7590 O.3       1 FMN401      0.0000 
     22 C3'       -10.5600  -25.2260  -33.6240 C.3       1 FMN401      0.0000 
     23 O3'        -9.7140  -25.2140  -34.7830 O.3       1 FMN401      0.0000 
     24 C4'       -10.1910  -24.0780  -32.7150 C.3       1 FMN401      0.0000 
     25 O4'       -10.6650  -24.3210  -31.3730 O.3       1 FMN401      0.0000 
     26 C5'       -10.8960  -22.8450  -33.2610 C.3       1 FMN401      0.0000 
     27 O5'       -10.5210  -21.7280  -32.5460 O.3       1 FMN401      0.0000 
     28 P         -11.4140  -21.1240  -31.3480 P.3       1 FMN401      0.0000 
     29 O1P       -11.1820  -22.0550  -30.1850 O.co2     1 FMN401      0.0000 
     30 O2P       -10.7080  -19.8060  -31.1890 O.co2     1 FMN401      0.0000 
     31 O3P       -12.8720  -21.0120  -31.6950 O.co2     1 FMN401      0.0000 
@<TRIPOS>BOND
     1    1    2 1    
     2    1   18 2    
     3    2    3 2    
     4    2    4 am   
     5    4    5 am   
     6    5    6 2    
     7    5    7 1    
     8    7    8 2    
     9    7   18 1    
    10    8    9 1    
    11    9   10 ar   
    12    9   16 ar   
    13   10   11 ar   
    14   11   12 1    
    15   11   13 ar   
    16   13   14 1    
    17   13   15 ar   
    18   15   16 ar   
    19   16   17 1    
    20   17   18 1    
    21   17   19 1    
    22   19   20 1    
    23   20   21 1    
    24   20   22 1    
    25   22   23 1    
    26   22   24 1    
    27   24   25 1    
    28   24   26 1    
    29   26   27 1    
    30   27   28 1    
    31   28   29 ar   
    32   28   30 ar   
    33   28   31 ar   
@<TRIPOS>SUBSTRUCTURE
     1 FMN401      1 GROUP   
@<TRIPOS>SET
ATOM$ORANGE STATIC     ATOMS   COLORGROUP SYSTEM 
34 2 2 5 5 7 7 9 9 10 10 11 11 12 12 13 13 14 \
14 15 15 16 16 18 18 19 19 20 20 22 22 24 24 26 26 

