#    Name: 6jnt_1_NDP
#    Modification time : Fri May 22 19:34:43 2020

@<TRIPOS>MOLECULE
6jnt_1_NDP
   74    78     1     0     1
SMALL
NO_CHARGES


@<TRIPOS>ATOM
      1 PA         54.0820   97.6350  173.8610 P.3       1 NDP602      0.0000 
      2 O1A        54.6790   97.4310  175.2100 O.co2     1 NDP602      0.0000 
      3 O2A        52.6070   97.8290  173.6920 O.co2     1 NDP602      0.0000 
      4 O5B        54.5870   96.4700  172.8190 O.3       1 NDP602      0.0000 
      5 C5B        55.4180   95.6190  173.5950 C.3       1 NDP602      0.0000 
      6 C4B        55.5790   94.3480  172.7990 C.3       1 NDP602      0.0000 
      7 O4B        56.9350   93.8950  172.9200 O.3       1 NDP602      0.0000 
      8 C3B        54.6670   93.2070  173.2900 C.3       1 NDP602      0.0000 
      9 O3B        53.5560   93.0980  172.4740 O.3       1 NDP602      0.0000 
     10 C2B        55.5390   91.9280  173.1430 C.3       1 NDP602      0.0000 
     11 O2B        55.0620   91.0400  172.2710 O.3       1 NDP602      0.0000 
     12 C1B        56.9070   92.4960  172.5720 C.3       1 NDP602      0.0000 
     13 N9A        58.1150   91.8560  173.1520 N.pl3     1 NDP602      0.0000 
     14 C8A        58.4300   91.6510  174.5160 C.2       1 NDP602      0.0000 
     15 N7A        59.6080   91.0350  174.7120 N.2       1 NDP602      0.0000 
     16 C5A        60.0840   90.8370  173.4070 C.ar      1 NDP602      0.0000 
     17 C6A        61.2620   90.2700  172.9200 C.ar      1 NDP602      0.0000 
     18 N6A        62.1750   89.7820  173.7900 N.pl3     1 NDP602      0.0000 
     19 N1A        61.5280   90.1810  171.5820 N.ar      1 NDP602      0.0000 
     20 C2A        60.5460   90.6950  170.7670 C.ar      1 NDP602      0.0000 
     21 N3A        59.3680   91.2810  171.0640 N.ar      1 NDP602      0.0000 
     22 C4A        59.1580   91.3440  172.4240 C.ar      1 NDP602      0.0000 
     23 O3         54.7920   99.0620  173.4770 O.3       1 NDP602      0.0000 
     24 PN         54.4360   99.4060  171.9690 P.3       1 NDP602      0.0000 
     25 O1N        54.5370  100.8700  171.8070 O.co2     1 NDP602      0.0000 
     26 O2N        53.3300   98.5640  171.3710 O.co2     1 NDP602      0.0000 
     27 O5D        55.8020   98.9250  170.9440 O.3       1 NDP602      0.0000 
     28 C5D        56.9480   99.3880  171.5990 C.3       1 NDP602      0.0000 
     29 C4D        58.1210   98.6260  171.0760 C.3       1 NDP602      0.0000 
     30 O4D        57.7770   97.2520  171.2830 O.3       1 NDP602      0.0000 
     31 C3D        58.3080   98.8180  169.5970 C.3       1 NDP602      0.0000 
     32 O3D        59.1730   99.8700  169.4250 O.3       1 NDP602      0.0000 
     33 C2D        59.0030   97.4920  169.2290 C.3       1 NDP602      0.0000 
     34 O2D        60.3970   97.5020  169.4260 O.3       1 NDP602      0.0000 
     35 C1D        58.4210   96.5010  170.2690 C.3       1 NDP602      0.0000 
     36 N1N        57.3870   95.6160  169.6160 N.pl3     1 NDP602      0.0000 
     37 C2N        56.2550   96.1970  169.0980 C.2       1 NDP602      0.0000 
     38 C3N        55.2810   95.4510  168.5270 C.2       1 NDP602      0.0000 
     39 C7N        54.1140   96.1590  168.0100 C.2       1 NDP602      0.0000 
     40 O7N        53.5650   95.9490  166.9230 O.2       1 NDP602      0.0000 
     41 N7N        53.5860   97.1050  168.7750 N.am      1 NDP602      0.0000 
     42 C4N        55.3730   93.9520  168.4510 C.3       1 NDP602      0.0000 
     43 C5N        56.6270   93.4460  168.9980 C.2       1 NDP602      0.0000 
     44 C6N        57.5590   94.2390  169.5340 C.2       1 NDP602      0.0000 
     45 P2B        53.7380   90.0120  172.9920 P.3       1 NDP602      0.0000 
     46 O1X        53.7470   90.6320  174.3550 O.co2     1 NDP602      0.0000 
     47 O2X        54.2890   88.5890  172.8610 O.co2     1 NDP602      0.0000 
     48 O3X        52.6370   90.4150  172.0490 O.co2     1 NDP602      0.0000 
     49 H51A       56.2770   96.0340  173.7690 H         1 NDP602      0.0000 
     50 H52A       55.0220   95.4410  174.4620 H         1 NDP602      0.0000 
     51 H4B        55.3580   94.5800  171.8840 H         1 NDP602      0.0000 
     52 H3B        54.4310   93.3100  174.2250 H         1 NDP602      0.0000 
     53 HO3A       52.8850   93.2060  172.9850 H         1 NDP602      0.0000 
     54 H2B        55.7100   91.6250  174.0480 H         1 NDP602      0.0000 
     55 H1B        56.9600   92.3670  171.6120 H         1 NDP602      0.0000 
     56 H8A        57.8540   91.9280  175.1900 H         1 NDP602      0.0000 
     57 H61A       63.0060   89.9700  173.6760 H         1 NDP602      0.0000 
     58 H62A       61.9100   89.2900  174.4440 H         1 NDP602      0.0000 
     59 H2A        60.7410   90.6190  169.8600 H         1 NDP602      0.0000 
     60 H51N       57.0910  100.3380  171.4640 H         1 NDP602      0.0000 
     61 H52N       56.8920   99.2790  172.5610 H         1 NDP602      0.0000 
     62 H4D        58.9450   98.9000  171.5090 H         1 NDP602      0.0000 
     63 H3D        57.4660   98.9400  169.1310 H         1 NDP602      0.0000 
     64 HO3N       59.0820  100.1120  168.6150 H         1 NDP602      0.0000 
     65 H2D        58.7760   97.2440  168.3190 H         1 NDP602      0.0000 
     66 HO2N       60.5950   96.7180  169.6880 H         1 NDP602      0.0000 
     67 H1D        59.1230   95.9690  170.6760 H         1 NDP602      0.0000 
     68 H2N        56.1790   97.1230  169.1520 H         1 NDP602      0.0000 
     69 H71N       53.9380   97.2810  169.5400 H         1 NDP602      0.0000 
     70 H72N       52.8950   97.5380  168.5020 H         1 NDP602      0.0000 
     71 H41N       54.6360   93.5440  168.9310 H         1 NDP602      0.0000 
     72 H42N       55.2920   93.6550  167.5310 H         1 NDP602      0.0000 
     73 H5N        56.7790   92.5290  168.9700 H         1 NDP602      0.0000 
     74 H6N        58.3570   93.9030  169.8720 H         1 NDP602      0.0000 
@<TRIPOS>BOND
     1    1    2 ar   
     2    1    3 ar   
     3    1    4 1    
     4    1   23 1    
     5    4    5 1    
     6    5    6 1    
     7    5   49 1    
     8    5   50 1    
     9    6    7 1    
    10    6    8 1    
    11    6   51 1    
    12    7   12 1    
    13    8    9 1    
    14    8   10 1    
    15    8   52 1    
    16    9   53 1    
    17   10   11 1    
    18   10   12 1    
    19   10   54 1    
    20   11   45 1    
    21   12   13 1    
    22   12   55 1    
    23   13   14 1    
    24   13   22 1    
    25   14   15 2    
    26   15   16 1    
    27   14   56 1    
    28   16   17 ar   
    29   16   22 ar   
    30   17   18 1    
    31   17   19 ar   
    32   19   20 ar   
    33   18   57 1    
    34   18   58 1    
    35   20   21 ar   
    36   21   22 ar   
    37   20   59 1    
    38   23   24 1    
    39   24   25 ar   
    40   24   26 ar   
    41   24   27 1    
    42   27   28 1    
    43   28   29 1    
    44   28   60 1    
    45   28   61 1    
    46   29   30 1    
    47   29   31 1    
    48   29   62 1    
    49   30   35 1    
    50   31   32 1    
    51   31   33 1    
    52   31   63 1    
    53   32   64 1    
    54   34   66 1    
    55   33   34 1    
    56   33   35 1    
    57   33   65 1    
    58   35   36 1    
    59   35   67 1    
    60   36   37 1    
    61   36   44 1    
    62   37   38 2    
    63   38   39 1    
    64   37   68 1    
    65   38   42 1    
    66   39   40 2    
    67   39   41 am   
    68   42   43 1    
    69   41   69 1    
    70   41   70 1    
    71   42   71 1    
    72   42   72 1    
    73   43   44 2    
    74   45   46 ar   
    75   43   73 1    
    76   44   74 1    
    77   45   47 ar   
    78   45   48 ar   
@<TRIPOS>SUBSTRUCTURE
     1 NDP602      1 GROUP   
@<TRIPOS>SET
ATOM$ORANGE STATIC     ATOMS   COLORGROUP SYSTEM 
42 5 5 6 6 8 8 10 10 12 12 14 14 16 16 17 17 20 \
20 22 22 28 28 29 29 31 31 33 33 35 35 37 37 38 38 39 \
39 42 42 43 43 44 44 

