#    Name: 6jnt_2_NDP
#    Modification time : Fri May 22 19:34:47 2020

@<TRIPOS>MOLECULE
6jnt_2_NDP
   74    78     1     0     1
SMALL
NO_CHARGES


@<TRIPOS>ATOM
      1 PA         55.9780  105.4210  103.7390 P.3       1 NDP602      0.0000 
      2 O1A        55.4490  105.0530  102.3960 O.co2     1 NDP602      0.0000 
      3 O2A        57.1560  106.3400  103.8890 O.co2     1 NDP602      0.0000 
      4 O5B        56.2340  104.0610  104.6200 O.3       1 NDP602      0.0000 
      5 C5B        56.5140  103.0840  103.6740 C.3       1 NDP602      0.0000 
      6 C4B        57.2120  101.9090  104.3720 C.3       1 NDP602      0.0000 
      7 O4B        56.3800  100.7670  104.0970 O.3       1 NDP602      0.0000 
      8 C3B        58.5930  101.6680  103.8310 C.3       1 NDP602      0.0000 
      9 O3B        59.5370  101.7590  104.8780 O.3       1 NDP602      0.0000 
     10 C2B        58.5670  100.1990  103.3650 C.3       1 NDP602      0.0000 
     11 O2B        59.6010   99.4580  103.8100 O.3       1 NDP602      0.0000 
     12 C1B        57.2390   99.6880  104.0450 C.3       1 NDP602      0.0000 
     13 N9A        56.6060   98.6470  103.2230 N.pl3     1 NDP602      0.0000 
     14 C8A        56.4040   98.6370  101.8260 C.2       1 NDP602      0.0000 
     15 N7A        55.7650   97.5230  101.3800 N.2       1 NDP602      0.0000 
     16 C5A        55.5570   96.7810  102.5330 C.ar      1 NDP602      0.0000 
     17 C6A        54.9670   95.5400  102.7480 C.ar      1 NDP602      0.0000 
     18 N6A        54.4580   94.8320  101.6940 N.pl3     1 NDP602      0.0000 
     19 N1A        54.8700   94.9930  104.0010 N.ar      1 NDP602      0.0000 
     20 C2A        55.4000   95.7640  105.0140 C.ar      1 NDP602      0.0000 
     21 N3A        55.9920   96.9510  104.9750 N.ar      1 NDP602      0.0000 
     22 C4A        56.0700   97.4610  103.6940 C.ar      1 NDP602      0.0000 
     23 O3         54.6930  106.2220  104.3620 O.3       1 NDP602      0.0000 
     24 PN         54.8840  106.3050  105.9400 P.3       1 NDP602      0.0000 
     25 O1N        53.9330  107.3030  106.4690 O.co2     1 NDP602      0.0000 
     26 O2N        56.3260  106.2050  106.3870 O.co2     1 NDP602      0.0000 
     27 O5D        54.2090  104.8560  106.6480 O.3       1 NDP602      0.0000 
     28 C5D        52.9010  104.7980  106.1530 C.3       1 NDP602      0.0000 
     29 C4D        52.3660  103.4110  106.4320 C.3       1 NDP602      0.0000 
     30 O4D        53.3780  102.5350  105.9250 O.3       1 NDP602      0.0000 
     31 C3D        52.2190  103.1440  107.9090 C.3       1 NDP602      0.0000 
     32 O3D        50.8910  103.4160  108.2500 O.3       1 NDP602      0.0000 
     33 C2D        52.5150  101.6480  107.9620 C.3       1 NDP602      0.0000 
     34 O2D        51.3500  100.8680  107.8110 O.3       1 NDP602      0.0000 
     35 C1D        53.3790  101.3970  106.7320 C.3       1 NDP602      0.0000 
     36 N1N        54.8060  101.1970  107.1950 N.pl3     1 NDP602      0.0000 
     37 C2N        55.4130  102.2240  107.9180 C.2       1 NDP602      0.0000 
     38 C3N        56.7090  102.1180  108.3320 C.2       1 NDP602      0.0000 
     39 C7N        57.2250  103.2280  109.0900 C.2       1 NDP602      0.0000 
     40 O7N        58.0110  103.1380  110.0400 O.2       1 NDP602      0.0000 
     41 N7N        56.7700  104.4300  108.6960 N.am      1 NDP602      0.0000 
     42 C4N        57.5510  100.9230  108.0240 C.3       1 NDP602      0.0000 
     43 C5N        56.8170   99.8780  107.2920 C.2       1 NDP602      0.0000 
     44 C6N        55.5370  100.0190  106.9220 C.2       1 NDP602      0.0000 
     45 P2B        61.1210   99.7090  102.8300 P.3       1 NDP602      0.0000 
     46 O1X        60.4680  100.0130  101.5180 O.co2     1 NDP602      0.0000 
     47 O2X        61.8550   98.3690  102.9540 O.co2     1 NDP602      0.0000 
     48 O3X        61.6530  100.8700  103.6210 O.co2     1 NDP602      0.0000 
     49 H51A       55.6980  102.7870  103.2420 H         1 NDP602      0.0000 
     50 H52A       57.0770  103.4450  102.9710 H         1 NDP602      0.0000 
     51 H4B        57.2900  102.0900  105.3220 H         1 NDP602      0.0000 
     52 H3B        58.7870  102.2460  103.0760 H         1 NDP602      0.0000 
     53 HO3A       60.1930  102.1950  104.5580 H         1 NDP602      0.0000 
     54 H2B        58.4220  100.2130  102.4060 H         1 NDP602      0.0000 
     55 H1B        57.3900   99.3400  104.9380 H         1 NDP602      0.0000 
     56 H8A        56.6920   99.3400  101.2900 H         1 NDP602      0.0000 
     57 H61A       54.8570   94.8670  100.9330 H         1 NDP602      0.0000 
     58 H62A       53.7470   94.3620  101.8090 H         1 NDP602      0.0000 
     59 H2A        55.3250   95.3760  105.8560 H         1 NDP602      0.0000 
     60 H51N       52.3220  105.4600  106.5610 H         1 NDP602      0.0000 
     61 H52N       52.8570  104.9800  105.2010 H         1 NDP602      0.0000 
     62 H4D        51.4910  103.2740  106.0360 H         1 NDP602      0.0000 
     63 H3D        52.8500  103.6510  108.4440 H         1 NDP602      0.0000 
     64 HO3N       50.9110  103.6860  109.0550 H         1 NDP602      0.0000 
     65 H2D        53.0080  101.4310  108.7690 H         1 NDP602      0.0000 
     66 HO2N       51.6220  100.0950  107.5840 H         1 NDP602      0.0000 
     67 H1D        53.0360  100.6550  106.2090 H         1 NDP602      0.0000 
     68 H2N        54.9080  102.9810  108.1070 H         1 NDP602      0.0000 
     69 H71N       57.0290  105.1390  109.1080 H         1 NDP602      0.0000 
     70 H72N       56.2230  104.4820  108.0350 H         1 NDP602      0.0000 
     71 H41N       58.3230  101.1850  107.4970 H         1 NDP602      0.0000 
     72 H42N       57.9010  100.5400  108.8430 H         1 NDP602      0.0000 
     73 H5N        57.2640   99.0900  107.0810 H         1 NDP602      0.0000 
     74 H6N        55.0780   99.3470  106.4710 H         1 NDP602      0.0000 
@<TRIPOS>BOND
     1    1    2 ar   
     2    1    3 ar   
     3    1    4 1    
     4    1   23 1    
     5    4    5 1    
     6    5    6 1    
     7    5   49 1    
     8    5   50 1    
     9    6    7 1    
    10    6    8 1    
    11    6   51 1    
    12    7   12 1    
    13    8    9 1    
    14    8   10 1    
    15    8   52 1    
    16    9   53 1    
    17   10   11 1    
    18   10   12 1    
    19   10   54 1    
    20   11   45 1    
    21   12   13 1    
    22   12   55 1    
    23   13   14 1    
    24   13   22 1    
    25   14   15 2    
    26   15   16 1    
    27   14   56 1    
    28   16   17 ar   
    29   16   22 ar   
    30   17   18 1    
    31   17   19 ar   
    32   19   20 ar   
    33   18   57 1    
    34   18   58 1    
    35   20   21 ar   
    36   21   22 ar   
    37   20   59 1    
    38   23   24 1    
    39   24   25 ar   
    40   24   26 ar   
    41   24   27 1    
    42   27   28 1    
    43   28   29 1    
    44   28   60 1    
    45   28   61 1    
    46   29   30 1    
    47   29   31 1    
    48   29   62 1    
    49   30   35 1    
    50   31   32 1    
    51   31   33 1    
    52   31   63 1    
    53   32   64 1    
    54   34   66 1    
    55   33   34 1    
    56   33   35 1    
    57   33   65 1    
    58   35   36 1    
    59   35   67 1    
    60   36   37 1    
    61   36   44 1    
    62   37   38 2    
    63   38   39 1    
    64   37   68 1    
    65   38   42 1    
    66   39   40 2    
    67   39   41 am   
    68   42   43 1    
    69   41   69 1    
    70   41   70 1    
    71   42   71 1    
    72   42   72 1    
    73   43   44 2    
    74   45   46 ar   
    75   43   73 1    
    76   44   74 1    
    77   45   47 ar   
    78   45   48 ar   
@<TRIPOS>SUBSTRUCTURE
     1 NDP602      1 GROUP   
@<TRIPOS>SET
ATOM$ORANGE STATIC     ATOMS   COLORGROUP SYSTEM 
42 5 5 6 6 8 8 10 10 12 12 14 14 16 16 17 17 20 \
20 22 22 28 28 29 29 31 31 33 33 35 35 37 37 38 38 39 \
39 42 42 43 43 44 44 

