#    Name: 6jnt_4_NDP
#    Modification time : Fri May 22 19:34:57 2020

@<TRIPOS>MOLECULE
6jnt_4_NDP
   74    78     1     0     1
SMALL
NO_CHARGES


@<TRIPOS>ATOM
      1 PA         97.0350   43.0170  161.4270 P.3       1 NDP602      0.0000 
      2 O1A        97.4130   43.3250  162.8340 O.co2     1 NDP602      0.0000 
      3 O2A        98.0540   42.5800  160.4170 O.co2     1 NDP602      0.0000 
      4 O5B        96.1330   44.2520  160.8140 O.3       1 NDP602      0.0000 
      5 C5B        95.6130   44.9040  161.9390 C.3       1 NDP602      0.0000 
      6 C4B        94.8600   46.1330  161.4410 C.3       1 NDP602      0.0000 
      7 O4B        93.8710   46.5490  162.3950 O.3       1 NDP602      0.0000 
      8 C3B        95.8210   47.3240  161.1930 C.3       1 NDP602      0.0000 
      9 O3B        95.8600   47.6470  159.8470 O.3       1 NDP602      0.0000 
     10 C2B        95.1380   48.5000  161.9750 C.3       1 NDP602      0.0000 
     11 O2B        95.1160   49.6550  161.3210 O.3       1 NDP602      0.0000 
     12 C1B        93.6600   47.9230  162.1560 C.3       1 NDP602      0.0000 
     13 N9A        92.9730   48.5430  163.2870 N.pl3     1 NDP602      0.0000 
     14 C8A        93.3850   48.6480  164.6260 C.2       1 NDP602      0.0000 
     15 N7A        92.5000   49.2950  165.4130 N.2       1 NDP602      0.0000 
     16 C5A        91.4520   49.6350  164.5290 C.ar      1 NDP602      0.0000 
     17 C6A        90.2320   50.3080  164.7240 C.ar      1 NDP602      0.0000 
     18 N6A        89.8950   50.7680  165.9680 N.pl3     1 NDP602      0.0000 
     19 N1A        89.3590   50.5160  163.7030 N.ar      1 NDP602      0.0000 
     20 C2A        89.7560   50.0290  162.4890 C.ar      1 NDP602      0.0000 
     21 N3A        90.8640   49.3730  162.1320 N.ar      1 NDP602      0.0000 
     22 C4A        91.7300   49.1770  163.2010 C.ar      1 NDP602      0.0000 
     23 O3         96.0540   41.6840  161.6820 O.3       1 NDP602      0.0000 
     24 PN         95.5340   41.0950  160.2790 P.3       1 NDP602      0.0000 
     25 O1N        95.4230   39.6280  160.4090 O.co2     1 NDP602      0.0000 
     26 O2N        96.0880   41.7960  159.0570 O.co2     1 NDP602      0.0000 
     27 O5D        93.8420   41.5340  160.1570 O.3       1 NDP602      0.0000 
     28 C5D        93.1270   40.9410  161.2180 C.3       1 NDP602      0.0000 
     29 C4D        91.9730   41.8750  161.5760 C.3       1 NDP602      0.0000 
     30 O4D        92.3380   43.2500  161.5190 O.3       1 NDP602      0.0000 
     31 C3D        90.9240   41.6460  160.4260 C.3       1 NDP602      0.0000 
     32 O3D        90.0640   40.6260  160.8010 O.3       1 NDP602      0.0000 
     33 C2D        90.2470   43.0040  160.3700 C.3       1 NDP602      0.0000 
     34 O2D        89.0880   43.0210  161.1720 O.3       1 NDP602      0.0000 
     35 C1D        91.2440   43.9590  161.0080 C.3       1 NDP602      0.0000 
     36 N1N        91.8030   44.8590  159.9190 N.pl3     1 NDP602      0.0000 
     37 C2N        92.3900   44.2760  158.8050 C.2       1 NDP602      0.0000 
     38 C3N        92.8970   45.0350  157.8040 C.2       1 NDP602      0.0000 
     39 C7N        93.4900   44.3340  156.6820 C.2       1 NDP602      0.0000 
     40 O7N        93.2760   44.5820  155.4880 O.2       1 NDP602      0.0000 
     41 N7N        94.3540   43.3530  156.9480 N.am      1 NDP602      0.0000 
     42 C4N        92.8690   46.5400  157.8360 C.3       1 NDP602      0.0000 
     43 C5N        92.2750   47.0620  159.0820 C.2       1 NDP602      0.0000 
     44 C6N        91.7750   46.2560  160.0330 C.2       1 NDP602      0.0000 
     45 P2B        96.7190   50.5390  161.4830 P.3       1 NDP602      0.0000 
     46 O1X        97.0340   50.1050  162.8810 O.co2     1 NDP602      0.0000 
     47 O2X        96.3580   52.0130  161.2740 O.co2     1 NDP602      0.0000 
     48 O3X        97.4420   49.8410  160.3640 O.co2     1 NDP602      0.0000 
     49 H51A       95.0250   44.3150  162.4370 H         1 NDP602      0.0000 
     50 H52A       96.3230   45.1560  162.5490 H         1 NDP602      0.0000 
     51 H4B        94.4180   45.8580  160.6220 H         1 NDP602      0.0000 
     52 H3B        96.7070   47.1620  161.5540 H         1 NDP602      0.0000 
     53 HO3A       96.6670   47.5310  159.6060 H         1 NDP602      0.0000 
     54 H2B        95.5350   48.5240  162.8600 H         1 NDP602      0.0000 
     55 H1B        93.0770   48.0550  161.3920 H         1 NDP602      0.0000 
     56 H8A        94.1960   48.2950  164.9120 H         1 NDP602      0.0000 
     57 H61A       89.8400   50.2110  166.6200 H         1 NDP602      0.0000 
     58 H62A       89.7450   51.6080  166.0780 H         1 NDP602      0.0000 
     59 H2A        89.1440   50.1880  161.8070 H         1 NDP602      0.0000 
     60 H51N       93.6800   40.7910  162.0010 H         1 NDP602      0.0000 
     61 H52N       92.7790   40.0650  160.9870 H         1 NDP602      0.0000 
     62 H4D        91.6500   41.7070  162.4750 H         1 NDP602      0.0000 
     63 H3D        91.3540   41.4410  159.5810 H         1 NDP602      0.0000 
     64 HO3N       89.6890   40.3660  160.0830 H         1 NDP602      0.0000 
     65 H2D        90.0860   43.2710  159.4520 H         1 NDP602      0.0000 
     66 HO2N       88.6130   43.6600  160.8730 H         1 NDP602      0.0000 
     67 H1D        90.8280   44.4400  161.7400 H         1 NDP602      0.0000 
     68 H2N        92.4230   43.3480  158.7680 H         1 NDP602      0.0000 
     69 H71N       94.5320   43.1510  157.7650 H         1 NDP602      0.0000 
     70 H72N       94.7280   42.9280  156.3010 H         1 NDP602      0.0000 
     71 H41N       92.3650   46.8840  157.0820 H         1 NDP602      0.0000 
     72 H42N       93.7660   46.8960  157.7450 H         1 NDP602      0.0000 
     73 H5N        92.2480   47.9830  159.2080 H         1 NDP602      0.0000 
     74 H6N        91.3890   46.5940  160.8090 H         1 NDP602      0.0000 
@<TRIPOS>BOND
     1    1    2 ar   
     2    1    3 ar   
     3    1    4 1    
     4    1   23 1    
     5    4    5 1    
     6    5    6 1    
     7    5   49 1    
     8    5   50 1    
     9    6    7 1    
    10    6    8 1    
    11    6   51 1    
    12    7   12 1    
    13    8    9 1    
    14    8   10 1    
    15    8   52 1    
    16    9   53 1    
    17   10   11 1    
    18   10   12 1    
    19   10   54 1    
    20   11   45 1    
    21   12   13 1    
    22   12   55 1    
    23   13   14 1    
    24   13   22 1    
    25   14   15 2    
    26   15   16 1    
    27   14   56 1    
    28   16   17 ar   
    29   16   22 ar   
    30   17   18 1    
    31   17   19 ar   
    32   19   20 ar   
    33   18   57 1    
    34   18   58 1    
    35   20   21 ar   
    36   21   22 ar   
    37   20   59 1    
    38   23   24 1    
    39   24   25 ar   
    40   24   26 ar   
    41   24   27 1    
    42   27   28 1    
    43   28   29 1    
    44   28   60 1    
    45   28   61 1    
    46   29   30 1    
    47   29   31 1    
    48   29   62 1    
    49   30   35 1    
    50   31   32 1    
    51   31   33 1    
    52   31   63 1    
    53   32   64 1    
    54   34   66 1    
    55   33   34 1    
    56   33   35 1    
    57   33   65 1    
    58   35   36 1    
    59   35   67 1    
    60   36   37 1    
    61   36   44 1    
    62   37   38 2    
    63   38   39 1    
    64   37   68 1    
    65   38   42 1    
    66   39   40 2    
    67   39   41 am   
    68   42   43 1    
    69   41   69 1    
    70   41   70 1    
    71   42   71 1    
    72   42   72 1    
    73   43   44 2    
    74   45   46 ar   
    75   43   73 1    
    76   44   74 1    
    77   45   47 ar   
    78   45   48 ar   
@<TRIPOS>SUBSTRUCTURE
     1 NDP602      1 GROUP   
@<TRIPOS>SET
ATOM$ORANGE STATIC     ATOMS   COLORGROUP SYSTEM 
42 5 5 6 6 8 8 10 10 12 12 14 14 16 16 17 17 20 \
20 22 22 28 28 29 29 31 31 33 33 35 35 37 37 38 38 39 \
39 42 42 43 43 44 44 

