#    Name: 6jnt_3_NDP
#    Modification time : Fri May 22 19:34:52 2020

@<TRIPOS>MOLECULE
6jnt_3_NDP
   74    78     1     0     1
SMALL
NO_CHARGES


@<TRIPOS>ATOM
      1 PA         57.1450   35.1820  103.3480 P.3       1 NDP602      0.0000 
      2 O1A        56.6030   35.3830  101.9760 O.co2     1 NDP602      0.0000 
      3 O2A        56.7860   33.9780  104.1660 O.co2     1 NDP602      0.0000 
      4 O5B        56.8840   36.5290  104.2320 O.3       1 NDP602      0.0000 
      5 C5B        57.3480   37.5580  103.4220 C.3       1 NDP602      0.0000 
      6 C4B        56.9820   38.8530  104.1080 C.3       1 NDP602      0.0000 
      7 O4B        57.4340   39.9630  103.3540 O.3       1 NDP602      0.0000 
      8 C3B        55.4630   38.9970  104.2880 C.3       1 NDP602      0.0000 
      9 O3B        55.1210   38.7300  105.6130 O.3       1 NDP602      0.0000 
     10 C2B        55.1910   40.4960  103.9770 C.3       1 NDP602      0.0000 
     11 O2B        54.6030   41.1650  104.9840 O.3       1 NDP602      0.0000 
     12 C1B        56.6360   41.0530  103.7820 C.3       1 NDP602      0.0000 
     13 N9A        56.7220   42.1020  102.7490 N.pl3     1 NDP602      0.0000 
     14 C8A        56.0420   42.1850  101.5250 C.2       1 NDP602      0.0000 
     15 N7A        56.3620   43.2870  100.8060 N.2       1 NDP602      0.0000 
     16 C5A        57.3000   43.9440  101.6140 C.ar      1 NDP602      0.0000 
     17 C6A        58.0140   45.1400  101.4450 C.ar      1 NDP602      0.0000 
     18 N6A        57.8430   45.8960  100.3190 N.pl3     1 NDP602      0.0000 
     19 N1A        58.8920   45.5970  102.3860 N.ar      1 NDP602      0.0000 
     20 C2A        59.0130   44.7840  103.4980 C.ar      1 NDP602      0.0000 
     21 N3A        58.4120   43.6330  103.8080 N.ar      1 NDP602      0.0000 
     22 C4A        57.5370   43.2220  102.8260 C.ar      1 NDP602      0.0000 
     23 O3         58.7630   35.0450  102.9920 O.3       1 NDP602      0.0000 
     24 PN         59.5300   34.4000  104.2280 P.3       1 NDP602      0.0000 
     25 O1N        60.2230   33.1860  103.7510 O.co2     1 NDP602      0.0000 
     26 O2N        58.7910   34.4760  105.5470 O.co2     1 NDP602      0.0000 
     27 O5D        60.8910   35.4450  104.5970 O.3       1 NDP602      0.0000 
     28 C5D        61.6340   35.7540  103.4400 C.3       1 NDP602      0.0000 
     29 C4D        61.8310   37.2470  103.3960 C.3       1 NDP602      0.0000 
     30 O4D        60.7040   37.9480  103.8560 O.3       1 NDP602      0.0000 
     31 C3D        62.9570   37.5390  104.4550 C.3       1 NDP602      0.0000 
     32 O3D        64.1920   37.4340  103.8450 O.3       1 NDP602      0.0000 
     33 C2D        62.6170   38.9690  104.8580 C.3       1 NDP602      0.0000 
     34 O2D        63.3900   39.9130  104.1520 O.3       1 NDP602      0.0000 
     35 C1D        61.1780   39.1580  104.3890 C.3       1 NDP602      0.0000 
     36 N1N        60.3330   39.4560  105.5890 N.pl3     1 NDP602      0.0000 
     37 C2N        60.1480   38.4540  106.5230 C.2       1 NDP602      0.0000 
     38 C3N        59.3020   38.6180  107.5820 C.2       1 NDP602      0.0000 
     39 C7N        59.1690   37.5090  108.5240 C.2       1 NDP602      0.0000 
     40 O7N        58.7240   37.5970  109.6680 O.2       1 NDP602      0.0000 
     41 N7N        59.5820   36.3270  108.0610 N.am      1 NDP602      0.0000 
     42 C4N        58.5360   39.8880  107.7850 C.3       1 NDP602      0.0000 
     43 C5N        58.8960   40.9310  106.8080 C.2       1 NDP602      0.0000 
     44 C6N        59.7380   40.7070  105.7930 C.2       1 NDP602      0.0000 
     45 P2B        52.7530   41.1050  104.9070 P.3       1 NDP602      0.0000 
     46 O1X        52.6270   41.0540  103.4150 O.co2     1 NDP602      0.0000 
     47 O2X        52.3500   42.4060  105.6090 O.co2     1 NDP602      0.0000 
     48 O3X        52.5470   39.8220  105.6610 O.co2     1 NDP602      0.0000 
     49 H51A       58.3070   37.4920  103.2930 H         1 NDP602      0.0000 
     50 H52A       56.9520   37.5090  102.5380 H         1 NDP602      0.0000 
     51 H4B        57.4360   38.8280  104.9650 H         1 NDP602      0.0000 
     52 H3B        54.9610   38.4570  103.6580 H         1 NDP602      0.0000 
     53 HO3A       54.6720   38.0080  105.5930 H         1 NDP602      0.0000 
     54 H2B        54.7520   40.5200  103.1120 H         1 NDP602      0.0000 
     55 H1B        56.9730   41.4320  104.6090 H         1 NDP602      0.0000 
     56 H8A        55.4360   41.5300  101.2620 H         1 NDP602      0.0000 
     57 H61A       57.2250   46.4950  100.3050 H         1 NDP602      0.0000 
     58 H62A       58.3550   45.7620   99.6410 H         1 NDP602      0.0000 
     59 H2A        59.6180   45.1040  104.1270 H         1 NDP602      0.0000 
     60 H51N       61.1900   35.4610  102.6280 H         1 NDP602      0.0000 
     61 H52N       62.4970   35.3110  103.4270 H         1 NDP602      0.0000 
     62 H4D        62.0220   37.5390  102.4900 H         1 NDP602      0.0000 
     63 H3D        62.8980   36.9400  105.2150 H         1 NDP602      0.0000 
     64 HO3N       64.6100   36.8320  104.2750 H         1 NDP602      0.0000 
     65 H2D        62.6780   39.0690  105.8210 H         1 NDP602      0.0000 
     66 HO2N       62.9760   40.6510  104.2310 H         1 NDP602      0.0000 
     67 H1D        61.1180   39.8390  103.7000 H         1 NDP602      0.0000 
     68 H2N        60.6200   37.6610  106.4050 H         1 NDP602      0.0000 
     69 H71N       59.5360   35.6320  108.5650 H         1 NDP602      0.0000 
     70 H72N       59.8910   36.2680  107.2600 H         1 NDP602      0.0000 
     71 H41N       57.5830   39.7190  107.7220 H         1 NDP602      0.0000 
     72 H42N       58.6890   40.2340  108.6780 H         1 NDP602      0.0000 
     73 H5N        58.5200   41.7760  106.9050 H         1 NDP602      0.0000 
     74 H6N        59.9630   41.3710  105.1830 H         1 NDP602      0.0000 
@<TRIPOS>BOND
     1    1    2 ar   
     2    1    3 ar   
     3    1    4 1    
     4    1   23 1    
     5    4    5 1    
     6    5    6 1    
     7    5   49 1    
     8    5   50 1    
     9    6    7 1    
    10    6    8 1    
    11    6   51 1    
    12    7   12 1    
    13    8    9 1    
    14    8   10 1    
    15    8   52 1    
    16    9   53 1    
    17   10   11 1    
    18   10   12 1    
    19   10   54 1    
    20   11   45 1    
    21   12   13 1    
    22   12   55 1    
    23   13   14 1    
    24   13   22 1    
    25   14   15 2    
    26   15   16 1    
    27   14   56 1    
    28   16   17 ar   
    29   16   22 ar   
    30   17   18 1    
    31   17   19 ar   
    32   19   20 ar   
    33   18   57 1    
    34   18   58 1    
    35   20   21 ar   
    36   21   22 ar   
    37   20   59 1    
    38   23   24 1    
    39   24   25 ar   
    40   24   26 ar   
    41   24   27 1    
    42   27   28 1    
    43   28   29 1    
    44   28   60 1    
    45   28   61 1    
    46   29   30 1    
    47   29   31 1    
    48   29   62 1    
    49   30   35 1    
    50   31   32 1    
    51   31   33 1    
    52   31   63 1    
    53   32   64 1    
    54   34   66 1    
    55   33   34 1    
    56   33   35 1    
    57   33   65 1    
    58   35   36 1    
    59   35   67 1    
    60   36   37 1    
    61   36   44 1    
    62   37   38 2    
    63   38   39 1    
    64   37   68 1    
    65   38   42 1    
    66   39   40 2    
    67   39   41 am   
    68   42   43 1    
    69   41   69 1    
    70   41   70 1    
    71   42   71 1    
    72   42   72 1    
    73   43   44 2    
    74   45   46 ar   
    75   43   73 1    
    76   44   74 1    
    77   45   47 ar   
    78   45   48 ar   
@<TRIPOS>SUBSTRUCTURE
     1 NDP602      1 GROUP   
@<TRIPOS>SET
ATOM$ORANGE STATIC     ATOMS   COLORGROUP SYSTEM 
42 5 5 6 6 8 8 10 10 12 12 14 14 16 16 17 17 20 \
20 22 22 28 28 29 29 31 31 33 33 35 35 37 37 38 38 39 \
39 42 42 43 43 44 44 

