#    Name: 6l8k_1_UTP
#    Modification time : Fri May 22 19:33:13 2020

@<TRIPOS>MOLECULE
6l8k_1_UTP
   29    30     1     0     0
SMALL
NO_CHARGES


@<TRIPOS>ATOM
      1 PA         25.1270   -2.5450   11.7990 P.3       1 UTP801      0.0000 
      2 O1A        24.7560   -2.9080   10.3760 O.co2     1 UTP801      0.0000 
      3 O2A        26.2990   -1.5340   11.8040 O.co2     1 UTP801      0.0000 
      4 O3A        23.8090   -1.9020   12.5590 O.3       1 UTP801      0.0000 
      5 O5'        25.5860   -3.9390   12.6630 O.3       1 UTP801      0.0000 
      6 PB         22.3980   -1.4980   11.7490 P.3       1 UTP801      0.0000 
      7 O1B        21.5300   -2.7760   11.4930 O.co2     1 UTP801      0.0000 
      8 O2B        22.7470   -0.8250   10.4060 O.co2     1 UTP801      0.0000 
      9 O3B        21.5750   -0.4780   12.6750 O.3       1 UTP801      0.0000 
     10 PG         20.6450    0.7020   12.0440 P.3       1 UTP801      0.0000 
     11 O1G        21.4910    1.9840   11.8930 O.co2     1 UTP801      0.0000 
     12 O2G        20.1440    0.2650   10.6870 O.co2     1 UTP801      0.0000 
     13 O3G        19.4530    0.9670   12.9850 O.co2     1 UTP801      0.0000 
     14 C5'        25.3060   -3.9320   14.0580 C.3       1 UTP801      0.0000 
     15 C4'        25.4620   -5.3820   14.6240 C.3       1 UTP801      0.0000 
     16 O4'        26.2680   -6.2670   13.6260 O.3       1 UTP801      0.0000 
     17 C1'        27.4640   -6.8050   14.3920 C.3       1 UTP801      0.0000 
     18 C2'        27.3710   -6.3580   15.6430 C.3       1 UTP801      0.0000 
     19 O2'        27.1790   -7.4690   16.5410 O.3       1 UTP801      0.0000 
     20 C3'        26.1280   -5.3430   15.7420 C.3       1 UTP801      0.0000 
     21 O3'        25.2290   -5.7400   16.8540 O.3       1 UTP801      0.0000 
     22 N1         28.7180   -6.3340   13.7790 N.am      1 UTP801      0.0000 
     23 C6         28.7560   -5.1630   13.1520 C.2       1 UTP801      0.0000 
     24 C2         29.8380   -7.1020   13.8570 C.2       1 UTP801      0.0000 
     25 O2         29.8050   -8.1320   14.4090 O.2       1 UTP801      0.0000 
     26 N3         31.0080   -6.6680   13.2890 N.am      1 UTP801      0.0000 
     27 C4         31.0490   -5.4970   12.6600 C.2       1 UTP801      0.0000 
     28 O4         32.0960   -5.1120   12.1510 O.2       1 UTP801      0.0000 
     29 C5         29.9320   -4.7240   12.5790 C.2       1 UTP801      0.0000 
@<TRIPOS>BOND
     1    1    2 ar   
     2    1    3 ar   
     3    1    4 1    
     4    1    5 1    
     5    4    6 1    
     6    5   14 1    
     7    6    7 ar   
     8    6    8 ar   
     9    6    9 1    
    10    9   10 1    
    11   10   11 ar   
    12   10   12 ar   
    13   10   13 ar   
    14   14   15 1    
    15   15   16 1    
    16   15   20 1    
    17   16   17 1    
    18   17   18 1    
    19   17   22 1    
    20   18   19 1    
    21   18   20 1    
    22   20   21 1    
    23   22   23 1    
    24   22   24 1    
    25   23   29 2    
    26   24   25 2    
    27   24   26 1    
    28   26   27 1    
    29   27   28 2    
    30   27   29 1    
@<TRIPOS>SUBSTRUCTURE
     1 UTP801      1 GROUP   
@<TRIPOS>SET

