#    Name: 6l8k_1_UTP_CAVITY_N1_6
#    Modification time : Fri May 22 19:33:14 2020

@<TRIPOS>MOLECULE
6l8k_1_UTP_CAVITY_N1_6
   81     0     6     0     0
SMALL
NO_CHARGES


@<TRIPOS>ATOM
      1 OG         22.7300   -3.7100   14.2400 O.3       1 SER1        0.0000 
      2 OG         23.8100   -3.5300   12.4200 O.3       1 SER1        0.0000 
      3 OG         22.8600   -1.1300   12.1100 O.3       1 SER1        0.0000 
      4 OG         23.1200   -1.7900   13.4300 O.3       1 SER1        0.0000 
      5 OG         23.3800   -2.4600   14.7500 O.3       1 SER1        0.0000 
      6 OG         24.4500   -2.2700   12.9300 O.3       1 SER1        0.0000 
      7 OG         22.1700    0.6000   13.1100 O.3       1 SER1        0.0000 
      8 OG         22.6900   -0.7200   15.7500 O.3       1 SER1        0.0000 
      9 OG         24.0200   -1.2000   15.2500 O.3       1 SER1        0.0000 
     10 OG         27.7500   -1.9700   12.4300 O.3       1 SER1        0.0000 
     11 O          26.3900  -10.0700   12.0600 O.2       2 ALA2        0.0000 
     12 N          26.8600   -8.3900   16.2100 N.am      2 ALA2        0.0000 
     13 O          28.5700   -6.9500   14.8900 O.2       2 ALA2        0.0000 
     14 O          28.8300   -7.6100   16.2100 O.2       2 ALA2        0.0000 
     15 O          29.9000   -7.4300   14.3900 O.2       2 ALA2        0.0000 
     16 O          31.2300   -7.9100   13.8900 O.2       2 ALA2        0.0000 
     17 O          31.4900   -8.5700   15.2100 O.2       2 ALA2        0.0000 
     18 O          23.6400   -3.1200   16.0700 O.2       2 ALA2        0.0000 
     19 O          24.9700   -3.6000   15.5700 O.2       2 ALA2        0.0000 
     20 O          25.2200   -4.2600   16.8900 O.2       2 ALA2        0.0000 
     21 O          25.4800   -4.9200   18.2100 O.2       2 ALA2        0.0000 
     22 O          24.2800   -1.8600   16.5700 O.2       2 ALA2        0.0000 
     23 O          25.0900   -1.0200   13.4300 O.2       2 ALA2        0.0000 
     24 O          25.3500   -1.6800   14.7500 O.2       2 ALA2        0.0000 
     25 O          25.8700   -3.0000   17.4000 O.2       2 ALA2        0.0000 
     26 O          26.1700   -0.8300   11.6100 O.2       2 ALA2        0.0000 
     27 O          26.4200   -1.4900   12.9300 O.2       2 ALA2        0.0000 
     28 NZ         31.8800   -6.6500   14.4000 N.4       3 LYS4        0.0000 
     29 CZ         23.4700   -8.4500   11.7300 C.ar      4 PHE5        0.0000 
     30 CZ         24.3700   -7.8500   13.5600 C.ar      4 PHE5        0.0000 
     31 CZ         25.7000   -8.3300   13.0600 C.ar      4 PHE5        0.0000 
     32 CZ         25.9600   -8.9900   14.3800 C.ar      4 PHE5        0.0000 
     33 CZ         26.5500   -4.7400   16.3900 C.ar      4 PHE5        0.0000 
     34 CZ         26.8100   -5.4000   17.7100 C.ar      4 PHE5        0.0000 
     35 CZ         27.8900   -5.2200   15.8900 C.ar      4 PHE5        0.0000 
     36 CZ         28.1400   -5.8800   17.2200 C.ar      4 PHE5        0.0000 
     37 CZ         28.9600   -5.0300   14.0700 C.ar      4 PHE5        0.0000 
     38 CZ         29.2200   -5.7000   15.3900 C.ar      4 PHE5        0.0000 
     39 CZ         30.0300   -4.8500   12.2500 C.ar      4 PHE5        0.0000 
     40 CZ         30.2900   -5.5100   13.5700 C.ar      4 PHE5        0.0000 
     41 CZ         30.5500   -6.1700   14.9000 C.ar      4 PHE5        0.0000 
     42 CA         22.7800   -6.7100   12.7400 C.3       5 GLY6        0.0000 
     43 CA         27.2900   -9.4700   13.8800 C.3       5 GLY6        0.0000 
     44 CA         23.4200   -5.4500   13.2400 C.3       5 GLY6        0.0000 
     45 CA         25.0100   -6.5900   14.0600 C.3       5 GLY6        0.0000 
     46 CA         25.2700   -7.2500   15.3800 C.3       5 GLY6        0.0000 
     47 CA         26.6000   -7.7300   14.8900 C.3       5 GLY6        0.0000 
     48 CA         27.9300   -8.2100   14.3900 C.3       5 GLY6        0.0000 
     49 CA         28.1900   -8.8700   15.7100 C.3       5 GLY6        0.0000 
     50 CA         29.2600   -8.6900   13.8900 C.3       5 GLY6        0.0000 
     51 CA         29.5200   -9.3500   15.2100 C.3       5 GLY6        0.0000 
     52 CA         24.0700   -4.1900   13.7500 C.3       5 GLY6        0.0000 
     53 CA         24.3200   -4.8500   15.0700 C.3       5 GLY6        0.0000 
     54 CA         24.5800   -5.5200   16.3900 C.3       5 GLY6        0.0000 
     55 CA         25.9100   -5.9900   15.8900 C.3       5 GLY6        0.0000 
     56 CA         26.1700   -6.6600   17.2100 C.3       5 GLY6        0.0000 
     57 CA         27.5000   -7.1300   16.7100 C.3       5 GLY6        0.0000 
     58 CA         24.7100   -2.9300   14.2500 C.3       5 GLY6        0.0000 
     59 CA         25.7800   -2.7500   12.4300 C.3       5 GLY6        0.0000 
     60 CA         26.0400   -3.4100   13.7500 C.3       5 GLY6        0.0000 
     61 CA         26.3000   -4.0800   15.0700 C.3       5 GLY6        0.0000 
     62 CA         27.3700   -3.8900   13.2500 C.3       5 GLY6        0.0000 
     63 CA         27.6300   -4.5500   14.5700 C.3       5 GLY6        0.0000 
     64 CA         23.7600   -0.5400   13.9300 C.3       5 GLY6        0.0000 
     65 CA         24.8400   -0.3500   12.1100 C.3       5 GLY6        0.0000 
     66 CA         25.6100   -2.3400   16.0700 C.3       5 GLY6        0.0000 
     67 DU         24.1100   -7.1900   12.2400 H         6 CUB7        0.0000 
     68 DU         23.1700   -4.7900   11.9200 H         6 CUB7        0.0000 
     69 DU         24.7500   -5.9300   12.7400 H         6 CUB7        0.0000 
     70 DU         26.3400   -7.0700   13.5600 H         6 CUB7        0.0000 
     71 DU         27.6700   -7.5500   13.0600 H         6 CUB7        0.0000 
     72 DU         29.0000   -8.0300   12.5700 H         6 CUB7        0.0000 
     73 DU         30.5900   -9.1700   13.3900 H         6 CUB7        0.0000 
     74 DU         25.4000   -4.6700   13.2500 H         6 CUB7        0.0000 
     75 DU         25.6500   -5.3300   14.5700 H         6 CUB7        0.0000 
     76 DU         26.7300   -5.1500   12.7500 H         6 CUB7        0.0000 
     77 DU         26.9800   -5.8100   14.0700 H         6 CUB7        0.0000 
     78 DU         27.2400   -6.4700   15.3900 H         6 CUB7        0.0000 
     79 DU         28.0600   -5.6300   12.2500 H         6 CUB7        0.0000 
     80 DU         28.3200   -6.2900   13.5700 H         6 CUB7        0.0000 
     81 DU         29.6500   -6.7700   13.0700 H         6 CUB7        0.0000 
@<TRIPOS>BOND
@<TRIPOS>SUBSTRUCTURE
     1 SER1        1 GROUP   
     2 ALA2       11 GROUP   
     3 LYS4       28 GROUP   
     4 PHE5       29 GROUP   
     5 GLY6       42 GROUP   
     6 CUB7       67 GROUP   
@<TRIPOS>SET

