#    Name: 6aw8_2_SAH
#    Modification time : Fri May 22 19:25:05 2020

@<TRIPOS>MOLECULE
6aw8_2_SAH
   26    28     1     0     0
SMALL
NO_CHARGES


@<TRIPOS>ATOM
      1 N           9.0850  105.2460  106.6060 N.4       1 SAH302      0.0000 
      2 CA          9.1830  106.3660  107.5380 C.3       1 SAH302      0.0000 
      3 CB          9.7240  105.8970  108.8840 C.3       1 SAH302      0.0000 
      4 CG          9.2530  104.5190  109.3330 C.3       1 SAH302      0.0000 
      5 SD          9.6960  104.2140  111.0650 S.3       1 SAH302      0.0000 
      6 C          10.0730  107.4860  107.0090 C.2       1 SAH302      0.0000 
      7 O          11.1810  107.2470  106.5330 O.co2     1 SAH302      0.0000 
      8 OXT         9.7030  108.6600  107.0540 O.co2     1 SAH302      0.0000 
      9 C5'         8.7040  102.6990  111.2000 C.3       1 SAH302      0.0000 
     10 C4'         7.2110  102.9440  111.4030 C.3       1 SAH302      0.0000 
     11 O4'         6.4780  101.7690  111.1260 O.3       1 SAH302      0.0000 
     12 C3'         6.8550  103.3640  112.8200 C.3       1 SAH302      0.0000 
     13 O3'         6.2390  104.6280  112.7590 O.3       1 SAH302      0.0000 
     14 C2'         5.9000  102.3000  113.3340 C.3       1 SAH302      0.0000 
     15 O2'         4.8280  102.8520  114.0630 O.3       1 SAH302      0.0000 
     16 C1'         5.4220  101.6340  112.0530 C.3       1 SAH302      0.0000 
     17 N9          5.1080  100.2000  112.1510 N.pl3     1 SAH302      0.0000 
     18 C8          5.8350   99.2210  112.7730 C.2       1 SAH302      0.0000 
     19 N7          5.1990   98.0400  112.5930 N.2       1 SAH302      0.0000 
     20 C5          4.0870   98.2550  111.8530 C.ar      1 SAH302      0.0000 
     21 C6          3.0880   97.4160  111.3810 C.ar      1 SAH302      0.0000 
     22 N6          3.1110   96.1110  111.6360 N.pl3     1 SAH302      0.0000 
     23 N1          2.0600   97.9490  110.6370 N.ar      1 SAH302      0.0000 
     24 C2          2.0110   99.2970  110.3580 C.ar      1 SAH302      0.0000 
     25 N3          3.0060  100.1240  110.8300 N.ar      1 SAH302      0.0000 
     26 C4          4.0220   99.6100  111.5650 C.ar      1 SAH302      0.0000 
@<TRIPOS>BOND
     1    1    2 1    
     2    2    3 1    
     3    2    6 1    
     4    3    4 1    
     5    4    5 1    
     6    5    9 1    
     7    6    7 ar   
     8    6    8 ar   
     9    9   10 1    
    10   10   11 1    
    11   10   12 1    
    12   11   16 1    
    13   12   13 1    
    14   12   14 1    
    15   14   15 1    
    16   14   16 1    
    17   16   17 1    
    18   17   18 1    
    19   17   26 1    
    20   18   19 2    
    21   19   20 1    
    22   20   21 ar   
    23   20   26 ar   
    24   21   22 1    
    25   21   23 ar   
    26   23   24 ar   
    27   24   25 ar   
    28   25   26 ar   
@<TRIPOS>SUBSTRUCTURE
     1 SAH302      1 GROUP   
@<TRIPOS>SET

