#    Name: 6aw8_1_SAH
#    Modification time : Fri May 22 19:25:01 2020

@<TRIPOS>MOLECULE
6aw8_1_SAH
   26    28     1     0     0
SMALL
NO_CHARGES


@<TRIPOS>ATOM
      1 N          36.5180   97.8550  118.1140 N.4       1 SAH302      0.0000 
      2 CA         37.1500   98.6890  117.0990 C.3       1 SAH302      0.0000 
      3 CB         36.2110   98.9230  115.9200 C.3       1 SAH302      0.0000 
      4 CG         35.4150   97.7030  115.4670 C.3       1 SAH302      0.0000 
      5 SD         34.5700   98.0200  113.8940 S.3       1 SAH302      0.0000 
      6 C          37.5830  100.0280  117.6880 C.2       1 SAH302      0.0000 
      7 O          38.5990  100.5980  117.2860 O.co2     1 SAH302      0.0000 
      8 OXT        36.9310  100.5680  118.5820 O.co2     1 SAH302      0.0000 
      9 C5'        33.9510   96.3200  113.7490 C.3       1 SAH302      0.0000 
     10 C4'        34.9600   95.3430  113.1530 C.3       1 SAH302      0.0000 
     11 O4'        34.5570   94.0090  113.3670 O.3       1 SAH302      0.0000 
     12 C3'        35.1360   95.5100  111.6570 C.3       1 SAH302      0.0000 
     13 O3'        36.4900   95.8180  111.4320 O.3       1 SAH302      0.0000 
     14 C2'        34.7370   94.1750  111.0450 C.3       1 SAH302      0.0000 
     15 O2'        35.5860   93.8030  109.9820 O.3       1 SAH302      0.0000 
     16 C1'        34.8510   93.2250  112.2300 C.3       1 SAH302      0.0000 
     17 N9         33.9280   92.0800  112.2760 N.pl3     1 SAH302      0.0000 
     18 C8         32.6040   92.0520  111.9380 C.2       1 SAH302      0.0000 
     19 N7         32.1210   90.8070  112.1660 N.2       1 SAH302      0.0000 
     20 C5         33.1240   90.0480  112.6620 C.ar      1 SAH302      0.0000 
     21 C6         33.1920   88.7240  113.0680 C.ar      1 SAH302      0.0000 
     22 N6         32.1210   87.9370  113.0040 N.pl3     1 SAH302      0.0000 
     23 N1         34.3850   88.2280  113.5400 N.ar      1 SAH302      0.0000 
     24 C2         35.5030   89.0310  113.6120 C.ar      1 SAH302      0.0000 
     25 N3         35.4260   90.3440  113.2060 N.ar      1 SAH302      0.0000 
     26 C4         34.2590   90.8400  112.7420 C.ar      1 SAH302      0.0000 
@<TRIPOS>BOND
     1    1    2 1    
     2    2    3 1    
     3    2    6 1    
     4    3    4 1    
     5    4    5 1    
     6    5    9 1    
     7    6    7 ar   
     8    6    8 ar   
     9    9   10 1    
    10   10   11 1    
    11   10   12 1    
    12   11   16 1    
    13   12   13 1    
    14   12   14 1    
    15   14   15 1    
    16   14   16 1    
    17   16   17 1    
    18   17   18 1    
    19   17   26 1    
    20   18   19 2    
    21   19   20 1    
    22   20   21 ar   
    23   20   26 ar   
    24   21   22 1    
    25   21   23 ar   
    26   23   24 ar   
    27   24   25 ar   
    28   25   26 ar   
@<TRIPOS>SUBSTRUCTURE
     1 SAH302      1 GROUP   
@<TRIPOS>SET

