#    Name: 6gfn_1_SAH
#    Modification time : Fri May 22 19:27:06 2020

@<TRIPOS>MOLECULE
6gfn_1_SAH
   26    28     1     0     0
SMALL
NO_CHARGES


@<TRIPOS>ATOM
      1 N           0.1070  -23.4350  -15.8800 N.4       1 SAH300      0.0000 
      2 CA         -0.7240  -23.2790  -17.0890 C.3       1 SAH300      0.0000 
      3 CB         -2.2820  -23.4210  -16.9960 C.3       1 SAH300      0.0000 
      4 CG         -2.9240  -22.6730  -15.8370 C.3       1 SAH300      0.0000 
      5 SD         -4.6740  -22.5280  -16.2830 S.3       1 SAH300      0.0000 
      6 C          -0.3120  -21.9730  -17.8150 C.2       1 SAH300      0.0000 
      7 O          -0.3960  -22.1290  -19.1150 O.co2     1 SAH300      0.0000 
      8 OXT         0.0540  -20.9480  -17.2680 O.co2     1 SAH300      0.0000 
      9 C5'        -5.5260  -23.4830  -15.0020 C.3       1 SAH300      0.0000 
     10 C4'        -5.5880  -24.9290  -15.4480 C.3       1 SAH300      0.0000 
     11 O4'        -5.7340  -25.7480  -14.2730 O.3       1 SAH300      0.0000 
     12 C3'        -6.7070  -25.3270  -16.4140 C.3       1 SAH300      0.0000 
     13 O3'        -6.2190  -26.0490  -17.5390 O.3       1 SAH300      0.0000 
     14 C2'        -7.6830  -26.1360  -15.5450 C.3       1 SAH300      0.0000 
     15 O2'        -8.3090  -27.1820  -16.2810 O.3       1 SAH300      0.0000 
     16 C1'        -6.7740  -26.6900  -14.4410 C.3       1 SAH300      0.0000 
     17 N9         -7.4140  -26.8880  -13.1350 N.pl3     1 SAH300      0.0000 
     18 C8         -8.4500  -26.1550  -12.6130 C.2       1 SAH300      0.0000 
     19 N7         -8.7980  -26.5050  -11.3990 N.2       1 SAH300      0.0000 
     20 C5         -7.9310  -27.5450  -11.0960 C.ar      1 SAH300      0.0000 
     21 C6         -7.7720  -28.3390   -9.9430 C.ar      1 SAH300      0.0000 
     22 N6         -8.6090  -28.2970   -8.9000 N.pl3     1 SAH300      0.0000 
     23 N1         -6.7640  -29.2450   -9.9370 N.ar      1 SAH300      0.0000 
     24 C2         -5.9990  -29.3670  -11.0290 C.ar      1 SAH300      0.0000 
     25 N3         -6.0790  -28.7000  -12.1870 N.ar      1 SAH300      0.0000 
     26 C4         -7.0680  -27.7900  -12.1540 C.ar      1 SAH300      0.0000 
@<TRIPOS>BOND
     1    1    2 1    
     2    2    3 1    
     3    2    6 1    
     4    3    4 1    
     5    4    5 1    
     6    5    9 1    
     7    6    7 ar   
     8    6    8 ar   
     9    9   10 1    
    10   10   11 1    
    11   10   12 1    
    12   11   16 1    
    13   12   13 1    
    14   12   14 1    
    15   14   15 1    
    16   14   16 1    
    17   16   17 1    
    18   17   18 1    
    19   17   26 1    
    20   18   19 2    
    21   19   20 1    
    22   20   21 ar   
    23   20   26 ar   
    24   21   22 1    
    25   21   23 ar   
    26   23   24 ar   
    27   24   25 ar   
    28   25   26 ar   
@<TRIPOS>SUBSTRUCTURE
     1 SAH300      1 GROUP   
@<TRIPOS>SET

