#    Name: 6a7x_3_NAD
#    Modification time : Fri May 22 19:25:50 2020

@<TRIPOS>MOLECULE
6a7x_3_NAD
   27    29     1     0     1
SMALL
NO_CHARGES


@<TRIPOS>ATOM
      1 PA        -18.5230   20.6250   19.1550 P.3       1 NAD1401     0.0000 
      2 O1A       -20.0320   20.7340   19.1990 O.co2     1 NAD1401     0.0000 
      3 O2A       -17.7010   21.3110   20.2230 O.co2     1 NAD1401     0.0000 
      4 O5B       -17.9960   21.1860   17.7220 O.3       1 NAD1401     0.0000 
      5 C5B       -18.8290   21.4050   16.5780 C.3       1 NAD1401     0.0000 
      6 C4B       -18.5250   20.4210   15.4330 C.3       1 NAD1401     0.0000 
      7 O4B       -19.7670   19.9430   14.8920 O.3       1 NAD1401     0.0000 
      8 C3B       -17.7620   21.0430   14.2520 C.3       1 NAD1401     0.0000 
      9 O3B       -16.4200   20.5760   14.1380 O.3       1 NAD1401     0.0000 
     10 C2B       -18.5850   20.7270   13.0000 C.3       1 NAD1401     0.0000 
     11 O2B       -18.0980   19.6390   12.1940 O.3       1 NAD1401     0.0000 
     12 C1B       -19.9770   20.4190   13.5390 C.3       1 NAD1401     0.0000 
     13 N9A       -20.8600   21.6450   13.4490 N.pl3     1 NAD1401     0.0000 
     14 C8A       -21.4510   22.2770   14.4900 C.2       1 NAD1401     0.0000 
     15 N7A       -22.1790   23.3450   14.0770 N.2       1 NAD1401     0.0000 
     16 C5A       -22.0740   23.4310   12.7440 C.ar      1 NAD1401     0.0000 
     17 C6A       -22.6000   24.3320   11.6840 C.ar      1 NAD1401     0.0000 
     18 N6A       -23.4000   25.3750   11.9910 N.pl3     1 NAD1401     0.0000 
     19 N1A       -22.2560   24.0910   10.4000 N.ar      1 NAD1401     0.0000 
     20 C2A       -21.4560   23.0560   10.0810 C.ar      1 NAD1401     0.0000 
     21 N3A       -20.9500   22.1980   10.9980 N.ar      1 NAD1401     0.0000 
     22 C4A       -21.2090   22.3150   12.3290 C.ar      1 NAD1401     0.0000 
     23 O3        -18.0980   19.0470   19.1320 O.3       1 NAD1401     0.0000 
     24 PN        -17.7100   18.1230   20.4260 P.3       1 NAD1401     0.0000 
     25 O1N       -16.7380   16.9520   19.8820 O.3       1 NAD1401     0.0000 
     26 O2N       -16.8490   18.9310   21.3850 O.co2     1 NAD1401     0.0000 
     27 O5D       -18.9810   17.4190   20.8730 O.co2     1 NAD1401     0.0000 
@<TRIPOS>BOND
     1    1    2 ar   
     2    1    3 ar   
     3    1    4 1    
     4    1   23 1    
     5    4    5 1    
     6    5    6 1    
     7    6    7 1    
     8    6    8 1    
     9    7   12 1    
    10    8    9 1    
    11    8   10 1    
    12   10   11 1    
    13   10   12 1    
    14   12   13 1    
    15   13   14 1    
    16   13   22 1    
    17   14   15 2    
    18   15   16 1    
    19   16   17 ar   
    20   16   22 ar   
    21   17   18 1    
    22   17   19 ar   
    23   19   20 ar   
    24   20   21 ar   
    25   21   22 ar   
    26   23   24 1    
    27   24   25 1    
    28   24   26 ar   
    29   24   27 ar   
@<TRIPOS>SUBSTRUCTURE
     1 NAD1401     1 GROUP   
@<TRIPOS>SET
ATOM$ORANGE STATIC     ATOMS   COLORGROUP SYSTEM 
20 5 5 6 6 8 8 10 10 12 12 14 14 16 16 17 17 20 \
20 22 22 

