#    Name: 6a7x_6_FAD
#    Modification time : Fri May 22 19:26:46 2020

@<TRIPOS>MOLECULE
6a7x_6_FAD
   53    58     1     0     1
SMALL
NO_CHARGES


@<TRIPOS>ATOM
      1 PA          1.4310   22.3240   88.2120 P.3       1 FAD3006     0.0000 
      2 O1A         2.5170   21.4530   87.6230 O.co2     1 FAD3006     0.0000 
      3 O2A         0.3440   23.0380   87.4530 O.co2     1 FAD3006     0.0000 
      4 O5B         0.6530   21.4460   89.3440 O.3       1 FAD3006     0.0000 
      5 C5B         1.4710   20.8120   90.3410 C.3       1 FAD3006     0.0000 
      6 C4B         0.6360   20.1120   91.3770 C.3       1 FAD3006     0.0000 
      7 O4B        -0.0050   21.1040   92.1770 O.3       1 FAD3006     0.0000 
      8 C3B        -0.4710   19.2480   90.7740 C.3       1 FAD3006     0.0000 
      9 O3B        -0.7250   18.0380   91.5000 O.3       1 FAD3006     0.0000 
     10 C2B        -1.6900   20.1380   90.9080 C.3       1 FAD3006     0.0000 
     11 O2B        -2.8700   19.3850   90.9290 O.3       1 FAD3006     0.0000 
     12 C1B        -1.4170   20.8620   92.1920 C.3       1 FAD3006     0.0000 
     13 N9A        -2.0070   22.1940   92.3830 N.pl3     1 FAD3006     0.0000 
     14 C8A        -1.7000   23.3350   91.7650 C.2       1 FAD3006     0.0000 
     15 N7A        -2.4350   24.3500   92.2880 N.2       1 FAD3006     0.0000 
     16 C5A        -3.2130   23.8370   93.2330 C.ar      1 FAD3006     0.0000 
     17 C6A        -4.1520   24.3570   94.2260 C.ar      1 FAD3006     0.0000 
     18 N6A        -4.4720   25.6580   94.2020 N.pl3     1 FAD3006     0.0000 
     19 N1A        -4.7250   23.4970   95.0900 N.ar      1 FAD3006     0.0000 
     20 C2A        -4.3970   22.1860   95.1110 C.ar      1 FAD3006     0.0000 
     21 N3A        -3.5200   21.6510   94.2490 N.ar      1 FAD3006     0.0000 
     22 C4A        -2.9180   22.4240   93.3110 C.ar      1 FAD3006     0.0000 
     23 N1         10.9660   23.2880   92.3690 N.2       1 FAD3006     0.0000 
     24 C2         11.6860   23.6810   93.4290 C.2       1 FAD3006     0.0000 
     25 O2         11.1680   23.5490   94.5780 O.2       1 FAD3006     0.0000 
     26 N3         12.9110   24.2040   93.2770 N.am      1 FAD3006     0.0000 
     27 C4         13.5160   24.3110   92.0830 C.2       1 FAD3006     0.0000 
     28 O4         14.6880   24.7840   92.0030 O.2       1 FAD3006     0.0000 
     29 C4X        12.7880   23.8660   90.8760 C.2       1 FAD3006     0.0000 
     30 N5         13.3000   23.9450   89.6140 N.2       1 FAD3006     0.0000 
     31 C5X        12.5830   23.5300   88.5740 C.ar      1 FAD3006     0.0000 
     32 C6         13.1130   23.6080   87.3130 C.ar      1 FAD3006     0.0000 
     33 C7         12.4030   23.1880   86.1770 C.ar      1 FAD3006     0.0000 
     34 C7M        13.0310   23.2720   84.8060 C.3       1 FAD3006     0.0000 
     35 C8         11.0430   22.6640   86.3640 C.ar      1 FAD3006     0.0000 
     36 C8M        10.1770   22.1670   85.2520 C.3       1 FAD3006     0.0000 
     37 C9         10.5240   22.5720   87.6470 C.ar      1 FAD3006     0.0000 
     38 C9A        11.2170   22.9870   88.7600 C.ar      1 FAD3006     0.0000 
     39 N10        10.6370   22.9080   90.0490 N.pl3     1 FAD3006     0.0000 
     40 C10        11.4340   23.3490   91.1190 C.2       1 FAD3006     0.0000 
     41 C1'         9.2870   22.3370   90.3280 C.3       1 FAD3006     0.0000 
     42 C2'         8.1380   23.2050   89.8100 C.3       1 FAD3006     0.0000 
     43 O2'         8.6650   24.2920   89.0410 O.3       1 FAD3006     0.0000 
     44 C3'         7.3880   23.7700   90.9790 C.3       1 FAD3006     0.0000 
     45 O3'         6.9650   22.7180   91.8250 O.3       1 FAD3006     0.0000 
     46 C4'         6.2070   24.5950   90.5470 C.3       1 FAD3006     0.0000 
     47 O4'         5.9860   25.4700   91.6400 O.3       1 FAD3006     0.0000 
     48 C5'         4.9190   23.8500   90.3360 C.3       1 FAD3006     0.0000 
     49 O5'         3.9690   24.8710   90.0670 O.3       1 FAD3006     0.0000 
     50 P           2.9410   24.6820   88.8790 P.3       1 FAD3006     0.0000 
     51 O1P         1.8610   25.7110   88.9530 O.co2     1 FAD3006     0.0000 
     52 O2P         3.6500   24.4420   87.5790 O.co2     1 FAD3006     0.0000 
     53 O3P         2.2200   23.3220   89.2430 O.3       1 FAD3006     0.0000 
@<TRIPOS>BOND
     1    1    2 ar   
     2    1    3 ar   
     3    1    4 1    
     4    1   53 1    
     5    4    5 1    
     6    5    6 1    
     7    6    7 1    
     8    6    8 1    
     9    7   12 1    
    10    8    9 1    
    11    8   10 1    
    12   10   11 1    
    13   10   12 1    
    14   12   13 1    
    15   13   14 1    
    16   13   22 1    
    17   14   15 2    
    18   15   16 1    
    19   16   17 ar   
    20   16   22 ar   
    21   17   18 1    
    22   17   19 ar   
    23   19   20 ar   
    24   20   21 ar   
    25   21   22 ar   
    26   23   24 1    
    27   23   40 2    
    28   24   25 2    
    29   24   26 am   
    30   26   27 am   
    31   27   28 2    
    32   27   29 1    
    33   29   30 2    
    34   29   40 1    
    35   30   31 1    
    36   31   32 ar   
    37   31   38 ar   
    38   32   33 ar   
    39   33   34 1    
    40   33   35 ar   
    41   35   36 1    
    42   35   37 ar   
    43   37   38 ar   
    44   38   39 1    
    45   39   40 1    
    46   39   41 1    
    47   41   42 1    
    48   42   43 1    
    49   42   44 1    
    50   44   45 1    
    51   44   46 1    
    52   46   47 1    
    53   46   48 1    
    54   48   49 1    
    55   49   50 1    
    56   50   51 ar   
    57   50   52 ar   
    58   50   53 1    
@<TRIPOS>SUBSTRUCTURE
     1 FAD3006     1 GROUP   
@<TRIPOS>SET
ATOM$ORANGE STATIC     ATOMS   COLORGROUP SYSTEM 
54 5 5 6 6 8 8 10 10 12 12 14 14 16 16 17 17 20 \
20 22 22 24 24 27 27 29 29 31 31 32 32 33 33 34 34 35 \
35 36 36 37 37 38 38 40 40 41 41 42 42 44 44 46 46 48 \
48 

