#    Name: 6a7x_5_NAD
#    Modification time : Fri May 22 19:26:29 2020

@<TRIPOS>MOLECULE
6a7x_5_NAD
   23    25     1     0     1
SMALL
NO_CHARGES


@<TRIPOS>ATOM
      1 PA         11.7970   12.5950   94.0180 P.3       1 NAD3003     0.0000 
      2 O1A        12.3950   12.6750   92.6160 O.co2     1 NAD3003     0.0000 
      3 O2A        11.2680   11.2930   94.6030 O.co2     1 NAD3003     0.0000 
      4 O5B        12.9470   13.1000   95.0460 O.3       1 NAD3003     0.0000 
      5 C5B        14.0920   12.2690   95.3120 C.3       1 NAD3003     0.0000 
      6 C4B        14.9950   12.9900   96.3060 C.3       1 NAD3003     0.0000 
      7 O4B        14.3190   13.0470   97.5670 O.3       1 NAD3003     0.0000 
      8 C3B        16.3440   12.3500   96.5890 C.3       1 NAD3003     0.0000 
      9 O3B        17.3920   13.0220   95.8980 O.3       1 NAD3003     0.0000 
     10 C2B        16.5420   12.5440   98.0790 C.3       1 NAD3003     0.0000 
     11 O2B        17.2140   13.8000   98.3280 O.3       1 NAD3003     0.0000 
     12 C1B        15.1380   12.5930   98.6590 C.3       1 NAD3003     0.0000 
     13 N9A        14.5310   11.3340   99.2350 N.pl3     1 NAD3003     0.0000 
     14 C8A        13.4290   10.6960   98.7520 C.2       1 NAD3003     0.0000 
     15 N7A        13.0790    9.6260   99.5110 N.2       1 NAD3003     0.0000 
     16 C5A        13.9560    9.5490  100.5210 C.ar      1 NAD3003     0.0000 
     17 C6A        14.1630    8.6460  101.6820 C.ar      1 NAD3003     0.0000 
     18 N6A        13.3590    7.5840  101.9200 N.pl3     1 NAD3003     0.0000 
     19 N1A        15.2010    8.9110  102.5040 N.ar      1 NAD3003     0.0000 
     20 C2A        16.0180    9.9600  102.2830 C.ar      1 NAD3003     0.0000 
     21 N3A        15.8940   10.8170  101.2490 N.ar      1 NAD3003     0.0000 
     22 C4A        14.9010   10.6760  100.3440 C.ar      1 NAD3003     0.0000 
     23 O3         10.5870   13.6760   94.0450 O.3       1 NAD3003     0.0000 
@<TRIPOS>BOND
     1    1    2 ar   
     2    1    3 ar   
     3    1    4 1    
     4    1   23 1    
     5    4    5 1    
     6    5    6 1    
     7    6    7 1    
     8    6    8 1    
     9    7   12 1    
    10    8    9 1    
    11    8   10 1    
    12   10   11 1    
    13   10   12 1    
    14   12   13 1    
    15   13   14 1    
    16   13   22 1    
    17   14   15 2    
    18   15   16 1    
    19   16   17 ar   
    20   16   22 ar   
    21   17   18 1    
    22   17   19 ar   
    23   19   20 ar   
    24   20   21 ar   
    25   21   22 ar   
@<TRIPOS>SUBSTRUCTURE
     1 NAD3003     1 GROUP   
@<TRIPOS>SET
ATOM$ORANGE STATIC     ATOMS   COLORGROUP SYSTEM 
20 5 5 6 6 8 8 10 10 12 12 14 14 16 16 17 17 20 \
20 22 22 

