#    Name: 6a7x_6_FAD_CAVITY_N1_4
#    Modification time : Fri May 22 19:26:49 2020

@<TRIPOS>MOLECULE
6a7x_6_FAD_CAVITY_N1_4
   84     0     6     0     0
SMALL
NO_CHARGES


@<TRIPOS>ATOM
      1 OG          4.7700   24.9300   89.8800 O.3       1 SER1        0.0000 
      2 OG          5.1500   23.4800   89.9700 O.3       1 SER1        0.0000 
      3 OG          6.8500   22.3500   89.4100 O.3       1 SER1        0.0000 
      4 OG          8.1700   22.6600   88.7600 O.3       1 SER1        0.0000 
      5 OG          9.4900   22.9700   88.1200 O.3       1 SER1        0.0000 
      6 OG          6.1400   22.2800   91.4100 O.3       1 SER1        0.0000 
      7 OG          7.0700   24.0400   90.6700 O.3       1 SER1        0.0000 
      8 OG          7.4600   22.5900   90.7600 O.3       1 SER1        0.0000 
      9 OG          8.3900   24.3500   90.0200 O.3       1 SER1        0.0000 
     10 OG          8.7800   22.9000   90.1100 O.3       1 SER1        0.0000 
     11 N          12.0600   18.7600   84.3900 N.am      2 ALA2        0.0000 
     12 N          10.1900   23.0300   86.1200 N.am      2 ALA2        0.0000 
     13 N          10.5800   21.5900   86.2100 N.am      2 ALA2        0.0000 
     14 N          11.9000   21.9000   85.5600 N.am      2 ALA2        0.0000 
     15 N          12.2800   20.4500   85.6500 N.am      2 ALA2        0.0000 
     16 N          12.8300   23.6500   84.8200 N.am      2 ALA2        0.0000 
     17 N          13.2100   22.2100   84.9100 N.am      2 ALA2        0.0000 
     18 N          13.6000   20.7600   85.0000 N.am      2 ALA2        0.0000 
     19 N           5.3700   25.1800   91.2300 N.am      2 ALA2        0.0000 
     20 O           5.7600   23.7300   91.3200 O.2       2 ALA2        0.0000 
     21 N           7.6800   24.2800   92.0200 N.am      2 ALA2        0.0000 
     22 N           8.0700   22.8400   92.1100 N.am      2 ALA2        0.0000 
     23 N           8.4500   21.3900   92.2000 N.am      2 ALA2        0.0000 
     24 N           9.3800   23.1500   91.4600 N.am      2 ALA2        0.0000 
     25 N           9.0600   21.6400   93.5500 N.am      2 ALA2        0.0000 
     26 N           9.9900   23.3900   92.8100 N.am      2 ALA2        0.0000 
     27 N          10.3800   21.9500   92.9000 N.am      2 ALA2        0.0000 
     28 O          13.9400   24.3300   90.8700 O.2       2 ALA2        0.0000 
     29 N          14.3300   22.8800   90.9500 N.am      2 ALA2        0.0000 
     30 N          14.9300   23.1300   92.3000 N.am      2 ALA2        0.0000 
     31 NZ          7.8500   21.1500   90.8500 N.4       3 LYS4        0.0000 
     32 NZ          9.1600   21.4600   90.2000 N.4       3 LYS4        0.0000 
     33 NZ          8.8400   19.9400   92.2900 N.4       3 LYS4        0.0000 
     34 NZ         12.3000   22.5000   93.6000 N.4       3 LYS4        0.0000 
     35 NZ         13.2300   24.2600   92.8600 N.4       3 LYS4        0.0000 
     36 NZ         13.6200   22.8200   92.9500 N.4       3 LYS4        0.0000 
     37 CZ          9.7100   24.6600   89.3800 C.ar      4 PHE5        0.0000 
     38 CZ         10.7000   23.4600   90.8100 C.ar      4 PHE5        0.0000 
     39 CZ         12.0200   23.7700   90.1600 C.ar      4 PHE5        0.0000 
     40 CZ         11.3100   23.7100   92.1600 C.ar      4 PHE5        0.0000 
     41 CZ         12.6200   24.0200   91.5100 C.ar      4 PHE5        0.0000 
     42 CZ         11.9200   23.9500   93.5100 C.ar      4 PHE5        0.0000 
     43 CA         10.9700   20.1400   86.3000 C.3       5 GLY6        0.0000 
     44 CA         11.3500   18.6900   86.3900 C.3       5 GLY6        0.0000 
     45 CA         11.5100   23.3400   85.4700 C.3       5 GLY6        0.0000 
     46 CA         14.5300   22.5200   84.2600 C.3       5 GLY6        0.0000 
     47 CA          3.4500   24.6200   90.5300 C.3       5 GLY6        0.0000 
     48 CA          3.8400   23.1700   90.6200 C.3       5 GLY6        0.0000 
     49 CA          5.5400   22.0400   90.0600 C.3       5 GLY6        0.0000 
     50 CA          9.1000   24.4100   88.0300 C.3       5 GLY6        0.0000 
     51 CA         10.8000   23.2800   87.4700 C.3       5 GLY6        0.0000 
     52 CA         12.1200   23.5900   86.8200 C.3       5 GLY6        0.0000 
     53 CA         13.4300   23.9000   86.1700 C.3       5 GLY6        0.0000 
     54 CA         14.2100   21.0100   86.3500 C.3       5 GLY6        0.0000 
     55 CA         15.1400   22.7600   85.6100 C.3       5 GLY6        0.0000 
     56 CA          6.6900   25.4900   90.5800 C.3       5 GLY6        0.0000 
     57 CA         11.0200   24.9700   88.7300 C.3       5 GLY6        0.0000 
     58 CA         12.7200   23.8400   88.1700 C.3       5 GLY6        0.0000 
     59 CA         14.0400   24.1500   87.5200 C.3       5 GLY6        0.0000 
     60 CA          6.7500   22.5300   92.7600 C.3       5 GLY6        0.0000 
     61 CA          7.1400   21.0800   92.8500 C.3       5 GLY6        0.0000 
     62 CA         12.7900   20.8800   90.3400 C.3       5 GLY6        0.0000 
     63 CA         12.9500   25.5300   89.4300 C.3       5 GLY6        0.0000 
     64 CA         13.3300   24.0800   89.5200 C.3       5 GLY6        0.0000 
     65 CA         14.1000   21.1900   89.7000 C.3       5 GLY6        0.0000 
     66 CA         13.4000   21.1200   91.6900 C.3       5 GLY6        0.0000 
     67 CA         14.7100   21.4300   91.0400 C.3       5 GLY6        0.0000 
     68 DU         11.1900   21.8300   87.5600 H         6 CUB7        0.0000 
     69 DU         11.5700   20.3900   87.6500 H         6 CUB7        0.0000 
     70 DU         11.9600   18.9400   87.7400 H         6 CUB7        0.0000 
     71 DU         12.5000   22.1400   86.9100 H         6 CUB7        0.0000 
     72 DU         12.8900   20.7000   87.0000 H         6 CUB7        0.0000 
     73 DU         13.8200   22.4500   86.2600 H         6 CUB7        0.0000 
     74 DU         10.0900   23.2100   89.4600 H         6 CUB7        0.0000 
     75 DU         11.4100   23.5200   88.8200 H         6 CUB7        0.0000 
     76 DU         12.1800   20.6300   89.0000 H         6 CUB7        0.0000 
     77 DU         13.1100   22.3900   88.2600 H         6 CUB7        0.0000 
     78 DU         13.5000   20.9400   88.3500 H         6 CUB7        0.0000 
     79 DU          9.7700   21.7000   91.5500 H         6 CUB7        0.0000 
     80 DU         11.0900   22.0100   90.9000 H         6 CUB7        0.0000 
     81 DU         12.4000   22.3200   90.2500 H         6 CUB7        0.0000 
     82 DU         13.7200   22.6300   89.6100 H         6 CUB7        0.0000 
     83 DU         11.6900   22.2600   92.2500 H         6 CUB7        0.0000 
     84 DU         13.0100   22.5700   91.6000 H         6 CUB7        0.0000 
@<TRIPOS>BOND
@<TRIPOS>SUBSTRUCTURE
     1 SER1        1 GROUP   
     2 ALA2       11 GROUP   
     3 LYS4       31 GROUP   
     4 PHE5       37 GROUP   
     5 GLY6       43 GROUP   
     6 CUB7       68 GROUP   
@<TRIPOS>SET

