#    Name: 6a7x_4_FAD
#    Modification time : Fri May 22 19:26:08 2020

@<TRIPOS>MOLECULE
6a7x_4_FAD
   53    58     1     0     1
SMALL
NO_CHARGES


@<TRIPOS>ATOM
      1 PA        -22.7330   10.8590   29.9210 P.3       1 FAD1406     0.0000 
      2 O1A       -21.5650   11.7810   29.6760 O.co2     1 FAD1406     0.0000 
      3 O2A       -22.8460   10.0750   31.1900 O.co2     1 FAD1406     0.0000 
      4 O5B       -24.1010   11.6670   29.6380 O.3       1 FAD1406     0.0000 
      5 C5B       -24.1840   12.3870   28.4100 C.3       1 FAD1406     0.0000 
      6 C4B       -25.4930   13.1310   28.2550 C.3       1 FAD1406     0.0000 
      7 O4B       -26.5510   12.2060   28.1130 O.3       1 FAD1406     0.0000 
      8 C3B       -25.8200   13.9650   29.4730 C.3       1 FAD1406     0.0000 
      9 O3B       -26.5690   15.0990   29.0910 O.3       1 FAD1406     0.0000 
     10 C2B       -26.7150   13.1020   30.3020 C.3       1 FAD1406     0.0000 
     11 O2B       -27.5190   13.9210   31.1550 O.3       1 FAD1406     0.0000 
     12 C1B       -27.4600   12.3980   29.1950 C.3       1 FAD1406     0.0000 
     13 N9A       -27.9880   11.0570   29.4410 N.pl3     1 FAD1406     0.0000 
     14 C8A       -27.3170    9.8870   29.6090 C.2       1 FAD1406     0.0000 
     15 N7A       -28.2060    8.8630   29.7210 N.2       1 FAD1406     0.0000 
     16 C5A       -29.4430    9.4030   29.5960 C.ar      1 FAD1406     0.0000 
     17 C6A       -30.8170    8.9110   29.6040 C.ar      1 FAD1406     0.0000 
     18 N6A       -31.0760    7.5940   29.7820 N.pl3     1 FAD1406     0.0000 
     19 N1A       -31.7960    9.8240   29.4200 N.ar      1 FAD1406     0.0000 
     20 C2A       -31.5530   11.1430   29.2460 C.ar      1 FAD1406     0.0000 
     21 N3A       -30.3230   11.6640   29.2520 N.ar      1 FAD1406     0.0000 
     22 C4A       -29.2820   10.8440   29.4080 C.ar      1 FAD1406     0.0000 
     23 N1        -18.8170    9.9420   20.4400 N.2       1 FAD1406     0.0000 
     24 C2        -19.0290    9.4990   19.1620 C.2       1 FAD1406     0.0000 
     25 O2        -20.1780    9.5640   18.6630 O.2       1 FAD1406     0.0000 
     26 N3        -18.0450    9.0020   18.3880 N.am      1 FAD1406     0.0000 
     27 C4        -16.7690    8.8890   18.8130 C.2       1 FAD1406     0.0000 
     28 O4        -15.8530    8.4210   18.0700 O.2       1 FAD1406     0.0000 
     29 C4X       -16.4690    9.3490   20.1940 C.2       1 FAD1406     0.0000 
     30 N5        -15.2260    9.2790   20.6850 N.2       1 FAD1406     0.0000 
     31 C5X       -14.9410    9.7020   21.9200 C.ar      1 FAD1406     0.0000 
     32 C6        -13.6350    9.5990   22.3750 C.ar      1 FAD1406     0.0000 
     33 C7        -13.2950   10.0230   23.6530 C.ar      1 FAD1406     0.0000 
     34 C7M       -11.8580    9.9050   24.1190 C.3       1 FAD1406     0.0000 
     35 C8        -14.3610   10.5460   24.5260 C.ar      1 FAD1406     0.0000 
     36 C8M       -14.0750   11.0160   25.9270 C.3       1 FAD1406     0.0000 
     37 C9        -15.6690   10.6470   24.0720 C.ar      1 FAD1406     0.0000 
     38 C9A       -16.0060   10.2510   22.7890 C.ar      1 FAD1406     0.0000 
     39 N10       -17.3290   10.3250   22.3010 N.pl3     1 FAD1406     0.0000 
     40 C10       -17.5850    9.9010   20.9920 C.2       1 FAD1406     0.0000 
     41 C1'       -18.4190   10.8890   23.1130 C.3       1 FAD1406     0.0000 
     42 C2'       -18.9500    9.9330   24.1490 C.3       1 FAD1406     0.0000 
     43 O2'       -17.9930    8.9100   24.4180 O.3       1 FAD1406     0.0000 
     44 C3'       -20.2710    9.3400   23.6850 C.3       1 FAD1406     0.0000 
     45 O3'       -21.1600   10.4080   23.3030 O.3       1 FAD1406     0.0000 
     46 C4'       -20.8660    8.4810   24.8020 C.3       1 FAD1406     0.0000 
     47 O4'       -21.8620    7.5630   24.2950 O.3       1 FAD1406     0.0000 
     48 C5'       -21.5050    9.3180   25.8930 C.3       1 FAD1406     0.0000 
     49 O5'       -22.1210    8.4120   26.7940 O.3       1 FAD1406     0.0000 
     50 P         -21.9770    8.5250   28.3850 P.3       1 FAD1406     0.0000 
     51 O1P       -22.7820    7.3670   28.9480 O.co2     1 FAD1406     0.0000 
     52 O2P       -20.4990    8.6480   28.7490 O.co2     1 FAD1406     0.0000 
     53 O3P       -22.7830    9.8800   28.6410 O.3       1 FAD1406     0.0000 
@<TRIPOS>BOND
     1    1    2 ar   
     2    1    3 ar   
     3    1    4 1    
     4    1   53 1    
     5    4    5 1    
     6    5    6 1    
     7    6    7 1    
     8    6    8 1    
     9    7   12 1    
    10    8    9 1    
    11    8   10 1    
    12   10   11 1    
    13   10   12 1    
    14   12   13 1    
    15   13   14 1    
    16   13   22 1    
    17   14   15 2    
    18   15   16 1    
    19   16   17 ar   
    20   16   22 ar   
    21   17   18 1    
    22   17   19 ar   
    23   19   20 ar   
    24   20   21 ar   
    25   21   22 ar   
    26   23   24 1    
    27   23   40 2    
    28   24   25 2    
    29   24   26 am   
    30   26   27 am   
    31   27   28 2    
    32   27   29 1    
    33   29   30 2    
    34   29   40 1    
    35   30   31 1    
    36   31   32 ar   
    37   31   38 ar   
    38   32   33 ar   
    39   33   34 1    
    40   33   35 ar   
    41   35   36 1    
    42   35   37 ar   
    43   37   38 ar   
    44   38   39 1    
    45   39   40 1    
    46   39   41 1    
    47   41   42 1    
    48   42   43 1    
    49   42   44 1    
    50   44   45 1    
    51   44   46 1    
    52   46   47 1    
    53   46   48 1    
    54   48   49 1    
    55   49   50 1    
    56   50   51 ar   
    57   50   52 ar   
    58   50   53 1    
@<TRIPOS>SUBSTRUCTURE
     1 FAD1406     1 GROUP   
@<TRIPOS>SET
ATOM$ORANGE STATIC     ATOMS   COLORGROUP SYSTEM 
54 5 5 6 6 8 8 10 10 12 12 14 14 16 16 17 17 20 \
20 22 22 24 24 27 27 29 29 31 31 32 32 33 33 34 34 35 \
35 36 36 37 37 38 38 40 40 41 41 42 42 44 44 46 46 48 \
48 

