#    Name: 5yb0_1_PLP
#    Modification time : Fri May 22 19:16:21 2020

@<TRIPOS>MOLECULE
5yb0_1_PLP
   16    16     1     0     0
SMALL
NO_CHARGES


@<TRIPOS>ATOM
      1 N1         -8.0120  -16.4690  -45.3370 N.ar      1 PLP401      0.0000 
      2 C2         -8.9310  -16.2230  -46.2940 C.ar      1 PLP401      0.0000 
      3 C2A        -9.0140  -17.0450  -47.5540 C.3       1 PLP401      0.0000 
      4 C3         -9.8670  -15.1140  -46.0860 C.ar      1 PLP401      0.0000 
      5 O3        -10.8030  -14.8640  -47.0380 O.3       1 PLP401      0.0000 
      6 C4         -9.7550  -14.3160  -44.8310 C.ar      1 PLP401      0.0000 
      7 C4A       -10.6470  -13.1670  -44.5240 C.2       1 PLP401      0.0000 
      8 O4A       -11.5090  -12.8420  -45.3360 O.2       1 PLP401      0.0000 
      9 C5         -8.7010  -14.6980  -43.8810 C.ar      1 PLP401      0.0000 
     10 C6         -7.8680  -15.7670  -44.1960 C.ar      1 PLP401      0.0000 
     11 C5A        -8.5070  -13.9200  -42.6050 C.3       1 PLP401      0.0000 
     12 O4P        -9.5760  -14.0830  -41.6960 O.3       1 PLP401      0.0000 
     13 P          -9.4380  -13.3200  -40.3010 P.3       1 PLP401      0.0000 
     14 O1P       -10.1660  -12.0270  -40.4930 O.co2     1 PLP401      0.0000 
     15 O2P        -7.9810  -13.0530  -40.1300 O.co2     1 PLP401      0.0000 
     16 O3P       -10.0410  -14.3250  -39.3460 O.co2     1 PLP401      0.0000 
@<TRIPOS>BOND
     1    1    2 ar   
     2    1   10 ar   
     3    2    3 1    
     4    2    4 ar   
     5    4    5 1    
     6    4    6 ar   
     7    6    7 1    
     8    6    9 ar   
     9    7    8 2    
    10    9   10 ar   
    11    9   11 1    
    12   11   12 1    
    13   12   13 1    
    14   13   14 ar   
    15   13   15 ar   
    16   13   16 ar   
@<TRIPOS>SUBSTRUCTURE
     1 PLP401      1 GROUP   
@<TRIPOS>SET

