#    Name: 5yb0_1_PLP_CAVITY_N1_4
#    Modification time : Fri May 22 19:16:22 2020

@<TRIPOS>MOLECULE
5yb0_1_PLP_CAVITY_N1_4
   19     0     5     0     0
SMALL
NO_CHARGES


@<TRIPOS>ATOM
      1 OG        -13.1600  -11.6200  -43.4000 O.3       1 SER1        0.0000 
      2 OG        -10.5300  -12.9400  -42.8300 O.3       1 SER1        0.0000 
      3 OG        -10.2500  -11.9200  -41.7600 O.3       1 SER1        0.0000 
      4 OG         -8.9300  -12.5800  -41.4800 O.3       1 SER1        0.0000 
      5 N         -14.3700  -12.1200  -46.8300 N.am      2 ALA2        0.0000 
      6 O         -11.7300  -11.0200  -48.5800 O.2       2 ALA2        0.0000 
      7 N         -14.0900  -11.1000  -45.7700 N.am      2 ALA2        0.0000 
      8 N         -13.8100  -10.0800  -44.7100 N.am      2 ALA2        0.0000 
      9 O          -9.6000  -13.4600  -40.4600 O.2       2 ALA2        0.0000 
     10 OD1       -12.7800  -11.7600  -45.4800 O.co2     3 ASP3        0.0000 
     11 CZ        -11.4500  -10.0000  -47.5200 C.ar      4 PHE5        0.0000 
     12 CZ        -12.1100  -10.8800  -46.5000 C.ar      4 PHE5        0.0000 
     13 CZ        -11.8300   -9.8600  -45.4400 C.ar      4 PHE5        0.0000 
     14 CZ        -12.5000  -10.7400  -44.4200 C.ar      4 PHE5        0.0000 
     15 CZ        -11.1800  -11.4000  -44.1300 C.ar      4 PHE5        0.0000 
     16 CZ        -10.9000  -10.3800  -43.0700 C.ar      4 PHE5        0.0000 
     17 CA        -13.7100  -11.2400  -47.8500 C.3       5 GLY6        0.0000 
     18 CA        -12.3900  -11.9000  -47.5600 C.3       5 GLY6        0.0000 
     19 CA        -13.4300  -10.2200  -46.7900 C.3       5 GLY6        0.0000 
@<TRIPOS>BOND
@<TRIPOS>SUBSTRUCTURE
     1 SER1        1 GROUP   
     2 ALA2        5 GROUP   
     3 ASP3       10 GROUP   
     4 PHE5       11 GROUP   
     5 GLY6       17 GROUP   
@<TRIPOS>SET

