#    Name: 5yb0_3_PLP
#    Modification time : Fri May 22 19:16:40 2020

@<TRIPOS>MOLECULE
5yb0_3_PLP
   16    16     1     0     0
SMALL
NO_CHARGES


@<TRIPOS>ATOM
      1 N1        -21.5210  -21.3160 -108.4160 N.ar      1 PLP401      0.0000 
      2 C2        -21.6700  -21.6230 -109.7240 C.ar      1 PLP401      0.0000 
      3 C2A       -23.0150  -22.0860 -110.2120 C.3       1 PLP401      0.0000 
      4 C3        -20.5140  -21.4820 -110.6430 C.ar      1 PLP401      0.0000 
      5 O3        -20.6200  -21.7770 -111.9600 O.3       1 PLP401      0.0000 
      6 C4        -19.2310  -21.0030 -110.0820 C.ar      1 PLP401      0.0000 
      7 C4A       -18.0340  -20.8170 -110.9450 C.2       1 PLP401      0.0000 
      8 O4A       -18.1170  -20.9920 -112.1630 O.2       1 PLP401      0.0000 
      9 C5        -19.2260  -20.6970 -108.6380 C.ar      1 PLP401      0.0000 
     10 C6        -20.3750  -20.8910 -107.8770 C.ar      1 PLP401      0.0000 
     11 C5A       -17.9770  -20.2500 -107.9220 C.3       1 PLP401      0.0000 
     12 O4P       -17.5620  -18.9000 -108.1120 O.3       1 PLP401      0.0000 
     13 P         -16.1220  -18.5630 -107.4760 P.3       1 PLP401      0.0000 
     14 O1P       -15.1190  -19.5060 -108.1070 O.co2     1 PLP401      0.0000 
     15 O2P       -16.3250  -18.9040 -106.0310 O.co2     1 PLP401      0.0000 
     16 O3P       -15.9130  -17.1010 -107.7930 O.co2     1 PLP401      0.0000 
@<TRIPOS>BOND
     1    1    2 ar   
     2    1   10 ar   
     3    2    3 1    
     4    2    4 ar   
     5    4    5 1    
     6    4    6 ar   
     7    6    7 1    
     8    6    9 ar   
     9    7    8 2    
    10    9   10 ar   
    11    9   11 1    
    12   11   12 1    
    13   12   13 1    
    14   13   14 ar   
    15   13   15 ar   
    16   13   16 ar   
@<TRIPOS>SUBSTRUCTURE
     1 PLP401      1 GROUP   
@<TRIPOS>SET

