#    Name: 5yb0_2_PLP
#    Modification time : Fri May 22 19:16:31 2020

@<TRIPOS>MOLECULE
5yb0_2_PLP
   16    16     1     0     0
SMALL
NO_CHARGES


@<TRIPOS>ATOM
      1 N1         18.4030  -44.9940  -23.4770 N.ar      1 PLP401      0.0000 
      2 C2         19.1170  -45.0690  -24.6110 C.ar      1 PLP401      0.0000 
      3 C2A        20.6130  -44.9060  -24.5560 C.3       1 PLP401      0.0000 
      4 C3         18.4540  -45.3100  -25.8960 C.ar      1 PLP401      0.0000 
      5 O3         19.2880  -45.3680  -26.9610 O.3       1 PLP401      0.0000 
      6 C4         16.9660  -45.4820  -25.9070 C.ar      1 PLP401      0.0000 
      7 C4A        16.0470  -45.7230  -27.0780 C.2       1 PLP401      0.0000 
      8 O4A        16.4160  -45.7710  -28.2400 O.2       1 PLP401      0.0000 
      9 C5         16.3260  -45.3810  -24.5730 C.ar      1 PLP401      0.0000 
     10 C6         17.0810  -45.1390  -23.4360 C.ar      1 PLP401      0.0000 
     11 C5A        14.8290  -45.4970  -24.4110 C.3       1 PLP401      0.0000 
     12 O4P        14.3200  -46.7660  -24.8110 O.3       1 PLP401      0.0000 
     13 P          12.7330  -46.7950  -24.9120 P.3       1 PLP401      0.0000 
     14 O1P        12.5100  -46.0250  -26.1780 O.co2     1 PLP401      0.0000 
     15 O2P        12.2840  -46.0120  -23.7030 O.co2     1 PLP401      0.0000 
     16 O3P        12.3820  -48.2710  -24.9350 O.co2     1 PLP401      0.0000 
@<TRIPOS>BOND
     1    1    2 ar   
     2    1   10 ar   
     3    2    3 1    
     4    2    4 ar   
     5    4    5 1    
     6    4    6 ar   
     7    6    7 1    
     8    6    9 ar   
     9    7    8 2    
    10    9   10 ar   
    11    9   11 1    
    12   11   12 1    
    13   12   13 1    
    14   13   14 ar   
    15   13   15 ar   
    16   13   16 ar   
@<TRIPOS>SUBSTRUCTURE
     1 PLP401      1 GROUP   
@<TRIPOS>SET

