#    Name: 5yb0_2_PLP_CAVITY_N1_6
#    Modification time : Fri May 22 19:16:32 2020

@<TRIPOS>MOLECULE
5yb0_2_PLP_CAVITY_N1_6
   64     0     6     0     0
SMALL
NO_CHARGES


@<TRIPOS>ATOM
      1 OG         14.0200  -46.8100  -29.5400 O.3       1 SER1        0.0000 
      2 OG         13.0000  -42.7100  -31.0900 O.3       1 SER1        0.0000 
      3 OG         12.3300  -43.5900  -30.0700 O.3       1 SER1        0.0000 
      4 OG         14.3000  -45.7900  -28.4800 O.3       1 SER1        0.0000 
      5 OG         12.6000  -44.9900  -26.6800 O.3       1 SER1        0.0000 
      6 OG         13.9100  -45.6500  -26.4000 O.3       1 SER1        0.0000 
      7 OG         13.2500  -46.5300  -25.3800 O.3       1 SER1        0.0000 
      8 OG         13.5300  -45.5100  -24.3100 O.3       1 SER1        0.0000 
      9 OG         16.8300  -45.9500  -24.7600 O.3       1 SER1        0.0000 
     10 OG         18.4200  -45.5900  -23.4100 O.3       1 SER1        0.0000 
     11 N          15.3500  -45.0500  -31.5800 N.am      2 ALA2        0.0000 
     12 N          14.6800  -45.9300  -30.5600 N.am      2 ALA2        0.0000 
     13 N          16.6600  -45.7100  -31.2900 N.am      2 ALA2        0.0000 
     14 O          14.9500  -47.3300  -27.1700 O.2       2 ALA2        0.0000 
     15 O          17.8900  -42.7900  -30.1800 O.2       2 ALA2        0.0000 
     16 O          15.2300  -46.3100  -26.1100 O.2       2 ALA2        0.0000 
     17 O          14.5700  -47.1900  -25.0900 O.2       2 ALA2        0.0000 
     18 OD1        16.9600  -42.2700  -32.5500 O.co2     3 ASP3        0.0000 
     19 OD1        17.6100  -43.8100  -31.2400 O.co2     3 ASP3        0.0000 
     20 OD1        16.9400  -44.6900  -30.2300 O.co2     3 ASP3        0.0000 
     21 OD1        16.2800  -45.5700  -29.2100 O.co2     3 ASP3        0.0000 
     22 OD1        17.2400  -41.2500  -31.4800 O.co2     3 ASP3        0.0000 
     23 OD1        18.5500  -41.9100  -31.2000 O.co2     3 ASP3        0.0000 
     24 OD1        16.5500  -46.9700  -25.8200 O.co2     3 ASP3        0.0000 
     25 OD1        11.5800  -40.8900  -28.2300 O.co2     3 ASP3        0.0000 
     26 CZ         12.7200  -43.7300  -32.1500 C.ar      4 PHE5        0.0000 
     27 CZ         14.0300  -44.3900  -31.8600 C.ar      4 PHE5        0.0000 
     28 CZ         13.3700  -45.2700  -30.8500 C.ar      4 PHE5        0.0000 
     29 CZ         14.3100  -43.3700  -30.8000 C.ar      4 PHE5        0.0000 
     30 CZ         13.6500  -44.2500  -29.7800 C.ar      4 PHE5        0.0000 
     31 CZ         15.6300  -44.0300  -30.5100 C.ar      4 PHE5        0.0000 
     32 CZ         14.9600  -44.9100  -29.5000 C.ar      4 PHE5        0.0000 
     33 CZ         13.2800  -41.6900  -30.0200 C.ar      4 PHE5        0.0000 
     34 CZ         12.6100  -42.5700  -29.0100 C.ar      4 PHE5        0.0000 
     35 CZ         15.2600  -41.4700  -30.7500 C.ar      4 PHE5        0.0000 
     36 CZ         14.5900  -42.3500  -29.7400 C.ar      4 PHE5        0.0000 
     37 CZ         13.9300  -43.2300  -28.7200 C.ar      4 PHE5        0.0000 
     38 CZ         13.2600  -44.1100  -27.7000 C.ar      4 PHE5        0.0000 
     39 CZ         16.5700  -42.1300  -30.4700 C.ar      4 PHE5        0.0000 
     40 CZ         14.5800  -44.7700  -27.4100 C.ar      4 PHE5        0.0000 
     41 CZ         15.8900  -45.4300  -27.1300 C.ar      4 PHE5        0.0000 
     42 CZ         13.5600  -40.6700  -28.9600 C.ar      4 PHE5        0.0000 
     43 CZ         12.8900  -41.5500  -27.9400 C.ar      4 PHE5        0.0000 
     44 CZ         12.2300  -42.4300  -26.9200 C.ar      4 PHE5        0.0000 
     45 CZ         15.5400  -40.4500  -29.6900 C.ar      4 PHE5        0.0000 
     46 CZ         12.8800  -43.9700  -25.6200 C.ar      4 PHE5        0.0000 
     47 CZ         14.2000  -44.6300  -25.3300 C.ar      4 PHE5        0.0000 
     48 CZ         15.5100  -45.2900  -25.0500 C.ar      4 PHE5        0.0000 
     49 CZ         17.4900  -45.0700  -25.7800 C.ar      4 PHE5        0.0000 
     50 CZ         12.5100  -41.4100  -25.8600 C.ar      4 PHE5        0.0000 
     51 CZ         17.1100  -44.9300  -23.6900 C.ar      4 PHE5        0.0000 
     52 CZ         19.0900  -44.7100  -24.4200 C.ar      4 PHE5        0.0000 
     53 CA         15.7300  -45.1900  -33.6600 C.3       5 GLY6        0.0000 
     54 CA         16.0100  -44.1700  -32.5900 C.3       5 GLY6        0.0000 
     55 CA         17.3300  -44.8300  -32.3100 C.3       5 GLY6        0.0000 
     56 CA         16.0000  -46.5900  -30.2700 C.3       5 GLY6        0.0000 
     57 CA         15.6100  -46.4500  -28.1900 C.3       5 GLY6        0.0000 
     58 CA         11.9500  -43.4500  -27.9900 C.3       5 GLY6        0.0000 
     59 CA         18.8300  -40.8900  -30.1300 C.3       5 GLY6        0.0000 
     60 CA         14.8500  -46.1700  -24.0300 C.3       5 GLY6        0.0000 
     61 CA         18.8100  -45.7300  -25.4900 C.3       5 GLY6        0.0000 
     62 DU         14.7000  -43.5100  -32.8800 H         6 CUB7        0.0000 
     63 DU         14.9800  -42.4900  -31.8200 H         6 CUB7        0.0000 
     64 DU         16.2900  -43.1500  -31.5300 H         6 CUB7        0.0000 
@<TRIPOS>BOND
@<TRIPOS>SUBSTRUCTURE
     1 SER1        1 GROUP   
     2 ALA2       11 GROUP   
     3 ASP3       18 GROUP   
     4 PHE5       26 GROUP   
     5 GLY6       53 GROUP   
     6 CUB7       62 GROUP   
@<TRIPOS>SET

