#    Name: 5yb0_1_PLP_CAVITY_N1_6
#    Modification time : Fri May 22 19:16:22 2020

@<TRIPOS>MOLECULE
5yb0_1_PLP_CAVITY_N1_6
   40     0     6     0     0
SMALL
NO_CHARGES


@<TRIPOS>ATOM
      1 OG        -13.1600  -11.6200  -43.4000 O.3       1 SER1        0.0000 
      2 OG        -10.5300  -12.9400  -42.8300 O.3       1 SER1        0.0000 
      3 OG        -10.2500  -11.9200  -41.7600 O.3       1 SER1        0.0000 
      4 OG         -8.9300  -12.5800  -41.4800 O.3       1 SER1        0.0000 
      5 N         -14.3700  -12.1200  -46.8300 N.am      2 ALA2        0.0000 
      6 O         -11.7300  -11.0200  -48.5800 O.2       2 ALA2        0.0000 
      7 N         -15.4100  -10.4400  -46.0600 N.am      2 ALA2        0.0000 
      8 N         -14.0900  -11.1000  -45.7700 N.am      2 ALA2        0.0000 
      9 N         -14.4600   -8.5400  -46.0100 N.am      2 ALA2        0.0000 
     10 N         -13.8100  -10.0800  -44.7100 N.am      2 ALA2        0.0000 
     11 O          -9.6000  -13.4600  -40.4600 O.2       2 ALA2        0.0000 
     12 OD1       -13.0400  -10.3600  -48.8700 O.co2     3 ASP3        0.0000 
     13 OD1       -14.0800   -8.6800  -48.0900 O.co2     3 ASP3        0.0000 
     14 OD1       -12.1000   -8.4600  -48.8200 O.co2     3 ASP3        0.0000 
     15 OD1       -12.7600   -9.3400  -47.8000 O.co2     3 ASP3        0.0000 
     16 OD1       -12.7800  -11.7600  -45.4800 O.co2     3 ASP3        0.0000 
     17 OD1       -13.8000   -7.6600  -47.0300 O.co2     3 ASP3        0.0000 
     18 OD1       -12.2000   -7.3000  -45.6800 O.co2     3 ASP3        0.0000 
     19 OD1        -7.5900   -8.4000  -45.8300 O.co2     3 ASP3        0.0000 
     20 CZ        -11.4500  -10.0000  -47.5200 C.ar      4 PHE5        0.0000 
     21 CZ        -12.1100  -10.8800  -46.5000 C.ar      4 PHE5        0.0000 
     22 CZ        -11.8200   -7.4400  -47.7600 C.ar      4 PHE5        0.0000 
     23 CZ        -11.1700   -8.9800  -46.4500 C.ar      4 PHE5        0.0000 
     24 CZ        -11.8300   -9.8600  -45.4400 C.ar      4 PHE5        0.0000 
     25 CZ        -12.5000  -10.7400  -44.4200 C.ar      4 PHE5        0.0000 
     26 CZ         -9.1900   -8.7600  -47.1800 C.ar      4 PHE5        0.0000 
     27 CZ        -11.1800  -11.4000  -44.1300 C.ar      4 PHE5        0.0000 
     28 CZ        -14.1800   -7.5200  -44.9500 C.ar      4 PHE5        0.0000 
     29 CZ         -8.9100   -7.7400  -46.1200 C.ar      4 PHE5        0.0000 
     30 CZ         -9.5700   -8.6200  -45.1000 C.ar      4 PHE5        0.0000 
     31 CZ        -10.9000  -10.3800  -43.0700 C.ar      4 PHE5        0.0000 
     32 CZ         -7.9800   -8.2700  -43.7500 C.ar      4 PHE5        0.0000 
     33 CA        -13.7100  -11.2400  -47.8500 C.3       5 GLY6        0.0000 
     34 CA        -12.3900  -11.9000  -47.5600 C.3       5 GLY6        0.0000 
     35 CA        -14.7400   -9.5600  -47.0700 C.3       5 GLY6        0.0000 
     36 CA        -13.4300  -10.2200  -46.7900 C.3       5 GLY6        0.0000 
     37 CA        -10.7800   -9.1200  -48.5300 C.3       5 GLY6        0.0000 
     38 CA        -10.5000   -8.1000  -47.4700 C.3       5 GLY6        0.0000 
     39 DU        -12.4800   -8.3200  -46.7400 H         6 CUB7        0.0000 
     40 DU        -13.1500   -9.2000  -45.7200 H         6 CUB7        0.0000 
@<TRIPOS>BOND
@<TRIPOS>SUBSTRUCTURE
     1 SER1        1 GROUP   
     2 ALA2        5 GROUP   
     3 ASP3       12 GROUP   
     4 PHE5       20 GROUP   
     5 GLY6       33 GROUP   
     6 CUB7       39 GROUP   
@<TRIPOS>SET

