#    Name: 5yb0_1_PLP_CAVITY_N1_12
#    Modification time : Fri May 22 19:16:22 2020

@<TRIPOS>MOLECULE
5yb0_1_PLP_CAVITY_N1_12
   89     0     6     0     0
SMALL
NO_CHARGES


@<TRIPOS>ATOM
      1 OG        -17.0900   -7.2200  -46.5800 O.3       1 SER1        0.0000 
      2 OG        -17.7600   -8.0900  -45.5700 O.3       1 SER1        0.0000 
      3 OG         -9.8400   -7.2200  -48.4900 O.3       1 SER1        0.0000 
      4 OG        -13.1600  -11.6200  -43.4000 O.3       1 SER1        0.0000 
      5 OG        -10.5300  -12.9400  -42.8300 O.3       1 SER1        0.0000 
      6 OG         -9.5600   -6.2000  -47.4200 O.3       1 SER1        0.0000 
      7 OG         -7.5800   -5.9800  -48.1500 O.3       1 SER1        0.0000 
      8 OG         -8.2400   -6.8600  -47.1400 O.3       1 SER1        0.0000 
      9 OG        -10.2500  -11.9200  -41.7600 O.3       1 SER1        0.0000 
     10 OG         -8.9300  -12.5800  -41.4800 O.3       1 SER1        0.0000 
     11 N         -14.3700  -12.1200  -46.8300 N.am      2 ALA2        0.0000 
     12 O         -11.7300  -11.0200  -48.5800 O.2       2 ALA2        0.0000 
     13 O         -16.7200   -9.7800  -46.3400 O.2       2 ALA2        0.0000 
     14 N         -15.4100  -10.4400  -46.0600 N.am      2 ALA2        0.0000 
     15 N         -14.0900  -11.1000  -45.7700 N.am      2 ALA2        0.0000 
     16 N         -16.4400   -8.7600  -45.2800 N.am      2 ALA2        0.0000 
     17 N         -14.4600   -8.5400  -46.0100 N.am      2 ALA2        0.0000 
     18 N         -13.8100  -10.0800  -44.7100 N.am      2 ALA2        0.0000 
     19 O          -9.6000  -13.4600  -40.4600 O.2       2 ALA2        0.0000 
     20 OD1       -13.0400  -10.3600  -48.8700 O.co2     3 ASP3        0.0000 
     21 OD1       -14.0800   -8.6800  -48.0900 O.co2     3 ASP3        0.0000 
     22 OD1       -12.1000   -8.4600  -48.8200 O.co2     3 ASP3        0.0000 
     23 OD1       -12.7600   -9.3400  -47.8000 O.co2     3 ASP3        0.0000 
     24 OD1       -12.7800  -11.7600  -45.4800 O.co2     3 ASP3        0.0000 
     25 OD1       -14.4500   -6.1200  -48.3300 O.co2     3 ASP3        0.0000 
     26 OD1       -15.1100   -7.0000  -47.3100 O.co2     3 ASP3        0.0000 
     27 OD1       -13.1400   -6.7800  -48.0400 O.co2     3 ASP3        0.0000 
     28 OD1       -13.8000   -7.6600  -47.0300 O.co2     3 ASP3        0.0000 
     29 OD1       -12.2000   -7.3000  -45.6800 O.co2     3 ASP3        0.0000 
     30 OD1        -6.9300   -7.5300  -46.8500 O.co2     3 ASP3        0.0000 
     31 OD1        -7.5900   -8.4000  -45.8300 O.co2     3 ASP3        0.0000 
     32 OD1       -11.2500   -2.9800  -47.9500 O.co2     3 ASP3        0.0000 
     33 OD1       -10.5900   -4.5200  -46.6500 O.co2     3 ASP3        0.0000 
     34 OD1       -11.2600   -5.4000  -45.6300 O.co2     3 ASP3        0.0000 
     35 OD1        -9.2800   -5.1800  -46.3600 O.co2     3 ASP3        0.0000 
     36 OD1        -9.9400   -6.0600  -45.3400 O.co2     3 ASP3        0.0000 
     37 OD1        -7.3000   -4.9700  -47.0900 O.co2     3 ASP3        0.0000 
     38 OD1        -7.9600   -5.8400  -46.0700 O.co2     3 ASP3        0.0000 
     39 OD1        -8.6300   -6.7200  -45.0600 O.co2     3 ASP3        0.0000 
     40 OD1        -5.9800   -5.6300  -46.8000 O.co2     3 ASP3        0.0000 
     41 OD1        -9.6600   -5.0400  -44.2800 O.co2     3 ASP3        0.0000 
     42 OD1        -7.6800   -4.8300  -45.0100 O.co2     3 ASP3        0.0000 
     43 OD1        -7.0300   -6.3700  -43.7000 O.co2     3 ASP3        0.0000 
     44 CZ        -11.4500  -10.0000  -47.5200 C.ar      4 PHE5        0.0000 
     45 CZ        -12.1100  -10.8800  -46.5000 C.ar      4 PHE5        0.0000 
     46 CZ        -12.4700   -5.9000  -49.0600 C.ar      4 PHE5        0.0000 
     47 CZ        -11.8200   -7.4400  -47.7600 C.ar      4 PHE5        0.0000 
     48 CZ        -11.1700   -8.9800  -46.4500 C.ar      4 PHE5        0.0000 
     49 CZ        -11.8300   -9.8600  -45.4400 C.ar      4 PHE5        0.0000 
     50 CZ        -12.5000  -10.7400  -44.4200 C.ar      4 PHE5        0.0000 
     51 CZ         -9.1900   -8.7600  -47.1800 C.ar      4 PHE5        0.0000 
     52 CZ        -11.1800  -11.4000  -44.1300 C.ar      4 PHE5        0.0000 
     53 CZ        -12.1900   -4.8800  -48.0000 C.ar      4 PHE5        0.0000 
     54 CZ        -14.1800   -7.5200  -44.9500 C.ar      4 PHE5        0.0000 
     55 CZ        -10.8800   -5.5400  -47.7100 C.ar      4 PHE5        0.0000 
     56 CZ         -8.9100   -7.7400  -46.1200 C.ar      4 PHE5        0.0000 
     57 CZ         -9.5700   -8.6200  -45.1000 C.ar      4 PHE5        0.0000 
     58 CZ        -10.9000  -10.3800  -43.0700 C.ar      4 PHE5        0.0000 
     59 CZ         -7.9800   -8.2700  -43.7500 C.ar      4 PHE5        0.0000 
     60 CA        -13.7100  -11.2400  -47.8500 C.3       5 GLY6        0.0000 
     61 CA        -12.3900  -11.9000  -47.5600 C.3       5 GLY6        0.0000 
     62 CA        -16.0600   -8.9000  -47.3600 C.3       5 GLY6        0.0000 
     63 CA        -14.7400   -9.5600  -47.0700 C.3       5 GLY6        0.0000 
     64 CA        -13.4300  -10.2200  -46.7900 C.3       5 GLY6        0.0000 
     65 CA        -10.7800   -9.1200  -48.5300 C.3       5 GLY6        0.0000 
     66 CA        -15.7800   -7.8800  -46.3000 C.3       5 GLY6        0.0000 
     67 CA        -10.5000   -8.1000  -47.4700 C.3       5 GLY6        0.0000 
     68 CA         -8.5200   -7.8800  -48.2000 C.3       5 GLY6        0.0000 
     69 CA         -7.2100   -8.5400  -47.9100 C.3       5 GLY6        0.0000 
     70 CA        -15.4900   -4.4400  -47.5500 C.3       5 GLY6        0.0000 
     71 CA        -16.1500   -5.3200  -46.5400 C.3       5 GLY6        0.0000 
     72 CA        -14.1700   -5.1000  -47.2700 C.3       5 GLY6        0.0000 
     73 CA        -14.8300   -5.9800  -46.2500 C.3       5 GLY6        0.0000 
     74 CA        -15.5000   -6.8600  -45.2300 C.3       5 GLY6        0.0000 
     75 CA        -12.8500   -5.7600  -46.9800 C.3       5 GLY6        0.0000 
     76 CA        -13.5200   -6.6400  -45.9600 C.3       5 GLY6        0.0000 
     77 CA         -6.2600   -6.6500  -47.8700 C.3       5 GLY6        0.0000 
     78 CA        -13.8900   -4.0800  -46.2000 C.3       5 GLY6        0.0000 
     79 CA        -12.5700   -4.7400  -45.9200 C.3       5 GLY6        0.0000 
     80 DU        -15.7700   -5.4600  -48.6200 H         6 CUB7        0.0000 
     81 DU        -16.4300   -6.3400  -47.6000 H         6 CUB7        0.0000 
     82 DU        -13.7900   -5.2400  -49.3500 H         6 CUB7        0.0000 
     83 DU        -12.4800   -8.3200  -46.7400 H         6 CUB7        0.0000 
     84 DU        -13.1500   -9.2000  -45.7200 H         6 CUB7        0.0000 
     85 DU        -14.8200   -3.5600  -48.5700 H         6 CUB7        0.0000 
     86 DU        -13.5100   -4.2200  -48.2800 H         6 CUB7        0.0000 
     87 DU        -11.5400   -6.4200  -46.6900 H         6 CUB7        0.0000 
     88 DU        -10.2200   -7.0800  -46.4100 H         6 CUB7        0.0000 
     89 DU        -11.9100   -3.8600  -46.9300 H         6 CUB7        0.0000 
@<TRIPOS>BOND
@<TRIPOS>SUBSTRUCTURE
     1 SER1        1 GROUP   
     2 ALA2       11 GROUP   
     3 ASP3       20 GROUP   
     4 PHE5       44 GROUP   
     5 GLY6       60 GROUP   
     6 CUB7       80 GROUP   
@<TRIPOS>SET

