#    Name: 5yb0_2_PLP_CAVITY_N1_8
#    Modification time : Fri May 22 19:16:32 2020

@<TRIPOS>MOLECULE
5yb0_2_PLP_CAVITY_N1_8
   89     0     6     0     0
SMALL
NO_CHARGES


@<TRIPOS>ATOM
      1 OG         12.8200  -44.8900  -35.3000 O.3       1 SER1        0.0000 
      2 OG         14.0200  -46.8100  -29.5400 O.3       1 SER1        0.0000 
      3 OG         13.0000  -42.7100  -31.0900 O.3       1 SER1        0.0000 
      4 OG         12.3300  -43.5900  -30.0700 O.3       1 SER1        0.0000 
      5 OG         14.3000  -45.7900  -28.4800 O.3       1 SER1        0.0000 
      6 OG         12.6000  -44.9900  -26.6800 O.3       1 SER1        0.0000 
      7 OG         13.9100  -45.6500  -26.4000 O.3       1 SER1        0.0000 
      8 OG         13.2500  -46.5300  -25.3800 O.3       1 SER1        0.0000 
      9 OG         14.2200  -39.7900  -29.9800 O.3       1 SER1        0.0000 
     10 OG         13.5300  -45.5100  -24.3100 O.3       1 SER1        0.0000 
     11 OG         16.8300  -45.9500  -24.7600 O.3       1 SER1        0.0000 
     12 OG         18.4200  -45.5900  -23.4100 O.3       1 SER1        0.0000 
     13 N          14.1300  -45.5500  -35.0100 N.am      2 ALA2        0.0000 
     14 N          14.4100  -44.5300  -33.9500 N.am      2 ALA2        0.0000 
     15 N          15.3500  -45.0500  -31.5800 N.am      2 ALA2        0.0000 
     16 N          14.6800  -45.9300  -30.5600 N.am      2 ALA2        0.0000 
     17 N          16.6600  -45.7100  -31.2900 N.am      2 ALA2        0.0000 
     18 O          14.9500  -47.3300  -27.1700 O.2       2 ALA2        0.0000 
     19 O          17.8900  -42.7900  -30.1800 O.2       2 ALA2        0.0000 
     20 O          15.2300  -46.3100  -26.1100 O.2       2 ALA2        0.0000 
     21 O          14.5700  -47.1900  -25.0900 O.2       2 ALA2        0.0000 
     22 OD1        15.0800  -43.6500  -34.9600 O.co2     3 ASP3        0.0000 
     23 OD1        15.3600  -42.6300  -33.9000 O.co2     3 ASP3        0.0000 
     24 OD1        12.3400  -41.1700  -32.3900 O.co2     3 ASP3        0.0000 
     25 OD1        15.6400  -41.6100  -32.8300 O.co2     3 ASP3        0.0000 
     26 OD1        16.9600  -42.2700  -32.5500 O.co2     3 ASP3        0.0000 
     27 OD1        17.6100  -43.8100  -31.2400 O.co2     3 ASP3        0.0000 
     28 OD1        16.9400  -44.6900  -30.2300 O.co2     3 ASP3        0.0000 
     29 OD1        16.2800  -45.5700  -29.2100 O.co2     3 ASP3        0.0000 
     30 OD1        12.6300  -40.1500  -31.3300 O.co2     3 ASP3        0.0000 
     31 OD1        11.9600  -41.0300  -30.3100 O.co2     3 ASP3        0.0000 
     32 OD1        17.9000  -40.3700  -32.5000 O.co2     3 ASP3        0.0000 
     33 OD1        17.2400  -41.2500  -31.4800 O.co2     3 ASP3        0.0000 
     34 OD1        18.5500  -41.9100  -31.2000 O.co2     3 ASP3        0.0000 
     35 OD1        16.5500  -46.9700  -25.8200 O.co2     3 ASP3        0.0000 
     36 OD1        10.9300  -39.3500  -29.5300 O.co2     3 ASP3        0.0000 
     37 OD1        12.2400  -40.0100  -29.2500 O.co2     3 ASP3        0.0000 
     38 OD1        11.5800  -40.8900  -28.2300 O.co2     3 ASP3        0.0000 
     39 CZ         12.7200  -43.7300  -32.1500 C.ar      4 PHE5        0.0000 
     40 CZ         14.0300  -44.3900  -31.8600 C.ar      4 PHE5        0.0000 
     41 CZ         13.3700  -45.2700  -30.8500 C.ar      4 PHE5        0.0000 
     42 CZ         14.3100  -43.3700  -30.8000 C.ar      4 PHE5        0.0000 
     43 CZ         13.6500  -44.2500  -29.7800 C.ar      4 PHE5        0.0000 
     44 CZ         15.6300  -44.0300  -30.5100 C.ar      4 PHE5        0.0000 
     45 CZ         14.9600  -44.9100  -29.5000 C.ar      4 PHE5        0.0000 
     46 CZ         14.6000  -39.9300  -32.0600 C.ar      4 PHE5        0.0000 
     47 CZ         13.2800  -41.6900  -30.0200 C.ar      4 PHE5        0.0000 
     48 CZ         12.6100  -42.5700  -29.0100 C.ar      4 PHE5        0.0000 
     49 CZ         15.9200  -40.5900  -31.7700 C.ar      4 PHE5        0.0000 
     50 CZ         15.2600  -41.4700  -30.7500 C.ar      4 PHE5        0.0000 
     51 CZ         14.5900  -42.3500  -29.7400 C.ar      4 PHE5        0.0000 
     52 CZ         13.9300  -43.2300  -28.7200 C.ar      4 PHE5        0.0000 
     53 CZ         13.2600  -44.1100  -27.7000 C.ar      4 PHE5        0.0000 
     54 CZ         16.5700  -42.1300  -30.4700 C.ar      4 PHE5        0.0000 
     55 CZ         14.5800  -44.7700  -27.4100 C.ar      4 PHE5        0.0000 
     56 CZ         15.8900  -45.4300  -27.1300 C.ar      4 PHE5        0.0000 
     57 CZ         13.5600  -40.6700  -28.9600 C.ar      4 PHE5        0.0000 
     58 CZ         12.8900  -41.5500  -27.9400 C.ar      4 PHE5        0.0000 
     59 CZ         12.2300  -42.4300  -26.9200 C.ar      4 PHE5        0.0000 
     60 CZ         16.2000  -39.5700  -30.7100 C.ar      4 PHE5        0.0000 
     61 CZ         15.5400  -40.4500  -29.6900 C.ar      4 PHE5        0.0000 
     62 CZ         12.8800  -43.9700  -25.6200 C.ar      4 PHE5        0.0000 
     63 CZ         14.2000  -44.6300  -25.3300 C.ar      4 PHE5        0.0000 
     64 CZ         15.5100  -45.2900  -25.0500 C.ar      4 PHE5        0.0000 
     65 CZ         17.4900  -45.0700  -25.7800 C.ar      4 PHE5        0.0000 
     66 CZ         12.5100  -41.4100  -25.8600 C.ar      4 PHE5        0.0000 
     67 CZ         17.1100  -44.9300  -23.6900 C.ar      4 PHE5        0.0000 
     68 CZ         19.0900  -44.7100  -24.4200 C.ar      4 PHE5        0.0000 
     69 CA         13.7600  -42.9900  -35.2500 C.3       5 GLY6        0.0000 
     70 CA         13.1000  -43.8700  -34.2300 C.3       5 GLY6        0.0000 
     71 CA         15.7300  -45.1900  -33.6600 C.3       5 GLY6        0.0000 
     72 CA         14.0400  -41.9700  -34.1900 C.3       5 GLY6        0.0000 
     73 CA         13.3800  -42.8500  -33.1700 C.3       5 GLY6        0.0000 
     74 CA         16.0100  -44.1700  -32.5900 C.3       5 GLY6        0.0000 
     75 CA         17.3300  -44.8300  -32.3100 C.3       5 GLY6        0.0000 
     76 CA         16.0000  -46.5900  -30.2700 C.3       5 GLY6        0.0000 
     77 CA         15.6100  -46.4500  -28.1900 C.3       5 GLY6        0.0000 
     78 CA         11.9500  -43.4500  -27.9900 C.3       5 GLY6        0.0000 
     79 CA         18.1800  -39.3500  -31.4400 C.3       5 GLY6        0.0000 
     80 CA         17.5200  -40.2300  -30.4200 C.3       5 GLY6        0.0000 
     81 CA         18.8300  -40.8900  -30.1300 C.3       5 GLY6        0.0000 
     82 CA         14.8500  -46.1700  -24.0300 C.3       5 GLY6        0.0000 
     83 CA         18.8100  -45.7300  -25.4900 C.3       5 GLY6        0.0000 
     84 DU         14.7000  -43.5100  -32.8800 H         6 CUB7        0.0000 
     85 DU         14.3200  -40.9500  -33.1200 H         6 CUB7        0.0000 
     86 DU         13.6600  -41.8300  -32.1000 H         6 CUB7        0.0000 
     87 DU         14.9800  -42.4900  -31.8200 H         6 CUB7        0.0000 
     88 DU         16.2900  -43.1500  -31.5300 H         6 CUB7        0.0000 
     89 DU         13.9400  -40.8100  -31.0400 H         6 CUB7        0.0000 
@<TRIPOS>BOND
@<TRIPOS>SUBSTRUCTURE
     1 SER1        1 GROUP   
     2 ALA2       13 GROUP   
     3 ASP3       22 GROUP   
     4 PHE5       39 GROUP   
     5 GLY6       69 GROUP   
     6 CUB7       84 GROUP   
@<TRIPOS>SET

