#    Name: 6e4t_1_STU
#    Modification time : Fri May 22 19:24:16 2020

@<TRIPOS>MOLECULE
6e4t_1_STU
   35    42     1     0     0
SMALL
NO_CHARGES


@<TRIPOS>ATOM
      1 O4         42.1460  -85.9990  -26.5400 O.3       1 STU602      0.0000 
      2 C25        42.6900  -86.9920  -25.6570 C.3       1 STU602      0.0000 
      3 C24        41.6920  -87.5640  -24.6490 C.3       1 STU602      0.0000 
      4 C23        40.2760  -87.0950  -24.9310 C.3       1 STU602      0.0000 
      5 C22        40.2630  -85.5760  -24.9730 C.3       1 STU602      0.0000 
      6 C21        41.2310  -85.0250  -26.0240 C.3       1 STU602      0.0000 
      7 C26        40.4120  -84.5670  -27.2280 C.3       1 STU602      0.0000 
      8 N2         41.9810  -83.8610  -25.4520 N.pl3     1 STU602      0.0000 
      9 C18        43.1930  -83.9560  -24.8520 C.ar      1 STU602      0.0000 
     10 C19        44.0760  -85.1370  -24.6260 C.ar      1 STU602      0.0000 
     11 C6         45.3600  -84.9550  -23.9490 C.ar      1 STU602      0.0000 
     12 C7         45.7270  -83.5820  -23.5180 C.ar      1 STU602      0.0000 
     13 C10        44.8980  -82.3970  -23.7190 C.ar      1 STU602      0.0000 
     14 C11        43.5900  -82.6050  -24.4100 C.ar      1 STU602      0.0000 
     15 C12        42.4820  -81.7350  -24.8070 C.ar      1 STU602      0.0000 
     16 C17        41.4670  -82.5920  -25.4670 C.ar      1 STU602      0.0000 
     17 C16        40.3130  -81.9840  -25.9380 C.ar      1 STU602      0.0000 
     18 C15        40.1650  -80.6070  -25.7640 C.ar      1 STU602      0.0000 
     19 C14        41.1360  -79.8190  -25.1350 C.ar      1 STU602      0.0000 
     20 C13        42.3180  -80.3710  -24.6430 C.ar      1 STU602      0.0000 
     21 C9         45.5550  -81.2180  -23.1760 C.3       1 STU602      0.0000 
     22 N1         46.8440  -81.7210  -22.6220 N.am      1 STU602      0.0000 
     23 C8         46.9210  -83.0620  -22.8260 C.2       1 STU602      0.0000 
     24 O5         47.9140  -83.7900  -22.4610 O.2       1 STU602      0.0000 
     25 C5         45.9410  -86.2860  -23.8990 C.ar      1 STU602      0.0000 
     26 C20        44.9570  -87.1850  -24.5540 C.ar      1 STU602      0.0000 
     27 C1         45.2920  -88.5290  -24.6290 C.ar      1 STU602      0.0000 
     28 C2         46.5100  -88.9580  -24.0980 C.ar      1 STU602      0.0000 
     29 C3         47.4150  -88.0840  -23.4860 C.ar      1 STU602      0.0000 
     30 C4         47.1450  -86.7220  -23.3750 C.ar      1 STU602      0.0000 
     31 N3         43.8750  -86.4370  -24.9570 N.pl3     1 STU602      0.0000 
     32 O6         40.5840  -85.0850  -23.6700 O.3       1 STU602      0.0000 
     33 C27        39.4200  -84.7240  -22.9300 C.3       1 STU602      0.0000 
     34 N4         39.3650  -87.5940  -23.9190 N.4       1 STU602      0.0000 
     35 C28        38.0230  -87.0510  -23.8170 C.3       1 STU602      0.0000 
@<TRIPOS>BOND
     1   10   31 1    
     2   11   12 ar   
     3   11   25 1    
     4   12   13 ar   
     5   12   23 1    
     6   13   14 ar   
     7   13   21 1    
     8   14   15 1    
     9   15   16 ar   
    10   15   20 ar   
    11   16   17 ar   
    12   17   18 ar   
    13   18   19 ar   
    14   19   20 ar   
    15   21   22 1    
    16   22   23 am   
    17   23   24 2    
    18   25   26 ar   
    19   25   30 ar   
    20   26   27 ar   
    21   26   31 1    
    22   27   28 ar   
    23   28   29 ar   
    24   29   30 ar   
    25   32   33 1    
    26   34   35 1    
    27    1    2 1    
    28    1    6 1    
    29    2    3 1    
    30    2   31 1    
    31    3    4 1    
    32    4    5 1    
    33    4   34 1    
    34    5    6 1    
    35    5   32 1    
    36    6    7 1    
    37    6    8 1    
    38    8    9 1    
    39    8   16 1    
    40    9   10 ar   
    41    9   14 ar   
    42   10   11 ar   
@<TRIPOS>SUBSTRUCTURE
     1 STU602      1 GROUP   
@<TRIPOS>SET

