#    Name: 6e4t_3_AMP
#    Modification time : Fri May 22 19:24:25 2020

@<TRIPOS>MOLECULE
6e4t_3_AMP
   23    25     1     0     1
SMALL
NO_CHARGES


@<TRIPOS>ATOM
      1 P          26.7220  -36.4800   20.4010 P.3       1 AMP402      0.0000 
      2 O1P        27.2190  -37.5630   19.4910 O.co2     1 AMP402      0.0000 
      3 O2P        26.5340  -36.9830   21.8380 O.co2     1 AMP402      0.0000 
      4 O3P        25.3990  -35.8090   19.9320 O.co2     1 AMP402      0.0000 
      5 O5'        27.8170  -35.3450   20.4830 O.3       1 AMP402      0.0000 
      6 C5'        27.8760  -33.9930   19.9830 C.3       1 AMP402      0.0000 
      7 C4'        28.3850  -33.0830   21.0770 C.3       1 AMP402      0.0000 
      8 O4'        27.4570  -33.0750   22.1860 O.3       1 AMP402      0.0000 
      9 C3'        29.7570  -33.4200   21.6670 C.3       1 AMP402      0.0000 
     10 O3'        30.5580  -32.2520   21.8110 O.3       1 AMP402      0.0000 
     11 C2'        29.4060  -34.0540   23.0170 C.3       1 AMP402      0.0000 
     12 O2'        30.4280  -33.9610   24.0020 O.3       1 AMP402      0.0000 
     13 C1'        28.1780  -33.2380   23.3910 C.3       1 AMP402      0.0000 
     14 N9         27.2940  -33.8520   24.3780 N.pl3     1 AMP402      0.0000 
     15 C8         26.8230  -35.1360   24.3920 C.2       1 AMP402      0.0000 
     16 N7         25.9760  -35.3860   25.3580 N.2       1 AMP402      0.0000 
     17 C5         25.8780  -34.1760   26.0320 C.ar      1 AMP402      0.0000 
     18 C6         25.0860  -33.7540   27.1200 C.ar      1 AMP402      0.0000 
     19 N6         24.2420  -34.5540   27.7780 N.pl3     1 AMP402      0.0000 
     20 N1         25.1810  -32.4580   27.5000 N.ar      1 AMP402      0.0000 
     21 C2         26.0120  -31.6480   26.8350 C.ar      1 AMP402      0.0000 
     22 N3         26.8120  -31.9340   25.8020 N.ar      1 AMP402      0.0000 
     23 C4         26.6950  -33.2210   25.4420 C.ar      1 AMP402      0.0000 
@<TRIPOS>BOND
     1    1    2 ar   
     2    1    3 ar   
     3    1    4 ar   
     4    1    5 1    
     5    5    6 1    
     6    6    7 1    
     7    7    8 1    
     8    7    9 1    
     9    8   13 1    
    10    9   10 1    
    11    9   11 1    
    12   11   12 1    
    13   11   13 1    
    14   13   14 1    
    15   14   15 1    
    16   14   23 1    
    17   15   16 2    
    18   16   17 1    
    19   17   18 ar   
    20   17   23 ar   
    21   18   19 1    
    22   18   20 ar   
    23   20   21 ar   
    24   21   22 ar   
    25   22   23 ar   
@<TRIPOS>SUBSTRUCTURE
     1 AMP402      1 GROUP   
@<TRIPOS>SET
ATOM$ORANGE STATIC     ATOMS   COLORGROUP SYSTEM 
20 6 6 7 7 9 9 11 11 13 13 15 15 17 17 18 18 21 \
21 23 23 

