#    Name: 6e4t_2_AMP
#    Modification time : Fri May 22 19:24:21 2020

@<TRIPOS>MOLECULE
6e4t_2_AMP
   23    25     1     0     1
SMALL
NO_CHARGES


@<TRIPOS>ATOM
      1 P          22.6130  -44.7540   21.5320 P.3       1 AMP401      0.0000 
      2 O1P        22.6050  -45.5520   20.2290 O.co2     1 AMP401      0.0000 
      3 O2P        22.2980  -43.2820   21.2790 O.co2     1 AMP401      0.0000 
      4 O3P        23.9610  -44.9760   22.1980 O.co2     1 AMP401      0.0000 
      5 O5'        21.6310  -45.5640   22.5040 O.3       1 AMP401      0.0000 
      6 C5'        21.4220  -46.9970   22.5780 C.3       1 AMP401      0.0000 
      7 C4'        21.2720  -47.4970   23.9970 C.3       1 AMP401      0.0000 
      8 O4'        22.4830  -47.2600   24.7500 O.3       1 AMP401      0.0000 
      9 C3'        20.1120  -46.9330   24.8290 C.3       1 AMP401      0.0000 
     10 O3'        19.3450  -47.9780   25.4200 O.3       1 AMP401      0.0000 
     11 C2'        20.8200  -46.0740   25.8830 C.3       1 AMP401      0.0000 
     12 O2'        20.0910  -45.9820   27.1040 O.3       1 AMP401      0.0000 
     13 C1'        22.1340  -46.8330   26.0500 C.3       1 AMP401      0.0000 
     14 N9         23.2410  -46.0480   26.6040 N.pl3     1 AMP401      0.0000 
     15 C8         23.9240  -45.0280   25.9960 C.2       1 AMP401      0.0000 
     16 N7         24.8640  -44.4950   26.7330 N.2       1 AMP401      0.0000 
     17 C5         24.8100  -45.2240   27.9140 C.ar      1 AMP401      0.0000 
     18 C6         25.5580  -45.1590   29.1060 C.ar      1 AMP401      0.0000 
     19 N6         26.5730  -44.3150   29.3020 N.pl3     1 AMP401      0.0000 
     20 N1         25.2350  -46.0230   30.0990 N.ar      1 AMP401      0.0000 
     21 C2         24.2370  -46.8920   29.8980 C.ar      1 AMP401      0.0000 
     22 N3         23.4690  -47.0510   28.8150 N.ar      1 AMP401      0.0000 
     23 C4         23.8070  -46.1820   27.8520 C.ar      1 AMP401      0.0000 
@<TRIPOS>BOND
     1    1    2 ar   
     2    1    3 ar   
     3    1    4 ar   
     4    1    5 1    
     5    5    6 1    
     6    6    7 1    
     7    7    8 1    
     8    7    9 1    
     9    8   13 1    
    10    9   10 1    
    11    9   11 1    
    12   11   12 1    
    13   11   13 1    
    14   13   14 1    
    15   14   15 1    
    16   14   23 1    
    17   15   16 2    
    18   16   17 1    
    19   17   18 ar   
    20   17   23 ar   
    21   18   19 1    
    22   18   20 ar   
    23   20   21 ar   
    24   21   22 ar   
    25   22   23 ar   
@<TRIPOS>SUBSTRUCTURE
     1 AMP401      1 GROUP   
@<TRIPOS>SET
ATOM$ORANGE STATIC     ATOMS   COLORGROUP SYSTEM 
20 6 6 7 7 9 9 11 11 13 13 15 15 17 17 18 18 21 \
21 23 23 

