#    Name: 6e4t_4_ADP
#    Modification time : Fri May 22 19:24:29 2020

@<TRIPOS>MOLECULE
6e4t_4_ADP
   27    29     1     0     1
SMALL
NO_CHARGES


@<TRIPOS>ATOM
      1 PB         20.8820  -39.4560   14.7610 P.3       1 ADP403      0.0000 
      2 O1B        21.5670  -40.5960   14.0430 O.co2     1 ADP403      0.0000 
      3 O2B        19.5650  -39.9070   15.3290 O.co2     1 ADP403      0.0000 
      4 O3B        21.8610  -38.9510   15.8340 O.co2     1 ADP403      0.0000 
      5 PA         21.5050  -37.0310   13.1460 P.3       1 ADP403      0.0000 
      6 O1A        22.4980  -37.5280   12.0790 O.co2     1 ADP403      0.0000 
      7 O2A        22.2580  -36.3790   14.2450 O.co2     1 ADP403      0.0000 
      8 O3A        20.6780  -38.2880   13.6870 O.3       1 ADP403      0.0000 
      9 O5'        20.5250  -35.9770   12.4320 O.3       1 ADP403      0.0000 
     10 C5'        20.2800  -34.5680   12.6630 C.3       1 ADP403      0.0000 
     11 C4'        19.6860  -33.8910   11.4470 C.3       1 ADP403      0.0000 
     12 O4'        20.5790  -33.9900   10.3170 O.3       1 ADP403      0.0000 
     13 C3'        18.3130  -34.3700   10.9700 C.3       1 ADP403      0.0000 
     14 O3'        17.4810  -33.2560   10.6810 O.3       1 ADP403      0.0000 
     15 C2'        18.6330  -35.1720    9.7030 C.3       1 ADP403      0.0000 
     16 O2'        17.5590  -35.1320    8.7680 O.3       1 ADP403      0.0000 
     17 C1'        19.8800  -34.4560    9.1770 C.3       1 ADP403      0.0000 
     18 N9         20.7910  -35.2910    8.3900 N.pl3     1 ADP403      0.0000 
     19 C8         21.4780  -36.3940    8.8340 C.2       1 ADP403      0.0000 
     20 N7         22.3400  -36.8730    7.9690 N.2       1 ADP403      0.0000 
     21 C5         22.2080  -36.0360    6.8730 C.ar      1 ADP403      0.0000 
     22 C6         22.8670  -35.9920    5.6280 C.ar      1 ADP403      0.0000 
     23 N6         23.8310  -36.8440    5.2690 N.pl3     1 ADP403      0.0000 
     24 N1         22.5060  -35.0190    4.7580 N.ar      1 ADP403      0.0000 
     25 C2         21.5460  -34.1560    5.1180 C.ar      1 ADP403      0.0000 
     26 N3         20.8580  -34.0950    6.2640 N.ar      1 ADP403      0.0000 
     27 C4         21.2440  -35.0640    7.1100 C.ar      1 ADP403      0.0000 
@<TRIPOS>BOND
     1    1    2 ar   
     2    1    3 ar   
     3    1    4 ar   
     4    1    8 1    
     5    5    6 ar   
     6    5    7 ar   
     7    5    8 1    
     8    5    9 1    
     9    9   10 1    
    10   10   11 1    
    11   11   12 1    
    12   11   13 1    
    13   12   17 1    
    14   13   14 1    
    15   13   15 1    
    16   15   16 1    
    17   15   17 1    
    18   17   18 1    
    19   18   19 1    
    20   18   27 1    
    21   19   20 2    
    22   20   21 1    
    23   21   22 ar   
    24   21   27 ar   
    25   22   23 1    
    26   22   24 ar   
    27   24   25 ar   
    28   25   26 ar   
    29   26   27 ar   
@<TRIPOS>SUBSTRUCTURE
     1 ADP403      1 GROUP   
@<TRIPOS>SET
ATOM$ORANGE STATIC     ATOMS   COLORGROUP SYSTEM 
20 10 10 11 11 13 13 15 15 17 17 19 19 21 21 22 22 25 \
25 27 27 

