#    Name: 6cnh_1_919
#    Modification time : Fri May 22 19:32:48 2020

@<TRIPOS>MOLECULE
6cnh_1_919
   41    45     1     0     0
SMALL
NO_CHARGES


@<TRIPOS>ATOM
      1 C1        111.9760   -8.7270    8.7090 C.ar      1 9191101     0.0000 
      2 C2        112.4080   -8.2840    7.4700 C.ar      1 9191101     0.0000 
      3 C3        113.1700   -9.0830    6.6690 C.ar      1 9191101     0.0000 
      4 C4        113.5290  -10.3890    7.0810 C.ar      1 9191101     0.0000 
      5 C5        113.0930  -10.8650    8.3380 C.ar      1 9191101     0.0000 
      6 C6        112.3070  -10.0260    9.1470 C.ar      1 9191101     0.0000 
      7 C9        114.6110  -12.3800    6.6750 C.ar      1 9191101     0.0000 
      8 N10       114.2960  -11.1650    6.2530 N.ar      1 9191101     0.0000 
      9 C13       113.4570  -12.1680    8.7420 C.ar      1 9191101     0.0000 
     10 C14       114.2160  -12.9280    7.9110 C.ar      1 9191101     0.0000 
     11 C22       103.4810   -0.1570    5.3120 C.ar      1 9191101     0.0000 
     12 N23       103.1700    0.9700    4.6510 N.ar      1 9191101     0.0000 
     13 C24       103.9770    1.3180    3.6330 C.ar      1 9191101     0.0000 
     14 C25       105.0980    0.5920    3.2630 C.ar      1 9191101     0.0000 
     15 C26       105.3790   -0.5650    3.9600 C.ar      1 9191101     0.0000 
     16 C27       104.5630   -0.9520    5.0040 C.ar      1 9191101     0.0000 
     17 C34       108.1000   -3.1340    6.2160 C.ar      1 9191101     0.0000 
     18 C35       107.5300   -2.0900    5.5160 C.ar      1 9191101     0.0000 
     19 C36       107.0220   -2.3090    4.2560 C.ar      1 9191101     0.0000 
     20 C37       107.0720   -3.5680    3.6830 C.ar      1 9191101     0.0000 
     21 C38       107.6270   -4.5900    4.4160 C.ar      1 9191101     0.0000 
     22 C39       108.1520   -4.4170    5.6790 C.ar      1 9191101     0.0000 
     23 C46       110.5460   -7.0550   11.4120 C.2       1 9191101     0.0000 
     24 C47       109.6980   -6.5110   10.4320 C.2       1 9191101     0.0000 
     25 C48       110.0920   -7.0820    9.2540 C.2       1 9191101     0.0000 
     26 N49       111.1770   -7.8960    9.5400 N.pl3     1 9191101     0.0000 
     27 N50       111.4450   -7.8770   10.8850 N.2       1 9191101     0.0000 
     28 N56       109.5770   -6.8450    7.9930 N.am      1 9191101     0.0000 
     29 C58       109.1890   -5.6020    7.5880 C.2       1 9191101     0.0000 
     30 N60       108.7070   -5.5440    6.3120 N.am      1 9191101     0.0000 
     31 O63       109.2760   -4.6360    8.3330 O.2       1 9191101     0.0000 
     32 O65       106.4800   -1.2660    3.5310 O.3       1 9191101     0.0000 
     33 F68       107.7030   -5.8310    3.9000 F         1 9191101     0.0000 
     34 C70       103.6240    2.5750    2.8600 C.2       1 9191101     0.0000 
     35 O72       104.4970    3.2160    2.2710 O.2       1 9191101     0.0000 
     36 N74       102.3250    2.8870    2.8210 N.am      1 9191101     0.0000 
     37 C76       101.7890    4.0050    2.0570 C.3       1 9191101     0.0000 
     38 C79       110.5480   -6.7690   12.8960 C.3       1 9191101     0.0000 
     39 C81       111.4000   -5.5180   13.1520 C.3       1 9191101     0.0000 
     40 C83       111.1450   -7.9680   13.6520 C.3       1 9191101     0.0000 
     41 C85       109.1130   -6.5150   13.3780 C.3       1 9191101     0.0000 
@<TRIPOS>BOND
     1    1    2 ar   
     2    1    6 ar   
     3    1   26 1    
     4    2    3 ar   
     5    3    4 ar   
     6    4    5 ar   
     7    4    8 ar   
     8    5    6 ar   
     9    5    9 ar   
    10    7    8 ar   
    11    7   10 ar   
    12    9   10 ar   
    13   11   12 ar   
    14   11   16 ar   
    15   12   13 ar   
    16   13   14 ar   
    17   13   34 1    
    18   14   15 ar   
    19   15   16 ar   
    20   15   32 1    
    21   17   18 ar   
    22   17   22 ar   
    23   18   19 ar   
    24   19   20 ar   
    25   19   32 1    
    26   20   21 ar   
    27   21   22 ar   
    28   21   33 1    
    29   22   30 1    
    30   23   24 1    
    31   23   27 2    
    32   23   38 1    
    33   24   25 2    
    34   25   26 1    
    35   25   28 1    
    36   26   27 1    
    37   28   29 am   
    38   29   30 am   
    39   29   31 2    
    40   34   35 2    
    41   34   36 am   
    42   36   37 1    
    43   38   39 1    
    44   38   40 1    
    45   38   41 1    
@<TRIPOS>SUBSTRUCTURE
     1 9191101     1 GROUP   
@<TRIPOS>SET

