#    Name: 6raz_1_ATP
#    Modification time : Fri May 22 19:30:51 2020

@<TRIPOS>MOLECULE
6raz_1_ATP
   31    33     1     0     1
SMALL
NO_CHARGES


@<TRIPOS>ATOM
      1 PG        221.2440  204.0200  241.1280 P.3       1 ATP901      0.0000 
      2 O1G       220.4730  203.4850  242.3040 O.co2     1 ATP901      0.0000 
      3 O2G       220.4850  203.9910  239.8250 O.co2     1 ATP901      0.0000 
      4 O3G       221.9640  205.3160  241.4030 O.co2     1 ATP901      0.0000 
      5 PB        222.2030  201.3920  241.2260 P.3       1 ATP901      0.0000 
      6 O1B       221.0480  200.9120  240.3950 O.co2     1 ATP901      0.0000 
      7 O2B       222.1880  201.1690  242.7160 O.co2     1 ATP901      0.0000 
      8 O3B       222.4250  202.9520  240.9030 O.3       1 ATP901      0.0000 
      9 PA        223.8590  199.1810  240.8440 P.3       1 ATP901      0.0000 
     10 O1A       223.5670  198.5180  239.5240 O.co2     1 ATP901      0.0000 
     11 O2A       223.1890  198.6800  242.1010 O.co2     1 ATP901      0.0000 
     12 O3A       223.5750  200.7520  240.6920 O.3       1 ATP901      0.0000 
     13 O5'       225.4480  199.1720  241.0840 O.3       1 ATP901      0.0000 
     14 C5'       225.9130  198.4940  242.2360 C.3       1 ATP901      0.0000 
     15 C4'       226.3120  197.0620  241.9520 C.3       1 ATP901      0.0000 
     16 O4'       227.0240  196.5410  243.0720 O.3       1 ATP901      0.0000 
     17 C3'       225.0990  196.1830  241.7510 C.3       1 ATP901      0.0000 
     18 O3'       225.1290  195.7790  240.3830 O.3       1 ATP901      0.0000 
     19 C2'       225.3070  194.9780  242.6360 C.3       1 ATP901      0.0000 
     20 O2'       225.3210  193.7780  241.8610 O.3       1 ATP901      0.0000 
     21 C1'       226.6610  195.1810  243.2880 C.3       1 ATP901      0.0000 
     22 N9        226.4950  194.9350  244.7340 N.pl3     1 ATP901      0.0000 
     23 C8        227.0030  195.7130  245.7060 C.2       1 ATP901      0.0000 
     24 N7        226.6610  195.2530  246.9300 N.2       1 ATP901      0.0000 
     25 C5        225.9200  194.1520  246.7410 C.ar      1 ATP901      0.0000 
     26 C6        225.2520  193.1830  247.6210 C.ar      1 ATP901      0.0000 
     27 N6        225.3170  193.3270  248.9620 N.pl3     1 ATP901      0.0000 
     28 N1        224.5850  192.1720  247.0400 N.ar      1 ATP901      0.0000 
     29 C2        224.5160  192.0470  245.7040 C.ar      1 ATP901      0.0000 
     30 N3        225.0970  192.8860  244.8420 N.ar      1 ATP901      0.0000 
     31 C4        225.8010  193.9470  245.2940 C.ar      1 ATP901      0.0000 
@<TRIPOS>BOND
     1    1    2 ar   
     2    1    3 ar   
     3    1    4 ar   
     4    1    8 1    
     5    5    6 ar   
     6    5    7 ar   
     7    5    8 1    
     8    5   12 1    
     9    9   10 ar   
    10    9   11 ar   
    11    9   12 1    
    12    9   13 1    
    13   13   14 1    
    14   14   15 1    
    15   15   16 1    
    16   15   17 1    
    17   16   21 1    
    18   17   18 1    
    19   17   19 1    
    20   19   20 1    
    21   19   21 1    
    22   21   22 1    
    23   22   23 1    
    24   22   31 1    
    25   23   24 2    
    26   24   25 1    
    27   25   26 ar   
    28   25   31 ar   
    29   26   27 1    
    30   26   28 ar   
    31   28   29 ar   
    32   29   30 ar   
    33   30   31 ar   
@<TRIPOS>SUBSTRUCTURE
     1 ATP901      1 GROUP   
@<TRIPOS>SET
ATOM$ORANGE STATIC     ATOMS   COLORGROUP SYSTEM 
20 14 14 15 15 17 17 19 19 21 21 23 23 25 25 26 26 29 \
29 31 31 

