#    Name: 5wks_1_NAR
#    Modification time : Fri May 22 19:14:05 2020

@<TRIPOS>MOLECULE
5wks_1_NAR
   32    34     1     0     0
SMALL
NO_CHARGES


@<TRIPOS>ATOM
      1 C1          5.8190  -27.9320   21.8690 C.ar      1 NAR301      0.0000 
      2 C2          6.6500  -28.7160   22.6770 C.ar      1 NAR301      0.0000 
      3 C3          7.4630  -29.7200   22.1330 C.ar      1 NAR301      0.0000 
      4 C4          7.4490  -29.9430   20.7680 C.ar      1 NAR301      0.0000 
      5 C5          6.6290  -29.1760   19.9550 C.ar      1 NAR301      0.0000 
      6 C6          5.8010  -28.1650   20.4890 C.ar      1 NAR301      0.0000 
      7 C7          6.6390  -29.4430   18.4800 C.2       1 NAR301      0.0000 
      8 C8          5.7820  -28.6710   17.6390 C.3       1 NAR301      0.0000 
      9 C9          5.5080  -27.2970   18.2150 C.3       1 NAR301      0.0000 
     10 O1          4.9660  -27.3890   19.5300 O.3       1 NAR301      0.0000 
     11 O2          7.3670  -30.2980   18.0170 O.2       1 NAR301      0.0000 
     12 C10         4.6030  -26.5310   17.2430 C.ar      1 NAR301      0.0000 
     13 C11         4.0060  -25.3450   17.6330 C.ar      1 NAR301      0.0000 
     14 C12         3.1980  -24.6580   16.7390 C.ar      1 NAR301      0.0000 
     15 C13         2.9960  -25.1430   15.4620 C.ar      1 NAR301      0.0000 
     16 C14         3.5920  -26.3190   15.0610 C.ar      1 NAR301      0.0000 
     17 C15         4.3960  -27.0030   15.9490 C.ar      1 NAR301      0.0000 
     18 O3          2.1820  -24.4430   14.5690 O.3       1 NAR301      0.0000 
     19 O4          6.6920  -28.5230   24.0540 O.3       1 NAR301      0.0000 
     20 O5          8.2530  -30.9420   20.2010 O.co2     1 NAR301      0.0000 
     21 H11         5.2570  -27.2370   22.2620 H         1 NAR301      0.0000 
     22 H31         8.0360  -30.2560   22.7130 H         1 NAR301      0.0000 
     23 H81         4.9440  -29.0650   17.3220 H         1 NAR301      0.0000 
     24 H82         6.2660  -28.5960   16.7890 H         1 NAR301      0.0000 
     25 H9          6.3590  -26.8210   18.2740 H         1 NAR301      0.0000 
     26 H111        4.1460  -24.9980   18.5360 H         1 NAR301      0.0000 
     27 H121        2.7710  -23.8240   17.0140 H         1 NAR301      0.0000 
     28 H141        3.4500  -26.6620   14.1590 H         1 NAR301      0.0000 
     29 H151        4.8200  -27.8370   15.6690 H         1 NAR301      0.0000 
     30 HO3         2.6850  -23.9140   14.0630 H         1 NAR301      0.0000 
     31 H41         6.6410  -27.6520   24.2330 H         1 NAR301      0.0000 
     32 H51         8.7180  -31.3470   20.8410 H         1 NAR301      0.0000 
@<TRIPOS>BOND
     1    1    2 ar   
     2    1    6 ar   
     3    1   21 1    
     4    2    3 ar   
     5    2   19 1    
     6   19   31 1    
     7    3    4 ar   
     8    3   22 1    
     9    4    5 ar   
    10    4   20 ar   
    11   20   32 1    
    12    5    6 ar   
    13    5    7 1    
    14    6   10 1    
    15    7    8 1    
    16    7   11 2    
    17    8    9 1    
    18    8   23 1    
    19    8   24 1    
    20    9   10 1    
    21    9   12 1    
    22    9   25 1    
    23   12   13 ar   
    24   12   17 ar   
    25   13   14 ar   
    26   13   26 1    
    27   14   15 ar   
    28   14   27 1    
    29   15   16 ar   
    30   15   18 1    
    31   18   30 1    
    32   16   17 ar   
    33   16   28 1    
    34   17   29 1    
@<TRIPOS>SUBSTRUCTURE
     1 NAR301      1 GROUP   
@<TRIPOS>SET

