#    Name: 6uge_3_ATP
#    Modification time : Fri May 22 19:31:52 2020

@<TRIPOS>MOLECULE
6uge_3_ATP
   31    33     1     0     1
SMALL
NO_CHARGES


@<TRIPOS>ATOM
      1 PG        105.8950  103.0570  116.1590 P.3       1 ATP501      0.0000 
      2 O1G       104.7050  103.2780  117.0380 O.co2     1 ATP501      0.0000 
      3 O2G       107.1410  102.6110  116.8670 O.co2     1 ATP501      0.0000 
      4 O3G       106.0980  104.1150  115.1130 O.co2     1 ATP501      0.0000 
      5 PB        104.3950  101.8090  114.2030 P.3       1 ATP501      0.0000 
      6 O1B       103.1070  102.2450  114.8300 O.co2     1 ATP501      0.0000 
      7 O2B       104.9610  102.5320  113.0180 O.co2     1 ATP501      0.0000 
      8 O3B       105.5070  101.7470  115.3410 O.3       1 ATP501      0.0000 
      9 PA        103.6850  100.0540  112.3190 P.3       1 ATP501      0.0000 
     10 O1A       102.5810  101.0520  112.2200 O.co2     1 ATP501      0.0000 
     11 O2A       104.8530  100.0990  111.3800 O.co2     1 ATP501      0.0000 
     12 O3A       104.2400  100.2780  113.7860 O.3       1 ATP501      0.0000 
     13 O5'       103.0700   98.5810  112.3200 O.3       1 ATP501      0.0000 
     14 C5'       103.9320   97.4910  112.5860 C.3       1 ATP501      0.0000 
     15 C4'       103.2340   96.1930  112.2380 C.3       1 ATP501      0.0000 
     16 O4'       101.9030   96.2070  112.7240 O.3       1 ATP501      0.0000 
     17 C3'       103.1520   96.0320  110.7450 C.3       1 ATP501      0.0000 
     18 O3'       103.9780   94.9420  110.3560 O.3       1 ATP501      0.0000 
     19 C2'       101.7280   95.6610  110.4540 C.3       1 ATP501      0.0000 
     20 O2'       101.7220   94.3630  109.8740 O.3       1 ATP501      0.0000 
     21 C1'       101.0290   95.5960  111.7870 C.3       1 ATP501      0.0000 
     22 N9         99.7700   96.3660  111.7650 N.pl3     1 ATP501      0.0000 
     23 C8         99.5090   97.4000  112.5690 C.2       1 ATP501      0.0000 
     24 N7         98.2800   97.9130  112.3450 N.2       1 ATP501      0.0000 
     25 C5         97.7330   97.1890  111.3760 C.ar      1 ATP501      0.0000 
     26 C6         96.4510   97.2070  110.6750 C.ar      1 ATP501      0.0000 
     27 N6         95.5070   98.1210  110.9770 N.pl3     1 ATP501      0.0000 
     28 N1         96.2560   96.2850  109.7230 N.ar      1 ATP501      0.0000 
     29 C2         97.1940   95.3760  109.4200 C.ar      1 ATP501      0.0000 
     30 N3         98.3850   95.3010  110.0230 N.ar      1 ATP501      0.0000 
     31 C4         98.7070   96.1670  110.9980 C.ar      1 ATP501      0.0000 
@<TRIPOS>BOND
     1    1    2 ar   
     2    1    3 ar   
     3    1    4 ar   
     4    1    8 1    
     5    5    6 ar   
     6    5    7 ar   
     7    5    8 1    
     8    5   12 1    
     9    9   10 ar   
    10    9   11 ar   
    11    9   12 1    
    12    9   13 1    
    13   13   14 1    
    14   14   15 1    
    15   15   16 1    
    16   15   17 1    
    17   16   21 1    
    18   17   18 1    
    19   17   19 1    
    20   19   20 1    
    21   19   21 1    
    22   21   22 1    
    23   22   23 1    
    24   22   31 1    
    25   23   24 2    
    26   24   25 1    
    27   25   26 ar   
    28   25   31 ar   
    29   26   27 1    
    30   26   28 ar   
    31   28   29 ar   
    32   29   30 ar   
    33   30   31 ar   
@<TRIPOS>SUBSTRUCTURE
     1 ATP501      1 GROUP   
@<TRIPOS>SET
ATOM$ORANGE STATIC     ATOMS   COLORGROUP SYSTEM 
20 14 14 15 15 17 17 19 19 21 21 23 23 25 25 26 26 29 \
29 31 31 

