#    Name: 6uge_2_ATP
#    Modification time : Fri May 22 19:31:45 2020

@<TRIPOS>MOLECULE
6uge_2_ATP
   31    33     1     0     1
SMALL
NO_CHARGES


@<TRIPOS>ATOM
      1 PG        102.3010  132.8400  113.8850 P.3       1 ATP501      0.0000 
      2 O1G       102.1460  131.3800  113.5660 O.co2     1 ATP501      0.0000 
      3 O2G       103.7070  133.3690  113.8020 O.co2     1 ATP501      0.0000 
      4 O3G       101.5220  133.2730  115.0940 O.co2     1 ATP501      0.0000 
      5 PB         99.9730  133.7070  112.8150 P.3       1 ATP501      0.0000 
      6 O1B        99.4690  132.3780  113.2830 O.co2     1 ATP501      0.0000 
      7 O2B        99.6750  134.9400  113.6090 O.co2     1 ATP501      0.0000 
      8 O3B       101.5530  133.5840  112.6860 O.3       1 ATP501      0.0000 
      9 PA         97.8950  134.1470  111.1450 P.3       1 ATP501      0.0000 
     10 O1A        97.2380  133.9720  112.4800 O.co2     1 ATP501      0.0000 
     11 O2A        97.6880  135.4010  110.3600 O.co2     1 ATP501      0.0000 
     12 O3A        99.4630  133.9180  111.3180 O.3       1 ATP501      0.0000 
     13 O5'        97.3500  132.9620  110.2340 O.3       1 ATP501      0.0000 
     14 C5'        96.7090  133.3290  109.0290 C.3       1 ATP501      0.0000 
     15 C4'        95.2950  132.7810  109.0490 C.3       1 ATP501      0.0000 
     16 O4'        94.5570  133.2900  110.1580 O.3       1 ATP501      0.0000 
     17 C3'        94.5650  133.2140  107.8050 C.3       1 ATP501      0.0000 
     18 O3'        94.3690  132.0920  106.9520 O.3       1 ATP501      0.0000 
     19 C2'        93.2270  133.7110  108.2770 C.3       1 ATP501      0.0000 
     20 O2'        92.2160  132.8400  107.7820 O.3       1 ATP501      0.0000 
     21 C1'        93.2190  133.6360  109.7890 C.3       1 ATP501      0.0000 
     22 N9         92.8700  134.9180  110.4740 N.pl3     1 ATP501      0.0000 
     23 C8         93.3290  135.1980  111.7010 C.2       1 ATP501      0.0000 
     24 N7         92.9030  136.3930  112.1560 N.2       1 ATP501      0.0000 
     25 C5         92.1330  136.9100  111.2080 C.ar      1 ATP501      0.0000 
     26 C6         91.3790  138.1560  111.0760 C.ar      1 ATP501      0.0000 
     27 N6         91.3810  139.0670  112.0690 N.pl3     1 ATP501      0.0000 
     28 N1         90.6900  138.3560  109.9460 N.ar      1 ATP501      0.0000 
     29 C2         90.6870  137.4510  108.9630 C.ar      1 ATP501      0.0000 
     30 N3         91.3550  136.2980  109.0270 N.ar      1 ATP501      0.0000 
     31 C4         92.0930  135.9510  110.1030 C.ar      1 ATP501      0.0000 
@<TRIPOS>BOND
     1    1    2 ar   
     2    1    3 ar   
     3    1    4 ar   
     4    1    8 1    
     5    5    6 ar   
     6    5    7 ar   
     7    5    8 1    
     8    5   12 1    
     9    9   10 ar   
    10    9   11 ar   
    11    9   12 1    
    12    9   13 1    
    13   13   14 1    
    14   14   15 1    
    15   15   16 1    
    16   15   17 1    
    17   16   21 1    
    18   17   18 1    
    19   17   19 1    
    20   19   20 1    
    21   19   21 1    
    22   21   22 1    
    23   22   23 1    
    24   22   31 1    
    25   23   24 2    
    26   24   25 1    
    27   25   26 ar   
    28   25   31 ar   
    29   26   27 1    
    30   26   28 ar   
    31   28   29 ar   
    32   29   30 ar   
    33   30   31 ar   
@<TRIPOS>SUBSTRUCTURE
     1 ATP501      1 GROUP   
@<TRIPOS>SET
ATOM$ORANGE STATIC     ATOMS   COLORGROUP SYSTEM 
20 14 14 15 15 17 17 19 19 21 21 23 23 25 25 26 26 29 \
29 31 31 

