#    Name: 6uge_4_ATP
#    Modification time : Fri May 22 19:31:59 2020

@<TRIPOS>MOLECULE
6uge_4_ATP
   31    33     1     0     1
SMALL
NO_CHARGES


@<TRIPOS>ATOM
      1 PG        126.3570   91.1380  134.0720 P.3       1 ATP501      0.0000 
      2 O1G       126.0500   91.4040  132.6270 O.co2     1 ATP501      0.0000 
      3 O2G       125.2450   91.5330  134.9960 O.co2     1 ATP501      0.0000 
      4 O3G       127.7180   91.5810  134.5250 O.co2     1 ATP501      0.0000 
      5 PB        127.1710   88.7210  133.0580 P.3       1 ATP501      0.0000 
      6 O1B       126.1060   88.1490  132.1730 O.co2     1 ATP501      0.0000 
      7 O2B       128.2350   89.5950  132.4650 O.co2     1 ATP501      0.0000 
      8 O3B       126.4170   89.5430  134.2040 O.3       1 ATP501      0.0000 
      9 PA        128.9300   86.6460  132.9050 P.3       1 ATP501      0.0000 
     10 O1A       128.1190   86.1210  131.7600 O.co2     1 ATP501      0.0000 
     11 O2A       130.1610   87.4580  132.6180 O.co2     1 ATP501      0.0000 
     12 O3A       127.9080   87.5020  133.7920 O.3       1 ATP501      0.0000 
     13 O5'       129.3790   85.3920  133.7940 O.3       1 ATP501      0.0000 
     14 C5'       130.6230   85.4420  134.4700 C.3       1 ATP501      0.0000 
     15 C4'       131.0500   84.0380  134.8330 C.3       1 ATP501      0.0000 
     16 O4'       129.9050   83.2920  135.2070 O.3       1 ATP501      0.0000 
     17 C3'       131.6580   83.3390  133.6410 C.3       1 ATP501      0.0000 
     18 O3'       133.0490   83.1430  133.8690 O.3       1 ATP501      0.0000 
     19 C2'       130.9830   81.9980  133.5680 C.3       1 ATP501      0.0000 
     20 O2'       131.9570   80.9690  133.7330 O.3       1 ATP501      0.0000 
     21 C1'       130.0110   81.9620  134.7210 C.3       1 ATP501      0.0000 
     22 N9        128.6750   81.5350  134.2680 N.pl3     1 ATP501      0.0000 
     23 C8        127.5650   82.2650  134.4040 C.2       1 ATP501      0.0000 
     24 N7        126.4830   81.6200  133.9190 N.2       1 ATP501      0.0000 
     25 C5        126.9090   80.4440  133.4640 C.ar      1 ATP501      0.0000 
     26 C6        126.2710   79.2920  132.8310 C.ar      1 ATP501      0.0000 
     27 N6        124.9440   79.2890  132.5910 N.pl3     1 ATP501      0.0000 
     28 N1        127.0500   78.2520  132.5030 N.ar      1 ATP501      0.0000 
     29 C2        128.3680   78.2630  132.7480 C.ar      1 ATP501      0.0000 
     30 N3        129.0110   79.2820  133.3240 N.ar      1 ATP501      0.0000 
     31 C4        128.3470   80.3840  133.7010 C.ar      1 ATP501      0.0000 
@<TRIPOS>BOND
     1    1    2 ar   
     2    1    3 ar   
     3    1    4 ar   
     4    1    8 1    
     5    5    6 ar   
     6    5    7 ar   
     7    5    8 1    
     8    5   12 1    
     9    9   10 ar   
    10    9   11 ar   
    11    9   12 1    
    12    9   13 1    
    13   13   14 1    
    14   14   15 1    
    15   15   16 1    
    16   15   17 1    
    17   16   21 1    
    18   17   18 1    
    19   17   19 1    
    20   19   20 1    
    21   19   21 1    
    22   21   22 1    
    23   22   23 1    
    24   22   31 1    
    25   23   24 2    
    26   24   25 1    
    27   25   26 ar   
    28   25   31 ar   
    29   26   27 1    
    30   26   28 ar   
    31   28   29 ar   
    32   29   30 ar   
    33   30   31 ar   
@<TRIPOS>SUBSTRUCTURE
     1 ATP501      1 GROUP   
@<TRIPOS>SET
ATOM$ORANGE STATIC     ATOMS   COLORGROUP SYSTEM 
20 14 14 15 15 17 17 19 19 21 21 23 23 25 25 26 26 29 \
29 31 31 

