#    Name: 6uge_5_ATP
#    Modification time : Fri May 22 19:32:04 2020

@<TRIPOS>MOLECULE
6uge_5_ATP
   31    33     1     0     1
SMALL
NO_CHARGES


@<TRIPOS>ATOM
      1 PG        140.2340  107.4560  155.5200 P.3       1 ATP501      0.0000 
      2 O1G       140.1570  105.9540  155.4570 O.co2     1 ATP501      0.0000 
      3 O2G       139.1250  108.1000  156.3130 O.co2     1 ATP501      0.0000 
      4 O3G       140.5290  108.1270  154.2040 O.co2     1 ATP501      0.0000 
      5 PB        142.9070  106.9480  156.0730 P.3       1 ATP501      0.0000 
      6 O1B       142.8200  105.5790  156.6930 O.co2     1 ATP501      0.0000 
      7 O2B       143.1910  107.1020  154.6010 O.co2     1 ATP501      0.0000 
      8 O3B       141.5460  107.7320  156.4010 O.3       1 ATP501      0.0000 
      9 PA        145.5600  107.4400  156.6510 P.3       1 ATP501      0.0000 
     10 O1A       145.6280  106.1790  155.8330 O.co2     1 ATP501      0.0000 
     11 O2A       146.2490  108.6850  156.1530 O.co2     1 ATP501      0.0000 
     12 O3A       144.0100  107.7690  156.9000 O.3       1 ATP501      0.0000 
     13 O5'       146.1400  107.1210  158.1150 O.3       1 ATP501      0.0000 
     14 C5'       146.4130  108.1850  159.0230 C.3       1 ATP501      0.0000 
     15 C4'       147.7200  107.8990  159.7490 C.3       1 ATP501      0.0000 
     16 O4'       147.5210  106.9570  160.8040 O.3       1 ATP501      0.0000 
     17 C3'       148.7370  107.3080  158.7900 C.3       1 ATP501      0.0000 
     18 O3'       149.8070  108.2250  158.5570 O.3       1 ATP501      0.0000 
     19 C2'       149.2680  106.0710  159.4740 C.3       1 ATP501      0.0000 
     20 O2'       150.6740  106.2080  159.6810 O.3       1 ATP501      0.0000 
     21 C1'       148.5450  105.9650  160.8040 C.3       1 ATP501      0.0000 
     22 N9        147.8760  104.6560  160.8580 N.pl3     1 ATP501      0.0000 
     23 C8        146.5490  104.5030  160.8950 C.2       1 ATP501      0.0000 
     24 N7        146.2160  103.1950  160.9350 N.2       1 ATP501      0.0000 
     25 C5        147.3500  102.4850  160.9190 C.ar      1 ATP501      0.0000 
     26 C6        147.6970  101.0520  160.9440 C.ar      1 ATP501      0.0000 
     27 N6        146.7360  100.1000  160.9920 N.pl3     1 ATP501      0.0000 
     28 N1        149.0020  100.7270  160.9180 N.ar      1 ATP501      0.0000 
     29 C2        149.9570  101.6690  160.8720 C.ar      1 ATP501      0.0000 
     30 N3        149.7100  102.9880  160.8480 N.ar      1 ATP501      0.0000 
     31 C4        148.4460  103.4540  160.8720 C.ar      1 ATP501      0.0000 
@<TRIPOS>BOND
     1    1    2 ar   
     2    1    3 ar   
     3    1    4 ar   
     4    1    8 1    
     5    5    6 ar   
     6    5    7 ar   
     7    5    8 1    
     8    5   12 1    
     9    9   10 ar   
    10    9   11 ar   
    11    9   12 1    
    12    9   13 1    
    13   13   14 1    
    14   14   15 1    
    15   15   16 1    
    16   15   17 1    
    17   16   21 1    
    18   17   18 1    
    19   17   19 1    
    20   19   20 1    
    21   19   21 1    
    22   21   22 1    
    23   22   23 1    
    24   22   31 1    
    25   23   24 2    
    26   24   25 1    
    27   25   26 ar   
    28   25   31 ar   
    29   26   27 1    
    30   26   28 ar   
    31   28   29 ar   
    32   29   30 ar   
    33   30   31 ar   
@<TRIPOS>SUBSTRUCTURE
     1 ATP501      1 GROUP   
@<TRIPOS>SET
ATOM$ORANGE STATIC     ATOMS   COLORGROUP SYSTEM 
20 14 14 15 15 17 17 19 19 21 21 23 23 25 25 26 26 29 \
29 31 31 

