#    Name: 6mn8_1_HFG
#    Modification time : Fri May 22 19:23:58 2020

@<TRIPOS>MOLECULE
6mn8_1_HFG
   24    26     1     0     0
SMALL
NO_CHARGES


@<TRIPOS>ATOM
      1 O4'       -35.3680  -35.3150   12.4320 O.2       1 HFG603      0.0000 
      2 C21       -35.3670  -34.5920   11.4560 C.2       1 HFG603      0.0000 
      3 C3'       -36.3640  -34.7600   10.3330 C.3       1 HFG603      0.0000 
      4 C2'       -37.7140  -35.3610   10.7470 C.3       1 HFG603      0.0000 
      5 N1'       -37.5850  -36.7440   11.2300 N.4       1 HFG603      0.0000 
      6 C6'       -38.8840  -37.3850   11.4670 C.3       1 HFG603      0.0000 
      7 C5'       -39.7430  -36.6150   12.4690 C.3       1 HFG603      0.0000 
      8 C4'       -39.8100  -35.1350   12.0980 C.3       1 HFG603      0.0000 
      9 C39       -38.4200  -34.5760   11.8460 C.3       1 HFG603      0.0000 
     10 O7'       -38.5050  -33.1850   11.5240 O.3       1 HFG603      0.0000 
     11 C1'       -34.3230  -33.4700   11.2910 C.3       1 HFG603      0.0000 
     12 N3        -33.1330  -33.7020   12.1060 N.am      1 HFG603      0.0000 
     13 C4        -32.2400  -34.6880   11.6960 C.2       1 HFG603      0.0000 
     14 O11       -32.4220  -35.3320   10.6780 O.2       1 HFG603      0.0000 
     15 C10       -31.1140  -34.8860   12.6030 C.ar      1 HFG603      0.0000 
     16 C5        -30.1470  -35.8430   12.3090 C.ar      1 HFG603      0.0000 
     17 C2        -32.9430  -33.0000   13.2630 C.2       1 HFG603      0.0000 
     18 N1        -31.9780  -33.1560   14.0970 N.2       1 HFG603      0.0000 
     19 C9        -31.0290  -34.1250   13.7720 C.ar      1 HFG603      0.0000 
     20 C8        -29.9870  -34.3580   14.6640 C.ar      1 HFG603      0.0000 
     21 C7        -29.0560  -35.3470   14.3810 C.ar      1 HFG603      0.0000 
     22 BR1       -27.7920  -35.7880   15.7270 Br        1 HFG603      0.0000 
     23 C6        -29.1150  -36.0570   13.1960 C.ar      1 HFG603      0.0000 
     24 CL1       -27.8700  -37.1900   12.7530 Cl        1 HFG603      0.0000 
@<TRIPOS>BOND
     1    1    2 2    
     2    2    3 1    
     3    2   11 1    
     4    3    4 1    
     5    4    5 1    
     6    4    9 1    
     7    5    6 1    
     8    6    7 1    
     9    7    8 1    
    10    8    9 1    
    11    9   10 1    
    12   11   12 1    
    13   12   17 1    
    14   12   13 am   
    15   13   15 1    
    16   13   14 2    
    17   15   16 ar   
    18   15   19 ar   
    19   16   23 ar   
    20   17   18 2    
    21   18   19 1    
    22   19   20 ar   
    23   20   21 ar   
    24   21   22 1    
    25   21   23 ar   
    26   23   24 1    
@<TRIPOS>SUBSTRUCTURE
     1 HFG603      1 GROUP   
@<TRIPOS>SET

