#    Name: 6mn8_1_HFG_CAVITY_N1_4
#    Modification time : Fri May 22 19:23:59 2020

@<TRIPOS>MOLECULE
6mn8_1_HFG_CAVITY_N1_4
   84     0     7     0     0
SMALL
NO_CHARGES


@<TRIPOS>ATOM
      1 OG        -36.4700  -33.7100    6.8900 O.3       1 SER1        0.0000 
      2 OG        -39.4900  -36.5300   11.7300 O.3       1 SER1        0.0000 
      3 OG        -38.3800  -36.0500   10.8400 O.3       1 SER1        0.0000 
      4 OG        -36.7900  -33.7500    8.9800 O.3       1 SER1        0.0000 
      5 OG        -35.6800  -33.2800    8.0900 O.3       1 SER1        0.0000 
      6 OG        -37.5900  -35.6200   12.0400 O.3       1 SER1        0.0000 
      7 OG        -36.0100  -33.3200   10.1800 O.3       1 SER1        0.0000 
      8 OG        -34.9000  -32.8500    9.2900 O.3       1 SER1        0.0000 
      9 O         -40.1200  -35.1700   11.6600 O.2       2 ALA2        0.0000 
     10 O         -32.0400  -33.2700    7.5800 O.2       2 ALA2        0.0000 
     11 N         -31.4100  -34.6200    7.6500 N.am      2 ALA2        0.0000 
     12 N         -29.9900  -35.5500    8.9300 N.am      2 ALA2        0.0000 
     13 N         -25.4100  -38.2900   10.6600 N.am      2 ALA2        0.0000 
     14 N         -27.3300  -35.6600   14.7100 N.am      2 ALA2        0.0000 
     15 OD1       -33.0200  -33.3900   13.8700 O.co2     3 ASP3        0.0000 
     16 OD1       -32.3800  -34.7500   13.9400 O.co2     3 ASP3        0.0000 
     17 OD1       -31.6000  -34.3200   15.1400 O.co2     3 ASP3        0.0000 
     18 NZ        -36.9400  -35.5400    7.8500 N.4       4 LYS4        0.0000 
     19 NZ        -37.2700  -35.5800    9.9500 N.4       4 LYS4        0.0000 
     20 NZ        -36.1600  -35.1100    9.0500 N.4       4 LYS4        0.0000 
     21 NZ        -35.0500  -34.6400    8.1600 N.4       4 LYS4        0.0000 
     22 NZ        -34.4100  -36.0000    8.2300 N.4       4 LYS4        0.0000 
     23 NZ        -38.2300  -34.2700   11.9700 N.4       4 LYS4        0.0000 
     24 NZ        -37.1200  -33.8000   11.0800 N.4       4 LYS4        0.0000 
     25 NZ        -36.4800  -35.1500   11.1500 N.4       4 LYS4        0.0000 
     26 NZ        -35.3700  -34.6800   10.2600 N.4       4 LYS4        0.0000 
     27 NZ        -34.7400  -36.0400   10.3300 N.4       4 LYS4        0.0000 
     28 NZ        -35.7000  -34.7200   12.3500 N.4       4 LYS4        0.0000 
     29 NZ        -35.2200  -32.8900   11.3900 N.4       4 LYS4        0.0000 
     30 NZ        -34.5900  -34.2500   11.4600 N.4       4 LYS4        0.0000 
     31 NZ        -33.8000  -33.8200   12.6600 N.4       4 LYS4        0.0000 
     32 NZ        -29.7100  -33.4100   15.4500 N.4       4 LYS4        0.0000 
     33 NZ        -29.0700  -34.7700   15.5300 N.4       4 LYS4        0.0000 
     34 CZ        -39.0100  -34.7000   10.7700 C.ar      5 PHE5        0.0000 
     35 CZ        -33.3000  -35.5300    7.3400 C.ar      5 PHE5        0.0000 
     36 CZ        -33.7900  -32.3800    8.4000 C.ar      5 PHE5        0.0000 
     37 CZ        -33.0000  -31.9500    9.6000 C.ar      5 PHE5        0.0000 
     38 CZ        -32.3700  -33.3100    9.6800 C.ar      5 PHE5        0.0000 
     39 CZ        -31.7300  -34.6600    9.7500 C.ar      5 PHE5        0.0000 
     40 CZ        -30.6200  -34.1900    8.8600 C.ar      5 PHE5        0.0000 
     41 CZ        -33.3300  -31.9900   11.7000 C.ar      5 PHE5        0.0000 
     42 CZ        -32.6900  -33.3500   11.7700 C.ar      5 PHE5        0.0000 
     43 CZ        -32.0600  -34.7100   11.8400 C.ar      5 PHE5        0.0000 
     44 CZ        -30.3200  -35.5900   11.0200 C.ar      5 PHE5        0.0000 
     45 CZ        -28.5700  -36.4800   10.2000 C.ar      5 PHE5        0.0000 
     46 CZ        -27.4600  -36.0100    9.3100 C.ar      5 PHE5        0.0000 
     47 CZ        -31.9100  -32.9200   12.9800 C.ar      5 PHE5        0.0000 
     48 CZ        -31.2700  -34.2700   13.0500 C.ar      5 PHE5        0.0000 
     49 CZ        -29.5300  -35.1600   12.2300 C.ar      5 PHE5        0.0000 
     50 CZ        -28.9000  -36.5200   12.3000 C.ar      5 PHE5        0.0000 
     51 CZ        -27.7900  -36.0500   11.4100 C.ar      5 PHE5        0.0000 
     52 CZ        -30.4900  -33.8400   14.2500 C.ar      5 PHE5        0.0000 
     53 CZ        -28.7500  -34.7300   13.4300 C.ar      5 PHE5        0.0000 
     54 CA        -35.8300  -35.0700    6.9600 C.3       6 GLY6        0.0000 
     55 CA        -33.9500  -35.6100   11.5300 C.3       6 GLY6        0.0000 
     56 CA        -32.8400  -35.1400   10.6400 C.3       6 GLY6        0.0000 
     57 CA        -33.1700  -35.1800   12.7400 C.3       6 GLY6        0.0000 
     58 CA        -31.4200  -36.0600   11.9200 C.3       6 GLY6        0.0000 
     59 CA        -27.9400  -37.8300   10.2700 C.3       6 GLY6        0.0000 
     60 CA        -26.8300  -37.3600    9.3800 C.3       6 GLY6        0.0000 
     61 CA        -31.7500  -36.1000   14.0100 C.3       6 GLY6        0.0000 
     62 CA        -30.6400  -35.6300   13.1200 C.3       6 GLY6        0.0000 
     63 CA        -28.2600  -37.8700   12.3700 C.3       6 GLY6        0.0000 
     64 CA        -27.1500  -37.4000   11.4800 C.3       6 GLY6        0.0000 
     65 CA        -26.6800  -35.5700   10.5100 C.3       6 GLY6        0.0000 
     66 CA        -26.0400  -36.9300   10.5900 C.3       6 GLY6        0.0000 
     67 CA        -30.9700  -35.6700   15.2100 C.3       6 GLY6        0.0000 
     68 CA        -29.8600  -35.2000   14.3200 C.3       6 GLY6        0.0000 
     69 CA        -29.2200  -36.5600   14.3900 C.3       6 GLY6        0.0000 
     70 CA        -28.1100  -36.0900   13.5000 C.3       6 GLY6        0.0000 
     71 CA        -27.4800  -37.4400   13.5700 C.3       6 GLY6        0.0000 
     72 CA        -26.3700  -36.9700   12.6800 C.3       6 GLY6        0.0000 
     73 CA        -25.7300  -38.3300   12.7500 C.3       6 GLY6        0.0000 
     74 CA        -25.2600  -36.5000   11.7900 C.3       6 GLY6        0.0000 
     75 CA        -24.6200  -37.8600   11.8600 C.3       6 GLY6        0.0000 
     76 CA        -30.1800  -35.2400   16.4200 C.3       6 GLY6        0.0000 
     77 CA        -28.4400  -36.1300   15.6000 C.3       6 GLY6        0.0000 
     78 CA        -27.9600  -34.3000   14.6300 C.3       6 GLY6        0.0000 
     79 DU        -33.9400  -34.1700    7.2700 H         7 CUB7        0.0000 
     80 DU        -34.2600  -34.2100    9.3600 H         7 CUB7        0.0000 
     81 DU        -33.1500  -33.7400    8.4700 H         7 CUB7        0.0000 
     82 DU        -34.1100  -32.4200   10.5000 H         7 CUB7        0.0000 
     83 DU        -33.4800  -33.7800   10.5700 H         7 CUB7        0.0000 
     84 DU        -29.6800  -36.9500   11.1000 H         7 CUB7        0.0000 
@<TRIPOS>BOND
@<TRIPOS>SUBSTRUCTURE
     1 SER1        1 GROUP   
     2 ALA2        9 GROUP   
     3 ASP3       15 GROUP   
     4 LYS4       18 GROUP   
     5 PHE5       34 GROUP   
     6 GLY6       54 GROUP   
     7 CUB7       79 GROUP   
@<TRIPOS>SET

