#    Name: 6vg0_1_NDP
#    Modification time : Fri May 22 19:25:04 2020

@<TRIPOS>MOLECULE
6vg0_1_NDP
   48    52     1     0     1
SMALL
NO_CHARGES


@<TRIPOS>ATOM
      1 PA         39.2320   -7.4130  -17.1070 P.3       1 NDP501      0.0000 
      2 O1A        39.3370   -8.0700  -18.4260 O.co2     1 NDP501      0.0000 
      3 O2A        38.9820   -5.9090  -17.1410 O.co2     1 NDP501      0.0000 
      4 O5B        40.5720   -7.6240  -16.2370 O.3       1 NDP501      0.0000 
      5 C5B        40.6900   -8.6880  -15.2700 C.3       1 NDP501      0.0000 
      6 C4B        42.1500   -8.8520  -14.9390 C.3       1 NDP501      0.0000 
      7 O4B        42.8580   -9.3250  -16.1070 O.3       1 NDP501      0.0000 
      8 C3B        42.8590   -7.5650  -14.5260 C.3       1 NDP501      0.0000 
      9 O3B        42.7350   -7.3350  -13.1280 O.3       1 NDP501      0.0000 
     10 C2B        44.2960   -7.8850  -14.9230 C.3       1 NDP501      0.0000 
     11 O2B        44.8660   -8.7810  -13.9440 O.3       1 NDP501      0.0000 
     12 C1B        44.1060   -8.6650  -16.2210 C.3       1 NDP501      0.0000 
     13 N9A        44.0660   -7.8170  -17.4100 N.pl3     1 NDP501      0.0000 
     14 C8A        43.0190   -7.6670  -18.2800 C.2       1 NDP501      0.0000 
     15 N7A        43.2620   -6.8360  -19.2670 N.2       1 NDP501      0.0000 
     16 C5A        44.5550   -6.4120  -19.0290 C.ar      1 NDP501      0.0000 
     17 C6A        45.4070   -5.5180  -19.7130 C.ar      1 NDP501      0.0000 
     18 N6A        45.0570   -4.8650  -20.8260 N.pl3     1 NDP501      0.0000 
     19 N1A        46.6430   -5.3160  -19.2100 N.ar      1 NDP501      0.0000 
     20 C2A        46.9990   -5.9650  -18.0970 C.ar      1 NDP501      0.0000 
     21 N3A        46.2860   -6.8270  -17.3670 N.ar      1 NDP501      0.0000 
     22 C4A        45.0710   -7.0070  -17.8870 C.ar      1 NDP501      0.0000 
     23 O3         38.0730   -8.0610  -16.2280 O.3       1 NDP501      0.0000 
     24 PN         37.1610   -7.5230  -15.0390 P.3       1 NDP501      0.0000 
     25 O1N        36.4810   -8.6320  -14.3380 O.co2     1 NDP501      0.0000 
     26 O2N        38.0480   -6.6590  -14.1460 O.co2     1 NDP501      0.0000 
     27 O5D        36.1120   -6.5250  -15.7460 O.3       1 NDP501      0.0000 
     28 C5D        36.1960   -5.0890  -15.6400 C.3       1 NDP501      0.0000 
     29 C4D        35.0400   -4.4530  -16.3730 C.3       1 NDP501      0.0000 
     30 O4D        35.1730   -4.6780  -17.7950 O.3       1 NDP501      0.0000 
     31 C3D        33.6470   -4.9550  -15.9760 C.3       1 NDP501      0.0000 
     32 O3D        32.7650   -3.8630  -15.7440 O.3       1 NDP501      0.0000 
     33 C2D        33.2130   -5.7920  -17.1850 C.3       1 NDP501      0.0000 
     34 O2D        31.8020   -5.7560  -17.3690 O.3       1 NDP501      0.0000 
     35 C1D        33.9180   -5.0560  -18.3190 C.3       1 NDP501      0.0000 
     36 N1N        34.1370   -5.8580  -19.5190 N.pl3     1 NDP501      0.0000 
     37 C2N        34.0810   -5.2680  -20.7900 C.2       1 NDP501      0.0000 
     38 C3N        34.2770   -5.9610  -21.9290 C.2       1 NDP501      0.0000 
     39 C7N        34.2090   -5.2240  -23.1990 C.2       1 NDP501      0.0000 
     40 O7N        33.5920   -4.1510  -23.2720 O.2       1 NDP501      0.0000 
     41 N7N        34.8330   -5.7490  -24.2460 N.am      1 NDP501      0.0000 
     42 C4N        34.5620   -7.4330  -21.8750 C.3       1 NDP501      0.0000 
     43 C5N        34.6090   -7.9540  -20.4810 C.2       1 NDP501      0.0000 
     44 C6N        34.4030   -7.1890  -19.4160 C.2       1 NDP501      0.0000 
     45 P2B        45.6630   -8.4050  -12.5950 P.3       1 NDP501      0.0000 
     46 O1X        44.6970   -8.0590  -11.5120 O.co2     1 NDP501      0.0000 
     47 O2X        46.5260   -9.6270  -12.2630 O.co2     1 NDP501      0.0000 
     48 O3X        46.5940   -7.2430  -12.9610 O.co2     1 NDP501      0.0000 
@<TRIPOS>BOND
     1    1    2 ar   
     2    1    3 ar   
     3    1    4 1    
     4    1   23 1    
     5    4    5 1    
     6    5    6 1    
     7    6    7 1    
     8    6    8 1    
     9    7   12 1    
    10    8    9 1    
    11    8   10 1    
    12   10   11 1    
    13   10   12 1    
    14   11   45 1    
    15   12   13 1    
    16   13   14 1    
    17   13   22 1    
    18   14   15 2    
    19   15   16 1    
    20   16   17 ar   
    21   16   22 ar   
    22   17   18 1    
    23   17   19 ar   
    24   19   20 ar   
    25   20   21 ar   
    26   21   22 ar   
    27   23   24 1    
    28   24   25 ar   
    29   24   26 ar   
    30   24   27 1    
    31   27   28 1    
    32   28   29 1    
    33   29   30 1    
    34   29   31 1    
    35   30   35 1    
    36   31   32 1    
    37   31   33 1    
    38   33   34 1    
    39   33   35 1    
    40   35   36 1    
    41   36   37 1    
    42   36   44 1    
    43   37   38 2    
    44   38   39 1    
    45   38   42 1    
    46   39   40 2    
    47   39   41 am   
    48   42   43 1    
    49   43   44 2    
    50   45   46 ar   
    51   45   47 ar   
    52   45   48 ar   
@<TRIPOS>SUBSTRUCTURE
     1 NDP501      1 GROUP   
@<TRIPOS>SET
ATOM$ORANGE STATIC     ATOMS   COLORGROUP SYSTEM 
42 5 5 6 6 8 8 10 10 12 12 14 14 16 16 17 17 20 \
20 22 22 28 28 29 29 31 31 33 33 35 35 37 37 38 38 39 \
39 42 42 43 43 44 44 

