#    Name: 6vg0_3_NDP
#    Modification time : Fri May 22 19:25:09 2020

@<TRIPOS>MOLECULE
6vg0_3_NDP
   48    52     1     0     1
SMALL
NO_CHARGES


@<TRIPOS>ATOM
      1 PA        101.8030  -21.4900  -23.8100 P.3       1 NDP502      0.0000 
      2 O1A       100.5790  -20.6830  -23.6120 O.co2     1 NDP502      0.0000 
      3 O2A       101.5900  -23.0010  -23.7870 O.co2     1 NDP502      0.0000 
      4 O5B       102.9420  -21.1420  -22.7130 O.3       1 NDP502      0.0000 
      5 C5B       103.7440  -19.9480  -22.8400 C.3       1 NDP502      0.0000 
      6 C4B       103.9320  -19.3170  -21.4840 C.3       1 NDP502      0.0000 
      7 O4B       102.6790  -19.3280  -20.7620 O.3       1 NDP502      0.0000 
      8 C3B       104.9590  -19.9860  -20.5690 C.3       1 NDP502      0.0000 
      9 O3B       105.6480  -18.9980  -19.8110 O.3       1 NDP502      0.0000 
     10 C2B       104.0890  -20.8720  -19.6830 C.3       1 NDP502      0.0000 
     11 O2B       104.6430  -21.0480  -18.3600 O.3       1 NDP502      0.0000 
     12 C1B       102.8320  -20.0200  -19.5370 C.3       1 NDP502      0.0000 
     13 N9A       101.6230  -20.8010  -19.2920 N.pl3     1 NDP502      0.0000 
     14 C8A       101.0180  -21.6860  -20.1440 C.2       1 NDP502      0.0000 
     15 N7A        99.9430  -22.2540  -19.6500 N.2       1 NDP502      0.0000 
     16 C5A        99.8330  -21.7020  -18.3840 C.ar      1 NDP502      0.0000 
     17 C6A        98.9020  -21.8890  -17.3430 C.ar      1 NDP502      0.0000 
     18 N6A        97.8650  -22.7300  -17.4130 N.pl3     1 NDP502      0.0000 
     19 N1A        99.0790  -21.1770  -16.2090 N.ar      1 NDP502      0.0000 
     20 C2A       100.1180  -20.3410  -16.1280 C.ar      1 NDP502      0.0000 
     21 N3A       101.0590  -20.0860  -17.0390 N.ar      1 NDP502      0.0000 
     22 C4A       100.8610  -20.8010  -18.1500 C.ar      1 NDP502      0.0000 
     23 O3        102.5150  -21.1420  -25.1900 O.3       1 NDP502      0.0000 
     24 PN        103.7690  -21.7700  -25.9430 P.3       1 NDP502      0.0000 
     25 O1N       104.2180  -20.9090  -27.0580 O.co2     1 NDP502      0.0000 
     26 O2N       104.8320  -22.0710  -24.8890 O.co2     1 NDP502      0.0000 
     27 O5D       103.2670  -23.1920  -26.4860 O.3       1 NDP502      0.0000 
     28 C5D       103.6280  -23.6670  -27.7960 C.3       1 NDP502      0.0000 
     29 C4D       102.5760  -24.6290  -28.2840 C.3       1 NDP502      0.0000 
     30 O4D       101.2600  -24.1080  -27.9850 O.3       1 NDP502      0.0000 
     31 C3D       102.6070  -24.8870  -29.7930 C.3       1 NDP502      0.0000 
     32 O3D       102.4170  -26.2680  -30.0740 O.3       1 NDP502      0.0000 
     33 C2D       101.4590  -24.0180  -30.3150 C.3       1 NDP502      0.0000 
     34 O2D       100.8890  -24.5470  -31.5060 O.3       1 NDP502      0.0000 
     35 C1D       100.4720  -24.1200  -29.1580 C.3       1 NDP502      0.0000 
     36 N1N        99.5110  -23.0240  -29.0870 N.pl3     1 NDP502      0.0000 
     37 C2N        98.1320  -23.2820  -29.1080 C.2       1 NDP502      0.0000 
     38 C3N        97.2030  -22.3060  -29.0460 C.2       1 NDP502      0.0000 
     39 C7N        95.7870  -22.7020  -29.0810 C.2       1 NDP502      0.0000 
     40 O7N        95.4630  -23.8930  -28.9620 O.2       1 NDP502      0.0000 
     41 N7N        94.8850  -21.7420  -29.2440 N.am      1 NDP502      0.0000 
     42 C4N        97.6280  -20.8700  -28.9480 C.3       1 NDP502      0.0000 
     43 C5N        99.1070  -20.7100  -28.9350 C.2       1 NDP502      0.0000 
     44 C6N        99.9450  -21.7370  -29.0020 C.2       1 NDP502      0.0000 
     45 P2B       106.1610  -21.2860  -17.8440 P.3       1 NDP502      0.0000 
     46 O1X       107.0840  -21.6620  -18.9560 O.co2     1 NDP502      0.0000 
     47 O2X       106.5620  -19.9770  -17.1520 O.co2     1 NDP502      0.0000 
     48 O3X       106.0680  -22.3690  -16.7630 O.co2     1 NDP502      0.0000 
@<TRIPOS>BOND
     1    1    2 ar   
     2    1    3 ar   
     3    1    4 1    
     4    1   23 1    
     5    4    5 1    
     6    5    6 1    
     7    6    7 1    
     8    6    8 1    
     9    7   12 1    
    10    8    9 1    
    11    8   10 1    
    12   10   11 1    
    13   10   12 1    
    14   11   45 1    
    15   12   13 1    
    16   13   14 1    
    17   13   22 1    
    18   14   15 2    
    19   15   16 1    
    20   16   17 ar   
    21   16   22 ar   
    22   17   18 1    
    23   17   19 ar   
    24   19   20 ar   
    25   20   21 ar   
    26   21   22 ar   
    27   23   24 1    
    28   24   25 ar   
    29   24   26 ar   
    30   24   27 1    
    31   27   28 1    
    32   28   29 1    
    33   29   30 1    
    34   29   31 1    
    35   30   35 1    
    36   31   32 1    
    37   31   33 1    
    38   33   34 1    
    39   33   35 1    
    40   35   36 1    
    41   36   37 1    
    42   36   44 1    
    43   37   38 2    
    44   38   39 1    
    45   38   42 1    
    46   39   40 2    
    47   39   41 am   
    48   42   43 1    
    49   43   44 2    
    50   45   46 ar   
    51   45   47 ar   
    52   45   48 ar   
@<TRIPOS>SUBSTRUCTURE
     1 NDP502      1 GROUP   
@<TRIPOS>SET
ATOM$ORANGE STATIC     ATOMS   COLORGROUP SYSTEM 
42 5 5 6 6 8 8 10 10 12 12 14 14 16 16 17 17 20 \
20 22 22 28 28 29 29 31 31 33 33 35 35 37 37 38 38 39 \
39 42 42 43 43 44 44 

