#    Name: 6brj_1_VX6
#    Modification time : Fri May 22 19:32:42 2020

@<TRIPOS>MOLECULE
6brj_1_VX6
   33    37     1     0     0
SMALL
NO_CHARGES


@<TRIPOS>ATOM
      1 N1         -7.4730   -4.6050   -0.3770 N.4       1 VX6901      0.0000 
      2 C2         -8.6150   -5.1670   -1.1150 C.3       1 VX6901      0.0000 
      3 C3         -9.6420   -4.0860   -1.3210 C.3       1 VX6901      0.0000 
      4 N4        -10.0910   -3.6610    0.0040 N.3       1 VX6901      0.0000 
      5 C5         -8.9740   -2.9860    0.6840 C.3       1 VX6901      0.0000 
      6 C6         -7.8430   -3.9550    0.8860 C.3       1 VX6901      0.0000 
      7 C7         -6.5680   -5.7010   -0.0270 C.3       1 VX6901      0.0000 
      8 C8        -11.2780   -2.9010   -0.0190 C.ar      1 VX6901      0.0000 
      9 C9        -12.2920   -3.1240   -0.9190 C.ar      1 VX6901      0.0000 
     10 C10       -13.4350   -2.3760   -0.8590 C.ar      1 VX6901      0.0000 
     11 N11       -13.5640   -1.4380    0.0760 N.ar      1 VX6901      0.0000 
     12 C12       -12.5820   -1.2430    0.9530 C.ar      1 VX6901      0.0000 
     13 N13       -11.4870   -1.9710    0.8950 N.ar      1 VX6901      0.0000 
     14 N14       -14.3760   -2.6250   -1.7730 N.pl3     1 VX6901      0.0000 
     15 C15       -15.6390   -2.2030   -1.7000 C.2       1 VX6901      0.0000 
     16 C17       -16.3410   -1.4000   -0.8360 C.2       1 VX6901      0.0000 
     17 C18       -17.5920   -1.4120   -1.3770 C.2       1 VX6901      0.0000 
     18 N19       -17.6430   -2.1520   -2.4700 N.2       1 VX6901      0.0000 
     19 N20       -16.3860   -2.6610   -2.6710 N.pl3     1 VX6901      0.0000 
     20 C21       -18.6170   -0.6170   -0.6440 C.3       1 VX6901      0.0000 
     21 S23       -12.6350   -0.0990    2.1770 S.3       1 VX6901      0.0000 
     22 C24       -13.9910    0.7770    1.7770 C.ar      1 VX6901      0.0000 
     23 C25       -15.1460    0.7730    2.5150 C.ar      1 VX6901      0.0000 
     24 C26       -16.2260    1.5320    2.1160 C.ar      1 VX6901      0.0000 
     25 C27       -16.1280    2.2930    0.9800 C.ar      1 VX6901      0.0000 
     26 C28       -14.9720    2.2820    0.2660 C.ar      1 VX6901      0.0000 
     27 C29       -13.9060    1.5360    0.6560 C.ar      1 VX6901      0.0000 
     28 N30       -17.1060    3.0690    0.5030 N.am      1 VX6901      0.0000 
     29 C31       -18.0640    3.6000    1.2220 C.2       1 VX6901      0.0000 
     30 O32       -18.1270    3.4390    2.3950 O.2       1 VX6901      0.0000 
     31 C33       -19.1140    4.4060    0.5240 C.3       1 VX6901      0.0000 
     32 C34       -19.3160    5.7550    1.1910 C.3       1 VX6901      0.0000 
     33 C35       -18.4680    5.6410   -0.0480 C.3       1 VX6901      0.0000 
@<TRIPOS>BOND
     1    1    2 1    
     2    1    6 1    
     3    1    7 1    
     4    2    3 1    
     5    3    4 1    
     6    4    5 1    
     7    4    8 1    
     8    5    6 1    
     9    8    9 ar   
    10    8   13 ar   
    11    9   10 ar   
    12   10   11 ar   
    13   10   14 1    
    14   11   12 ar   
    15   12   13 ar   
    16   12   21 1    
    17   14   15 1    
    18   15   16 2    
    19   15   19 1    
    20   16   17 1    
    21   17   18 2    
    22   17   20 1    
    23   18   19 1    
    24   21   22 1    
    25   22   23 ar   
    26   22   27 ar   
    27   23   24 ar   
    28   24   25 ar   
    29   25   26 ar   
    30   25   28 1    
    31   26   27 ar   
    32   28   29 am   
    33   29   30 2    
    34   29   31 1    
    35   31   32 1    
    36   31   33 1    
    37   32   33 1    
@<TRIPOS>SUBSTRUCTURE
     1 VX6901      1 GROUP   
@<TRIPOS>SET

