#    Name: 6qcd_1_AR6_CAVITY_N1_6
#    Modification time : Fri May 22 19:33:04 2020

@<TRIPOS>MOLECULE
6qcd_1_AR6_CAVITY_N1_6
   91     0     7     0     0
SMALL
NO_CHARGES


@<TRIPOS>ATOM
      1 OG        -27.1900   21.2800    7.9500 O.3       1 SER1        0.0000 
      2 OG        -28.0000   21.6600    9.8700 O.3       1 SER1        0.0000 
      3 OG        -28.8100   22.0400   11.8000 O.3       1 SER1        0.0000 
      4 OG        -28.3200   20.7000   12.2700 O.3       1 SER1        0.0000 
      5 OG        -27.8400   19.3500   12.7300 O.3       1 SER1        0.0000 
      6 OG        -29.5300   16.1800   14.9900 O.3       1 SER1        0.0000 
      7 N         -27.6400   24.5900    8.2800 N.am      2 ALA2        0.0000 
      8 N         -27.1200   25.2100    9.5400 N.am      2 ALA2        0.0000 
      9 N         -26.6400   23.8700   10.0100 N.am      2 ALA2        0.0000 
     10 N         -28.6900   17.7700   13.8600 N.am      2 ALA2        0.0000 
     11 O         -30.8500   15.9400   15.6500 O.2       2 ALA2        0.0000 
     12 O         -32.1800   15.6900   16.3100 O.2       2 ALA2        0.0000 
     13 O         -29.6100   22.4200   13.7300 O.2       2 ALA2        0.0000 
     14 O         -29.0100   16.8000   16.2500 O.2       2 ALA2        0.0000 
     15 O         -30.3300   16.5600   16.9100 O.2       2 ALA2        0.0000 
     16 O         -31.6600   16.3200   17.5800 O.2       2 ALA2        0.0000 
     17 N         -31.1800   14.9700   18.0400 N.am      2 ALA2        0.0000 
     18 O         -32.5000   14.7300   18.7000 O.2       2 ALA2        0.0000 
     19 N         -33.8200   14.4900   19.3700 N.am      2 ALA2        0.0000 
     20 N         -32.0200   13.3900   19.1700 N.am      2 ALA2        0.0000 
     21 O         -33.3400   13.1400   19.8300 O.2       2 ALA2        0.0000 
     22 O         -31.6200   18.2800   18.3700 O.2       2 ALA2        0.0000 
     23 O         -30.6600   15.6000   19.3000 O.2       2 ALA2        0.0000 
     24 N         -32.3500   12.4200   21.5600 N.am      2 ALA2        0.0000 
     25 O         -31.8600   11.0800   22.0300 O.2       2 ALA2        0.0000 
     26 O         -31.3800    9.7400   22.4900 O.2       2 ALA2        0.0000 
     27 N         -29.5400   10.6100   23.0900 N.am      2 ALA2        0.0000 
     28 O         -29.0600    9.2700   23.5600 O.2       2 ALA2        0.0000 
     29 O         -30.3900    9.0200   24.2200 O.2       2 ALA2        0.0000 
     30 N         -29.5100   12.5700   23.8900 N.am      2 ALA2        0.0000 
     31 N         -29.0300   11.2300   24.3600 N.am      2 ALA2        0.0000 
     32 O         -28.5500    9.8900   24.8200 O.2       2 ALA2        0.0000 
     33 OD1       -30.1300   21.7900   12.4600 O.co2     3 ASP3        0.0000 
     34 OD1       -29.6500   20.4500   12.9300 O.co2     3 ASP3        0.0000 
     35 OD1       -29.1700   19.1100   13.3900 O.co2     3 ASP3        0.0000 
     36 OD1       -30.0100   17.5200   14.5200 O.co2     3 ASP3        0.0000 
     37 OD1       -31.3300   17.2800   15.1900 O.co2     3 ASP3        0.0000 
     38 OD1       -30.8200   17.9000   16.4500 O.co2     3 ASP3        0.0000 
     39 OD1       -32.1400   17.6600   17.1100 O.co2     3 ASP3        0.0000 
     40 NZ        -32.4600   16.7000   19.5000 N.4       4 LYS4        0.0000 
     41 NZ        -31.9800   15.3500   19.9700 N.4       4 LYS4        0.0000 
     42 NZ        -33.3100   15.1100   20.6300 N.4       4 LYS4        0.0000 
     43 NZ        -32.8300   13.7700   21.1000 N.4       4 LYS4        0.0000 
     44 NZ        -31.8300   13.0500   22.8200 N.4       4 LYS4        0.0000 
     45 CZ        -28.9600   24.3400    8.9400 C.ar      5 PHE5        0.0000 
     46 CZ        -26.6800   21.9000    9.2100 C.ar      5 PHE5        0.0000 
     47 CZ        -28.8400   20.0700   11.0000 C.ar      5 PHE5        0.0000 
     48 CZ        -28.4400   24.9700   10.2100 C.ar      5 PHE5        0.0000 
     49 CZ        -29.7700   24.7200   10.8700 C.ar      5 PHE5        0.0000 
     50 CZ        -29.2900   23.3800   11.3300 C.ar      5 PHE5        0.0000 
     51 CZ        -30.6100   23.1400   12.0000 C.ar      5 PHE5        0.0000 
     52 CZ        -27.9300   25.5900   11.4700 C.ar      5 PHE5        0.0000 
     53 CZ        -29.2500   25.3500   12.1300 C.ar      5 PHE5        0.0000 
     54 CZ        -28.7700   24.0000   12.6000 C.ar      5 PHE5        0.0000 
     55 CZ        -27.8100   21.3200   13.5300 C.ar      5 PHE5        0.0000 
     56 CZ        -29.1300   21.0800   14.1900 C.ar      5 PHE5        0.0000 
     57 CZ        -28.6500   19.7300   14.6600 C.ar      5 PHE5        0.0000 
     58 CZ        -29.9700   19.4900   15.3200 C.ar      5 PHE5        0.0000 
     59 CZ        -29.4900   18.1500   15.7900 C.ar      5 PHE5        0.0000 
     60 CZ        -28.7300   25.9700   13.3900 C.ar      5 PHE5        0.0000 
     61 CZ        -28.2500   24.6300   13.8600 C.ar      5 PHE5        0.0000 
     62 CZ        -27.7700   23.2900   14.3300 C.ar      5 PHE5        0.0000 
     63 CZ        -30.3000   18.5300   17.7100 C.ar      5 PHE5        0.0000 
     64 CZ        -26.8900   26.8400   13.9900 C.ar      5 PHE5        0.0000 
     65 CZ        -26.4100   25.5000   14.4600 C.ar      5 PHE5        0.0000 
     66 CZ        -27.7300   25.2500   15.1200 C.ar      5 PHE5        0.0000 
     67 CA        -29.0000   22.3800    8.1500 C.3       6 GLY6        0.0000 
     68 CA        -28.5200   21.0400    8.6100 C.3       6 GLY6        0.0000 
     69 CA        -29.8000   22.7600   10.0700 C.3       6 GLY6        0.0000 
     70 CA        -29.3200   21.4200   10.5400 C.3       6 GLY6        0.0000 
     71 CA        -33.4600   17.4100   17.7700 C.3       6 GLY6        0.0000 
     72 CA        -32.9800   16.0700   18.2400 C.3       6 GLY6        0.0000 
     73 CA        -29.8200   17.1800   18.1800 C.3       6 GLY6        0.0000 
     74 CA        -31.1400   16.9400   18.8400 C.3       6 GLY6        0.0000 
     75 CA        -31.5000   14.0100   20.4300 C.3       6 GLY6        0.0000 
     76 CA        -31.0200   12.6700   20.9000 C.3       6 GLY6        0.0000 
     77 CA        -30.5400   11.3300   21.3600 C.3       6 GLY6        0.0000 
     78 CA        -30.0600    9.9800   21.8300 C.3       6 GLY6        0.0000 
     79 CA        -30.5100   13.2900   22.1600 C.3       6 GLY6        0.0000 
     80 CA        -30.0200   11.9500   22.6300 C.3       6 GLY6        0.0000 
     81 CA        -31.3500   11.7100   23.2900 C.3       6 GLY6        0.0000 
     82 CA        -30.8700   10.3600   23.7600 C.3       6 GLY6        0.0000 
     83 CA        -30.8300   12.3300   24.5500 C.3       6 GLY6        0.0000 
     84 CA        -30.3500   10.9900   25.0200 C.3       6 GLY6        0.0000 
     85 CA        -29.8700    9.6400   25.4800 C.3       6 GLY6        0.0000 
     86 DU        -27.6700   22.6200    7.4800 H         7 CUB7        0.0000 
     87 DU        -27.1600   23.2500    8.7500 H         7 CUB7        0.0000 
     88 DU        -28.4800   23.0000    9.4100 H         7 CUB7        0.0000 
     89 DU        -27.9600   23.6300   10.6700 H         7 CUB7        0.0000 
     90 DU        -28.2900   22.6600   13.0600 H         7 CUB7        0.0000 
     91 DU        -27.4100   26.2100   12.7300 H         7 CUB7        0.0000 
@<TRIPOS>BOND
@<TRIPOS>SUBSTRUCTURE
     1 SER1        1 GROUP   
     2 ALA2        7 GROUP   
     3 ASP3       33 GROUP   
     4 LYS4       40 GROUP   
     5 PHE5       45 GROUP   
     6 GLY6       67 GROUP   
     7 CUB7       86 GROUP   
@<TRIPOS>SET

