#    Name: 6qcd_1_AR6
#    Modification time : Fri May 22 19:33:02 2020

@<TRIPOS>MOLECULE
6qcd_1_AR6
   36    39     1     0     0
SMALL
NO_CHARGES


@<TRIPOS>ATOM
      1 N1        -29.7470    9.6850   24.4110 N.ar      1 AR6401      0.0000 
      2 C2        -30.6140    9.4700   23.4030 C.ar      1 AR6401      0.0000 
      3 N3        -31.2520   10.3620   22.6340 N.ar      1 AR6401      0.0000 
      4 C4        -30.9430   11.6220   22.9900 C.ar      1 AR6401      0.0000 
      5 C5        -30.1280   11.9950   24.0380 C.ar      1 AR6401      0.0000 
      6 C6        -29.5090   10.9620   24.7850 C.ar      1 AR6401      0.0000 
      7 N6        -28.6660   11.1540   25.8020 N.pl3     1 AR6401      0.0000 
      8 N7        -30.1050   13.3840   24.1510 N.2       1 AR6401      0.0000 
      9 C8        -30.8370   13.8090   23.1370 C.2       1 AR6401      0.0000 
     10 N9        -31.3980   12.7870   22.4160 N.pl3     1 AR6401      0.0000 
     11 PA        -31.8810   17.2680   17.2500 P.3       1 AR6401      0.0000 
     12 PB        -29.8500   16.8120   15.1840 P.3       1 AR6401      0.0000 
     13 C1'       -32.1910   12.9100   21.2600 C.3       1 AR6401      0.0000 
     14 O1A       -32.8810   17.4390   16.1470 O.co2     1 AR6401      0.0000 
     15 O1B       -28.3860   16.5690   15.4140 O.co2     1 AR6401      0.0000 
     16 C1D       -29.7530   21.7640   13.5770 C.3       1 AR6401      0.0000 
     17 O1D       -30.2590   22.8480   12.8780 O.3       1 AR6401      0.0000 
     18 C2'       -33.3640   13.8900   21.3150 C.3       1 AR6401      0.0000 
     19 O2'       -34.5600   13.2960   21.7800 O.3       1 AR6401      0.0000 
     20 O2A       -31.8240   18.0740   18.4970 O.co2     1 AR6401      0.0000 
     21 O2B       -30.6470   15.6980   14.6410 O.co2     1 AR6401      0.0000 
     22 C2D       -28.2370   21.6820   13.4100 C.3       1 AR6401      0.0000 
     23 O2D       -27.8160   22.2550   12.1820 O.3       1 AR6401      0.0000 
     24 C3'       -33.4270   14.4220   19.8850 C.3       1 AR6401      0.0000 
     25 O3'       -34.5380   13.9760   19.1270 O.3       1 AR6401      0.0000 
     26 O3A       -30.3780   17.3290   16.6310 O.3       1 AR6401      0.0000 
     27 C3D       -28.0000   20.1840   13.5670 C.3       1 AR6401      0.0000 
     28 O3D       -26.6760   19.8010   13.1430 O.3       1 AR6401      0.0000 
     29 C4'       -32.0940   14.0150   19.2320 C.3       1 AR6401      0.0000 
     30 O4'       -31.3320   13.4250   20.2740 O.3       1 AR6401      0.0000 
     31 C4D       -29.1820   19.6610   12.7300 C.3       1 AR6401      0.0000 
     32 O4D       -30.2740   20.5670   13.0190 O.3       1 AR6401      0.0000 
     33 C5'       -31.2740   15.1320   18.6640 C.3       1 AR6401      0.0000 
     34 O5'       -32.0780   15.7330   17.6030 O.3       1 AR6401      0.0000 
     35 C5D       -29.6410   18.2560   13.0440 C.3       1 AR6401      0.0000 
     36 O5D       -30.0030   18.2090   14.4450 O.3       1 AR6401      0.0000 
@<TRIPOS>BOND
     1    1    2 ar   
     2    1    6 ar   
     3    2    3 ar   
     4    3    4 ar   
     5    4    5 ar   
     6    4   10 1    
     7    5    6 ar   
     8    5    8 1    
     9    6    7 1    
    10    8    9 2    
    11    9   10 1    
    12   10   13 1    
    13   11   14 ar   
    14   11   20 ar   
    15   11   26 1    
    16   11   34 1    
    17   12   15 ar   
    18   12   21 ar   
    19   12   26 1    
    20   12   36 1    
    21   13   18 1    
    22   13   30 1    
    23   16   17 1    
    24   16   22 1    
    25   16   32 1    
    26   18   19 1    
    27   18   24 1    
    28   22   23 1    
    29   22   27 1    
    30   24   25 1    
    31   24   29 1    
    32   27   28 1    
    33   27   31 1    
    34   29   30 1    
    35   29   33 1    
    36   31   32 1    
    37   31   35 1    
    38   33   34 1    
    39   35   36 1    
@<TRIPOS>SUBSTRUCTURE
     1 AR6401      1 GROUP   
@<TRIPOS>SET

