#    Name: 6qcd_2_QUE_CAVITY_N1_6
#    Modification time : Fri May 22 19:33:08 2020

@<TRIPOS>MOLECULE
6qcd_2_QUE_CAVITY_N1_6
   49     0     3     0     0
SMALL
NO_CHARGES


@<TRIPOS>ATOM
      1 CZ        -30.3000   18.5300   17.7100 C.ar      1 PHE5        0.0000 
      2 CZ        -26.8900   26.8400   13.9900 C.ar      1 PHE5        0.0000 
      3 CZ        -26.4100   25.5000   14.4600 C.ar      1 PHE5        0.0000 
      4 CZ        -27.7300   25.2500   15.1200 C.ar      1 PHE5        0.0000 
      5 CZ        -25.9300   24.1500   14.9300 C.ar      1 PHE5        0.0000 
      6 CZ        -28.1800   28.5600   15.4500 C.ar      1 PHE5        0.0000 
      7 CZ        -25.8900   26.1200   15.7200 C.ar      1 PHE5        0.0000 
      8 CZ        -25.4100   24.7800   16.1900 C.ar      1 PHE5        0.0000 
      9 CZ        -24.9000   25.4000   17.4500 C.ar      1 PHE5        0.0000 
     10 CZ        -26.2200   25.1600   18.1100 C.ar      1 PHE5        0.0000 
     11 CZ        -24.4200   24.0600   17.9200 C.ar      1 PHE5        0.0000 
     12 CZ        -25.2600   22.4700   19.0400 C.ar      1 PHE5        0.0000 
     13 CZ        -23.0600   26.2700   18.0500 C.ar      1 PHE5        0.0000 
     14 CZ        -22.5800   24.9300   18.5200 C.ar      1 PHE5        0.0000 
     15 CZ        -23.9000   24.6800   19.1800 C.ar      1 PHE5        0.0000 
     16 CZ        -25.2200   24.4400   19.8400 C.ar      1 PHE5        0.0000 
     17 CZ        -23.4200   23.3400   19.6400 C.ar      1 PHE5        0.0000 
     18 CZ        -21.2200   27.1400   18.6500 C.ar      1 PHE5        0.0000 
     19 CZ        -22.5400   26.8900   19.3100 C.ar      1 PHE5        0.0000 
     20 CZ        -23.8600   26.6500   19.9800 C.ar      1 PHE5        0.0000 
     21 CZ        -25.1900   26.4000   20.6400 C.ar      1 PHE5        0.0000 
     22 CZ        -23.3800   25.3000   20.4400 C.ar      1 PHE5        0.0000 
     23 CZ        -20.7000   27.7600   19.9100 C.ar      1 PHE5        0.0000 
     24 CZ        -22.0200   27.5100   20.5800 C.ar      1 PHE5        0.0000 
     25 CA        -29.8200   17.1800   18.1800 C.3       2 GLY6        0.0000 
     26 CA        -24.2500   27.3300   12.6700 C.3       2 GLY6        0.0000 
     27 CA        -23.7600   25.9800   13.1300 C.3       2 GLY6        0.0000 
     28 CA        -24.6100   24.4000   14.2600 C.3       2 GLY6        0.0000 
     29 CA        -25.5300   29.0500   14.1300 C.3       2 GLY6        0.0000 
     30 CA        -25.0500   27.7100   14.5900 C.3       2 GLY6        0.0000 
     31 CA        -23.2500   26.6100   14.4000 C.3       2 GLY6        0.0000 
     32 CA        -24.0900   25.0200   15.5300 C.3       2 GLY6        0.0000 
     33 CA        -24.5300   28.3300   15.8600 C.3       2 GLY6        0.0000 
     34 CA        -22.7300   27.2300   15.6600 C.3       2 GLY6        0.0000 
     35 CA        -24.0500   26.9900   16.3200 C.3       2 GLY6        0.0000 
     36 CA        -22.2500   25.8900   16.1300 C.3       2 GLY6        0.0000 
     37 CA        -23.5700   25.6400   16.7900 C.3       2 GLY6        0.0000 
     38 CA        -23.9300   22.7200   18.3800 C.3       2 GLY6        0.0000 
     39 CA        -23.5400   27.6100   17.5800 C.3       2 GLY6        0.0000 
     40 CA        -21.7300   26.5100   17.3900 C.3       2 GLY6        0.0000 
     41 CA        -26.5500   24.1900   20.5000 C.3       2 GLY6        0.0000 
     42 CA        -24.7400   23.0900   20.3100 C.3       2 GLY6        0.0000 
     43 CA        -21.7000   28.4800   18.1800 C.3       2 GLY6        0.0000 
     44 DU        -25.5700   27.0800   13.3300 H         3 CUB7        0.0000 
     45 DU        -25.0900   25.7400   13.8000 H         3 CUB7        0.0000 
     46 DU        -26.3800   27.4600   15.2600 H         3 CUB7        0.0000 
     47 DU        -24.5700   26.3600   15.0600 H         3 CUB7        0.0000 
     48 DU        -24.3800   26.0200   18.7100 H         3 CUB7        0.0000 
     49 DU        -25.7000   25.7800   19.3800 H         3 CUB7        0.0000 
@<TRIPOS>BOND
@<TRIPOS>SUBSTRUCTURE
     1 PHE5        1 GROUP   
     2 GLY6       25 GROUP   
     3 CUB7       44 GROUP   
@<TRIPOS>SET

