#    Name: 6qcd_2_QUE_CAVITY_N1_12
#    Modification time : Fri May 22 19:33:08 2020

@<TRIPOS>MOLECULE
6qcd_2_QUE_CAVITY_N1_12
  113     0     7     0     0
SMALL
NO_CHARGES


@<TRIPOS>ATOM
      1 OG        -28.8100   22.0400   11.8000 O.3       1 SER1        0.0000 
      2 OG        -28.3200   20.7000   12.2700 O.3       1 SER1        0.0000 
      3 OG        -27.8400   19.3500   12.7300 O.3       1 SER1        0.0000 
      4 OG        -29.5300   16.1800   14.9900 O.3       1 SER1        0.0000 
      5 N         -28.6900   17.7700   13.8600 N.am      2 ALA2        0.0000 
      6 O         -30.8500   15.9400   15.6500 O.2       2 ALA2        0.0000 
      7 O         -32.1800   15.6900   16.3100 O.2       2 ALA2        0.0000 
      8 N         -27.0800   27.1800   10.3400 N.am      2 ALA2        0.0000 
      9 N         -26.6000   25.8300   10.8100 N.am      2 ALA2        0.0000 
     10 O         -29.6100   22.4200   13.7300 O.2       2 ALA2        0.0000 
     11 O         -29.0100   16.8000   16.2500 O.2       2 ALA2        0.0000 
     12 O         -30.3300   16.5600   16.9100 O.2       2 ALA2        0.0000 
     13 O         -31.6600   16.3200   17.5800 O.2       2 ALA2        0.0000 
     14 N         -31.1800   14.9700   18.0400 N.am      2 ALA2        0.0000 
     15 O         -32.5000   14.7300   18.7000 O.2       2 ALA2        0.0000 
     16 N         -33.8200   14.4900   19.3700 N.am      2 ALA2        0.0000 
     17 N         -32.0200   13.3900   19.1700 N.am      2 ALA2        0.0000 
     18 O         -33.3400   13.1400   19.8300 O.2       2 ALA2        0.0000 
     19 N         -25.2400   28.0400   10.9400 N.am      2 ALA2        0.0000 
     20 N         -26.5700   27.8000   11.6000 N.am      2 ALA2        0.0000 
     21 O         -27.8900   27.5600   12.2600 O.2       2 ALA2        0.0000 
     22 N         -26.0900   26.4600   12.0700 N.am      2 ALA2        0.0000 
     23 O         -31.6200   18.2800   18.3700 O.2       2 ALA2        0.0000 
     24 O         -30.6600   15.6000   19.3000 O.2       2 ALA2        0.0000 
     25 OD1       -30.1300   21.7900   12.4600 O.co2     3 ASP3        0.0000 
     26 OD1       -29.6500   20.4500   12.9300 O.co2     3 ASP3        0.0000 
     27 OD1       -29.1700   19.1100   13.3900 O.co2     3 ASP3        0.0000 
     28 OD1       -30.0100   17.5200   14.5200 O.co2     3 ASP3        0.0000 
     29 OD1       -31.3300   17.2800   15.1900 O.co2     3 ASP3        0.0000 
     30 OD1       -30.8200   17.9000   16.4500 O.co2     3 ASP3        0.0000 
     31 OD1       -32.1400   17.6600   17.1100 O.co2     3 ASP3        0.0000 
     32 NZ        -27.0500   29.1400   11.1400 N.4       4 LYS4        0.0000 
     33 NZ        -32.4600   16.7000   19.5000 N.4       4 LYS4        0.0000 
     34 NZ        -31.9800   15.3500   19.9700 N.4       4 LYS4        0.0000 
     35 NZ        -33.3100   15.1100   20.6300 N.4       4 LYS4        0.0000 
     36 NZ        -32.8300   13.7700   21.1000 N.4       4 LYS4        0.0000 
     37 NZ        -26.5300   29.7700   12.4000 N.4       4 LYS4        0.0000 
     38 CZ        -28.4400   24.9700   10.2100 C.ar      5 PHE5        0.0000 
     39 CZ        -29.7700   24.7200   10.8700 C.ar      5 PHE5        0.0000 
     40 CZ        -29.2900   23.3800   11.3300 C.ar      5 PHE5        0.0000 
     41 CZ        -30.6100   23.1400   12.0000 C.ar      5 PHE5        0.0000 
     42 CZ        -28.4100   26.9300   11.0000 C.ar      5 PHE5        0.0000 
     43 CZ        -27.9300   25.5900   11.4700 C.ar      5 PHE5        0.0000 
     44 CZ        -29.2500   25.3500   12.1300 C.ar      5 PHE5        0.0000 
     45 CZ        -28.7700   24.0000   12.6000 C.ar      5 PHE5        0.0000 
     46 CZ        -27.8100   21.3200   13.5300 C.ar      5 PHE5        0.0000 
     47 CZ        -29.1300   21.0800   14.1900 C.ar      5 PHE5        0.0000 
     48 CZ        -28.6500   19.7300   14.6600 C.ar      5 PHE5        0.0000 
     49 CZ        -29.9700   19.4900   15.3200 C.ar      5 PHE5        0.0000 
     50 CZ        -29.4900   18.1500   15.7900 C.ar      5 PHE5        0.0000 
     51 CZ        -29.2100   27.3100   12.9300 C.ar      5 PHE5        0.0000 
     52 CZ        -28.7300   25.9700   13.3900 C.ar      5 PHE5        0.0000 
     53 CZ        -28.2500   24.6300   13.8600 C.ar      5 PHE5        0.0000 
     54 CZ        -27.7700   23.2900   14.3300 C.ar      5 PHE5        0.0000 
     55 CZ        -30.3000   18.5300   17.7100 C.ar      5 PHE5        0.0000 
     56 CZ        -27.3700   28.1800   13.5300 C.ar      5 PHE5        0.0000 
     57 CZ        -26.8900   26.8400   13.9900 C.ar      5 PHE5        0.0000 
     58 CZ        -28.2200   26.5900   14.6600 C.ar      5 PHE5        0.0000 
     59 CZ        -26.4100   25.5000   14.4600 C.ar      5 PHE5        0.0000 
     60 CZ        -27.7300   25.2500   15.1200 C.ar      5 PHE5        0.0000 
     61 CZ        -25.9300   24.1500   14.9300 C.ar      5 PHE5        0.0000 
     62 CZ        -28.1800   28.5600   15.4500 C.ar      5 PHE5        0.0000 
     63 CZ        -25.8900   26.1200   15.7200 C.ar      5 PHE5        0.0000 
     64 CZ        -25.4100   24.7800   16.1900 C.ar      5 PHE5        0.0000 
     65 CZ        -24.9000   25.4000   17.4500 C.ar      5 PHE5        0.0000 
     66 CZ        -26.2200   25.1600   18.1100 C.ar      5 PHE5        0.0000 
     67 CZ        -24.4200   24.0600   17.9200 C.ar      5 PHE5        0.0000 
     68 CZ        -25.2600   22.4700   19.0400 C.ar      5 PHE5        0.0000 
     69 CZ        -23.0600   26.2700   18.0500 C.ar      5 PHE5        0.0000 
     70 CZ        -22.5800   24.9300   18.5200 C.ar      5 PHE5        0.0000 
     71 CZ        -23.9000   24.6800   19.1800 C.ar      5 PHE5        0.0000 
     72 CZ        -25.2200   24.4400   19.8400 C.ar      5 PHE5        0.0000 
     73 CZ        -23.4200   23.3400   19.6400 C.ar      5 PHE5        0.0000 
     74 CZ        -21.2200   27.1400   18.6500 C.ar      5 PHE5        0.0000 
     75 CZ        -22.5400   26.8900   19.3100 C.ar      5 PHE5        0.0000 
     76 CZ        -23.8600   26.6500   19.9800 C.ar      5 PHE5        0.0000 
     77 CZ        -25.1900   26.4000   20.6400 C.ar      5 PHE5        0.0000 
     78 CZ        -23.3800   25.3000   20.4400 C.ar      5 PHE5        0.0000 
     79 CZ        -20.7000   27.7600   19.9100 C.ar      5 PHE5        0.0000 
     80 CZ        -22.0200   27.5100   20.5800 C.ar      5 PHE5        0.0000 
     81 CA        -33.4600   17.4100   17.7700 C.3       6 GLY6        0.0000 
     82 CA        -32.9800   16.0700   18.2400 C.3       6 GLY6        0.0000 
     83 CA        -29.8200   17.1800   18.1800 C.3       6 GLY6        0.0000 
     84 CA        -31.1400   16.9400   18.8400 C.3       6 GLY6        0.0000 
     85 CA        -31.5000   14.0100   20.4300 C.3       6 GLY6        0.0000 
     86 CA        -26.0500   28.4200   12.8600 C.3       6 GLY6        0.0000 
     87 CA        -24.2500   27.3300   12.6700 C.3       6 GLY6        0.0000 
     88 CA        -23.7600   25.9800   13.1300 C.3       6 GLY6        0.0000 
     89 CA        -24.6100   24.4000   14.2600 C.3       6 GLY6        0.0000 
     90 CA        -25.5300   29.0500   14.1300 C.3       6 GLY6        0.0000 
     91 CA        -25.0500   27.7100   14.5900 C.3       6 GLY6        0.0000 
     92 CA        -23.2500   26.6100   14.4000 C.3       6 GLY6        0.0000 
     93 CA        -24.0900   25.0200   15.5300 C.3       6 GLY6        0.0000 
     94 CA        -24.5300   28.3300   15.8600 C.3       6 GLY6        0.0000 
     95 CA        -22.7300   27.2300   15.6600 C.3       6 GLY6        0.0000 
     96 CA        -24.0500   26.9900   16.3200 C.3       6 GLY6        0.0000 
     97 CA        -22.2500   25.8900   16.1300 C.3       6 GLY6        0.0000 
     98 CA        -23.5700   25.6400   16.7900 C.3       6 GLY6        0.0000 
     99 CA        -23.9300   22.7200   18.3800 C.3       6 GLY6        0.0000 
    100 CA        -23.5400   27.6100   17.5800 C.3       6 GLY6        0.0000 
    101 CA        -21.7300   26.5100   17.3900 C.3       6 GLY6        0.0000 
    102 CA        -26.5500   24.1900   20.5000 C.3       6 GLY6        0.0000 
    103 CA        -24.7400   23.0900   20.3100 C.3       6 GLY6        0.0000 
    104 CA        -21.7000   28.4800   18.1800 C.3       6 GLY6        0.0000 
    105 DU        -27.9600   23.6300   10.6700 H         7 CUB7        0.0000 
    106 DU        -28.2900   22.6600   13.0600 H         7 CUB7        0.0000 
    107 DU        -27.4100   26.2100   12.7300 H         7 CUB7        0.0000 
    108 DU        -25.5700   27.0800   13.3300 H         7 CUB7        0.0000 
    109 DU        -25.0900   25.7400   13.8000 H         7 CUB7        0.0000 
    110 DU        -26.3800   27.4600   15.2600 H         7 CUB7        0.0000 
    111 DU        -24.5700   26.3600   15.0600 H         7 CUB7        0.0000 
    112 DU        -24.3800   26.0200   18.7100 H         7 CUB7        0.0000 
    113 DU        -25.7000   25.7800   19.3800 H         7 CUB7        0.0000 
@<TRIPOS>BOND
@<TRIPOS>SUBSTRUCTURE
     1 SER1        1 GROUP   
     2 ALA2        5 GROUP   
     3 ASP3       25 GROUP   
     4 LYS4       32 GROUP   
     5 PHE5       38 GROUP   
     6 GLY6       81 GROUP   
     7 CUB7      105 GROUP   
@<TRIPOS>SET

