#    Name: 6qcd_2_QUE
#    Modification time : Fri May 22 19:33:07 2020

@<TRIPOS>MOLECULE
6qcd_2_QUE
   22    24     1     0     0
SMALL
NO_CHARGES


@<TRIPOS>ATOM
      1 C1        -23.8390   31.0160   20.3230 C.ar      1 QUE408      0.0000 
      2 C2        -23.1600   30.2280   19.4240 C.ar      1 QUE408      0.0000 
      3 C3        -23.4500   28.8510   19.3100 C.ar      1 QUE408      0.0000 
      4 C4        -24.4650   28.3310   20.1150 C.ar      1 QUE408      0.0000 
      5 C5        -25.1910   29.1010   21.0070 C.ar      1 QUE408      0.0000 
      6 C6        -24.8470   30.4440   21.1150 C.ar      1 QUE408      0.0000 
      7 C9        -22.7340   27.9800   18.4020 C.2       1 QUE408      0.0000 
      8 C10       -23.1250   26.6020   18.3960 C.2       1 QUE408      0.0000 
      9 C11       -24.1470   26.1480   19.1750 C.2       1 QUE408      0.0000 
     10 C14       -24.5590   24.7490   19.2960 C.ar      1 QUE408      0.0000 
     11 C15       -25.6930   24.4270   20.0390 C.ar      1 QUE408      0.0000 
     12 C16       -26.0160   23.1000   20.3040 C.ar      1 QUE408      0.0000 
     13 C17       -25.2510   22.0820   19.7820 C.ar      1 QUE408      0.0000 
     14 C18       -24.0700   22.3780   19.0890 C.ar      1 QUE408      0.0000 
     15 C19       -23.7200   23.6960   18.8640 C.ar      1 QUE408      0.0000 
     16 O12       -24.7970   27.0080   20.0370 O.3       1 QUE408      0.0000 
     17 O13       -21.7960   28.3650   17.6600 O.2       1 QUE408      0.0000 
     18 O23       -23.2980   21.3480   18.6180 O.3       1 QUE408      0.0000 
     19 O24       -25.6550   20.7860   19.9510 O.3       1 QUE408      0.0000 
     20 O27       -22.4530   25.8020   17.5420 O.co2     1 QUE408      0.0000 
     21 O29       -25.5150   31.2360   21.9810 O.3       1 QUE408      0.0000 
     22 O30       -22.1700   30.7440   18.6590 O.co2     1 QUE408      0.0000 
@<TRIPOS>BOND
     1    1    2 ar   
     2    1    6 ar   
     3    2    3 ar   
     4    2   22 ar   
     5    3    4 ar   
     6    3    7 1    
     7    4    5 ar   
     8    4   16 1    
     9    5    6 ar   
    10    6   21 1    
    11    7    8 1    
    12    7   17 2    
    13    8    9 2    
    14    8   20 ar   
    15    9   10 1    
    16    9   16 1    
    17   10   11 ar   
    18   10   15 ar   
    19   11   12 ar   
    20   12   13 ar   
    21   13   14 ar   
    22   13   19 1    
    23   14   15 ar   
    24   14   18 1    
@<TRIPOS>SUBSTRUCTURE
     1 QUE408      1 GROUP   
@<TRIPOS>SET

