#    Name: 6i6l_1_SAH_CAVITY_N1_ALL
#    Modification time : Fri May 22 19:28:55 2020

@<TRIPOS>MOLECULE
6i6l_1_SAH_CAVITY_N1_ALL
   70     0     6     0     0
SMALL
NO_CHARGES


@<TRIPOS>ATOM
      1 OG         12.8000  -18.2300   -0.1800 O.3       1 SER1        0.0000 
      2 OG         13.5700  -17.1300   -1.8200 O.3       1 SER1        0.0000 
      3 OG         13.6400  -18.5600   -1.3800 O.3       1 SER1        0.0000 
      4 OG         13.9600  -16.4900    0.1700 O.3       1 SER1        0.0000 
      5 OG         14.0400  -17.9300    0.6100 O.3       1 SER1        0.0000 
      6 N          12.0800   -3.7600    1.0200 N.am      2 ALA2        0.0000 
      7 N          12.1600   -5.1900    1.4600 N.am      2 ALA2        0.0000 
      8 N          12.2300   -6.6200    1.9000 N.am      2 ALA2        0.0000 
      9 N          12.4800   -3.1200    3.0000 N.am      2 ALA2        0.0000 
     10 N          12.5500   -4.5600    3.4500 N.am      2 ALA2        0.0000 
     11 N          13.3900   -4.8800    2.2500 N.am      2 ALA2        0.0000 
     12 N          13.4700   -6.3100    2.6900 N.am      2 ALA2        0.0000 
     13 NZ         13.1500   -8.3800    1.1500 N.4       3 LYS4        0.0000 
     14 NZ         13.2200   -9.8100    1.5900 N.4       3 LYS4        0.0000 
     15 NZ         12.6300   -5.9900    3.8900 N.4       3 LYS4        0.0000 
     16 NZ         12.7000   -7.4200    4.3300 N.4       3 LYS4        0.0000 
     17 NZ         14.3900   -8.0700    1.9300 N.4       3 LYS4        0.0000 
     18 NZ         15.3000   -9.8300    1.1800 N.4       3 LYS4        0.0000 
     19 NZ         16.1400  -10.1500   -0.0200 N.4       3 LYS4        0.0000 
     20 NZ         18.6000  -17.3300    1.7800 N.4       3 LYS4        0.0000 
     21 NZ         18.7700  -12.4000    2.4400 N.4       3 LYS4        0.0000 
     22 NZ         18.8500  -13.8300    2.8800 N.4       3 LYS4        0.0000 
     23 CZ         11.0700   -8.3600    1.5600 C.ar      4 PHE5        0.0000 
     24 CZ         11.1600   -2.0000    1.7800 C.ar      4 PHE5        0.0000 
     25 CZ         11.3900   -6.2900    3.1000 C.ar      4 PHE5        0.0000 
     26 CZ         11.4600   -7.7300    3.5400 C.ar      4 PHE5        0.0000 
     27 CZ         12.3000   -8.0500    2.3400 C.ar      4 PHE5        0.0000 
     28 CZ         12.3800   -9.4800    2.7800 C.ar      4 PHE5        0.0000 
     29 CZ         13.5400   -7.7400    3.1300 C.ar      4 PHE5        0.0000 
     30 CZ         13.6200   -9.1800    3.5700 C.ar      4 PHE5        0.0000 
     31 CZ         14.4600   -9.5000    2.3700 C.ar      4 PHE5        0.0000 
     32 CZ         14.5300  -10.9300    2.8200 C.ar      4 PHE5        0.0000 
     33 CZ         15.7700  -10.6300    3.6000 C.ar      4 PHE5        0.0000 
     34 CZ         15.8500  -12.0600    4.0400 C.ar      4 PHE5        0.0000 
     35 CZ         15.9200  -13.4900    4.4900 C.ar      4 PHE5        0.0000 
     36 CZ         17.1600  -13.1800    5.2700 C.ar      4 PHE5        0.0000 
     37 CZ         17.2400  -14.6100    5.7200 C.ar      4 PHE5        0.0000 
     38 CZ         18.0000  -13.5100    4.0800 C.ar      4 PHE5        0.0000 
     39 CA         12.4000  -18.8700   -2.1600 C.3       5 GLY6        0.0000 
     40 CA         12.8700  -19.6600    0.2600 C.3       5 GLY6        0.0000 
     41 CA         14.8100  -16.8200   -1.0300 C.3       5 GLY6        0.0000 
     42 CA         15.7200  -18.5800   -1.7900 C.3       5 GLY6        0.0000 
     43 CA         11.2400   -3.4300    2.2200 C.3       5 GLY6        0.0000 
     44 CA         11.3100   -4.8600    2.6600 C.3       5 GLY6        0.0000 
     45 CA         15.2000  -16.1900    0.9600 C.3       5 GLY6        0.0000 
     46 CA         15.2800  -17.6200    1.4000 C.3       5 GLY6        0.0000 
     47 CA         16.1200  -17.9400    0.2000 C.3       5 GLY6        0.0000 
     48 CA         15.3800  -11.2600    1.6200 C.3       5 GLY6        0.0000 
     49 CA         15.6000  -15.5500    2.9400 C.3       5 GLY6        0.0000 
     50 CA         16.5200  -17.3100    2.1900 C.3       5 GLY6        0.0000 
     51 CA         17.3600  -17.6400    0.9900 C.3       5 GLY6        0.0000 
     52 CA         14.7100   -6.0100    3.4800 C.3       5 GLY6        0.0000 
     53 CA         15.6200   -7.7600    2.7200 C.3       5 GLY6        0.0000 
     54 CA         16.0000  -14.9200    4.9300 C.3       5 GLY6        0.0000 
     55 CA         16.5400   -9.5200    1.9600 C.3       5 GLY6        0.0000 
     56 CA         16.6200  -10.9500    2.4100 C.3       5 GLY6        0.0000 
     57 CA         16.6900  -12.3800    2.8500 C.3       5 GLY6        0.0000 
     58 CA         16.7600  -13.8200    3.2900 C.3       5 GLY6        0.0000 
     59 CA         16.8400  -15.2500    3.7300 C.3       5 GLY6        0.0000 
     60 CA         17.3800   -9.8500    0.7700 C.3       5 GLY6        0.0000 
     61 CA         17.4600  -11.2800    1.2100 C.3       5 GLY6        0.0000 
     62 CA         17.5300  -12.7100    1.6500 C.3       5 GLY6        0.0000 
     63 CA         17.6800  -15.5700    2.5300 C.3       5 GLY6        0.0000 
     64 CA         18.3000  -11.6000    0.0100 C.3       5 GLY6        0.0000 
     65 CA         17.9300  -12.0800    3.6300 C.3       5 GLY6        0.0000 
     66 CA         18.7000  -10.9700    2.0000 C.3       5 GLY6        0.0000 
     67 DU         14.8800  -18.2500   -0.5900 H         6 CUB7        0.0000 
     68 DU         15.6700  -16.9900    3.3800 H         6 CUB7        0.0000 
     69 DU         17.7500  -17.0000    2.9700 H         6 CUB7        0.0000 
     70 DU         18.0800  -14.9400    4.5200 H         6 CUB7        0.0000 
@<TRIPOS>BOND
@<TRIPOS>SUBSTRUCTURE
     1 SER1        1 GROUP   
     2 ALA2        6 GROUP   
     3 LYS4       13 GROUP   
     4 PHE5       23 GROUP   
     5 GLY6       39 GROUP   
     6 CUB7       67 GROUP   
@<TRIPOS>SET

