#    Name: 6i6l_1_SAH
#    Modification time : Fri May 22 19:28:53 2020

@<TRIPOS>MOLECULE
6i6l_1_SAH
   26    28     1     0     0
SMALL
NO_CHARGES


@<TRIPOS>ATOM
      1 N          13.9300   -2.2990    0.7340 N.4       1 SAH402      0.0000 
      2 CA         12.4570   -2.5770    0.5890 C.3       1 SAH402      0.0000 
      3 CB         12.0470   -3.8920    1.2250 C.3       1 SAH402      0.0000 
      4 CG         12.1980   -3.9230    2.7240 C.3       1 SAH402      0.0000 
      5 SD         11.6130   -5.4610    3.4030 S.3       1 SAH402      0.0000 
      6 C          11.6450   -1.4430    1.1330 C.2       1 SAH402      0.0000 
      7 O          10.4390   -1.2920    0.8880 O.co2     1 SAH402      0.0000 
      8 OXT        12.2620   -0.5970    1.8660 O.co2     1 SAH402      0.0000 
      9 C5'        13.1220   -6.4240    3.5600 C.3       1 SAH402      0.0000 
     10 C4'        13.5130   -7.1160    2.2570 C.3       1 SAH402      0.0000 
     11 O4'        14.7020   -7.9030    2.5600 O.3       1 SAH402      0.0000 
     12 C3'        12.4820   -8.0980    1.7380 C.3       1 SAH402      0.0000 
     13 O3'        12.0610   -7.8170    0.4230 O.3       1 SAH402      0.0000 
     14 C2'        13.1820   -9.4480    1.8580 C.3       1 SAH402      0.0000 
     15 O2'        12.7500  -10.4560    0.9570 O.3       1 SAH402      0.0000 
     16 C1'        14.6430   -9.0120    1.7040 C.3       1 SAH402      0.0000 
     17 N9         15.6030  -10.0330    2.1430 N.pl3     1 SAH402      0.0000 
     18 C8         15.5270  -10.7490    3.3040 C.2       1 SAH402      0.0000 
     19 N7         16.6190  -11.5950    3.3640 N.2       1 SAH402      0.0000 
     20 C5         17.3110  -11.4270    2.2110 C.ar      1 SAH402      0.0000 
     21 C6         18.5010  -12.0050    1.6940 C.ar      1 SAH402      0.0000 
     22 N6         19.1580  -12.9630    2.3680 N.pl3     1 SAH402      0.0000 
     23 N1         18.9020  -11.5730    0.4940 N.ar      1 SAH402      0.0000 
     24 C2         18.2510  -10.6240   -0.1700 C.ar      1 SAH402      0.0000 
     25 N3         17.1310  -10.0170    0.2400 N.ar      1 SAH402      0.0000 
     26 C4         16.6940  -10.4510    1.4390 C.ar      1 SAH402      0.0000 
@<TRIPOS>BOND
     1    1    2 1    
     2    2    3 1    
     3    2    6 1    
     4    3    4 1    
     5    4    5 1    
     6    5    9 1    
     7    6    7 ar   
     8    6    8 ar   
     9    9   10 1    
    10   10   11 1    
    11   10   12 1    
    12   11   16 1    
    13   12   13 1    
    14   12   14 1    
    15   14   15 1    
    16   14   16 1    
    17   16   17 1    
    18   17   18 1    
    19   17   26 1    
    20   18   19 2    
    21   19   20 1    
    22   20   21 ar   
    23   20   26 ar   
    24   21   22 1    
    25   21   23 ar   
    26   23   24 ar   
    27   24   25 ar   
    28   25   26 ar   
@<TRIPOS>SUBSTRUCTURE
     1 SAH402      1 GROUP   
@<TRIPOS>SET

