#    Name: 6fa2_2_GNP
#    Modification time : Fri May 22 19:25:20 2020

@<TRIPOS>MOLECULE
6fa2_2_GNP
   32    34     1     0     1
SMALL
NO_CHARGES


@<TRIPOS>ATOM
      1 PG         31.8880   93.1620   10.1190 P.3       1 GNP202      0.0000 
      2 O1G        31.5110   91.8490    9.2560 O.co2     1 GNP202      0.0000 
      3 O2G        32.4510   92.8070   11.5800 O.co2     1 GNP202      0.0000 
      4 O3G        30.7050   94.0010   10.3440 O.co2     1 GNP202      0.0000 
      5 N3B        33.0040   94.1180    9.2740 N.3       1 GNP202      0.0000 
      6 PB         33.4710   95.6340    9.9400 P.3       1 GNP202      0.0000 
      7 O1B        32.4660   96.8600    9.7770 O.co2     1 GNP202      0.0000 
      8 O2B        33.9640   95.5150   11.3290 O.co2     1 GNP202      0.0000 
      9 O3A        34.6230   96.0070    8.8550 O.3       1 GNP202      0.0000 
     10 PA         36.1470   95.5090    9.0720 P.3       1 GNP202      0.0000 
     11 O1A        36.2680   93.9910    9.1340 O.co2     1 GNP202      0.0000 
     12 O2A        36.6240   96.3830   10.1920 O.co2     1 GNP202      0.0000 
     13 O5'        36.8290   96.0190    7.7250 O.3       1 GNP202      0.0000 
     14 C5'        36.2800   95.4640    6.5280 C.3       1 GNP202      0.0000 
     15 C4'        37.2190   95.6490    5.3530 C.3       1 GNP202      0.0000 
     16 O4'        37.4030   97.0190    4.9830 O.3       1 GNP202      0.0000 
     17 C3'        38.6260   95.1970    5.6670 C.3       1 GNP202      0.0000 
     18 O3'        39.0820   94.7310    4.4230 O.3       1 GNP202      0.0000 
     19 C2'        39.4300   96.4200    6.0540 C.3       1 GNP202      0.0000 
     20 O2'        40.8170   96.3840    5.7130 O.3       1 GNP202      0.0000 
     21 C1'        38.7730   97.4370    5.1670 C.3       1 GNP202      0.0000 
     22 N9         38.7940   98.7730    5.7290 N.pl3     1 GNP202      0.0000 
     23 C8         38.2510   99.1050    6.8780 C.2       1 GNP202      0.0000 
     24 N7         38.3810  100.4370    7.1120 N.2       1 GNP202      0.0000 
     25 C5         38.9940  100.9250    6.0730 C.2       1 GNP202      0.0000 
     26 C6         39.4040  102.2570    5.7340 C.2       1 GNP202      0.0000 
     27 O6         39.1710  103.1670    6.5370 O.2       1 GNP202      0.0000 
     28 N1         40.0110  102.4410    4.5730 N.am      1 GNP202      0.0000 
     29 C2         40.2680  101.3990    3.7400 C.2       1 GNP202      0.0000 
     30 N2         40.9260  101.6780    2.5810 N.pl3     1 GNP202      0.0000 
     31 N3         39.9040  100.1100    4.0080 N.2       1 GNP202      0.0000 
     32 C4         39.2740   99.8410    5.1520 C.2       1 GNP202      0.0000 
@<TRIPOS>BOND
     1    1    2 ar   
     2    1    3 ar   
     3    1    4 ar   
     4    1    5 1    
     5    5    6 1    
     6    6    7 ar   
     7    6    8 ar   
     8    6    9 1    
     9    9   10 1    
    10   10   11 ar   
    11   10   12 ar   
    12   10   13 1    
    13   13   14 1    
    14   14   15 1    
    15   15   16 1    
    16   15   17 1    
    17   16   21 1    
    18   17   18 1    
    19   17   19 1    
    20   19   20 1    
    21   19   21 1    
    22   21   22 1    
    23   22   23 1    
    24   22   32 1    
    25   23   24 2    
    26   24   25 1    
    27   25   26 1    
    28   25   32 2    
    29   26   27 2    
    30   26   28 am   
    31   28   29 1    
    32   29   30 1    
    33   29   31 2    
    34   31   32 1    
@<TRIPOS>SUBSTRUCTURE
     1 GNP202      1 GROUP   
@<TRIPOS>SET
ATOM$ORANGE STATIC     ATOMS   COLORGROUP SYSTEM 
20 14 14 15 15 17 17 19 19 21 21 23 23 25 25 26 26 29 \
29 32 32 

