#    Name: 6fa2_4_GNP
#    Modification time : Fri May 22 19:25:30 2020

@<TRIPOS>MOLECULE
6fa2_4_GNP
   32    34     1     0     1
SMALL
NO_CHARGES


@<TRIPOS>ATOM
      1 PG         40.0580  133.8220   11.4290 P.3       1 GNP202      0.0000 
      2 O1G        38.9110  134.7360   10.7910 O.co2     1 GNP202      0.0000 
      3 O2G        39.7680  133.5520   12.9810 O.co2     1 GNP202      0.0000 
      4 O3G        41.3980  134.4180   11.3040 O.co2     1 GNP202      0.0000 
      5 N3B        39.9450  132.3000   10.6080 N.3       1 GNP202      0.0000 
      6 PB         41.1480  131.1100   10.9490 P.3       1 GNP202      0.0000 
      7 O1B        42.5280  131.5520   10.2590 O.co2     1 GNP202      0.0000 
      8 O2B        41.2580  131.0120   12.4420 O.co2     1 GNP202      0.0000 
      9 O3A        40.7280  129.7160   10.2400 O.3       1 GNP202      0.0000 
     10 PA         39.5650  128.7470   10.8020 P.3       1 GNP202      0.0000 
     11 O1A        38.4690  129.6180   11.3380 O.co2     1 GNP202      0.0000 
     12 O2A        40.0970  127.6870   11.7290 O.co2     1 GNP202      0.0000 
     13 O5'        39.1830  127.9720    9.4650 O.3       1 GNP202      0.0000 
     14 C5'        38.5710  128.5680    8.3260 C.3       1 GNP202      0.0000 
     15 C4'        37.8500  127.4260    7.6180 C.3       1 GNP202      0.0000 
     16 O4'        38.8380  126.6100    6.9920 O.3       1 GNP202      0.0000 
     17 C3'        37.0470  126.4940    8.5330 C.3       1 GNP202      0.0000 
     18 O3'        35.7680  126.2220    7.9610 O.3       1 GNP202      0.0000 
     19 C2'        37.8530  125.2110    8.6160 C.3       1 GNP202      0.0000 
     20 O2'        37.1470  123.9730    8.5870 O.3       1 GNP202      0.0000 
     21 C1'        38.6090  125.2480    7.3300 C.3       1 GNP202      0.0000 
     22 N9         39.9200  124.6370    7.4810 N.pl3     1 GNP202      0.0000 
     23 C8         40.8890  125.0340    8.3140 C.2       1 GNP202      0.0000 
     24 N7         42.0010  124.2770    8.1610 N.2       1 GNP202      0.0000 
     25 C5         41.7220  123.3790    7.2120 C.2       1 GNP202      0.0000 
     26 C6         42.4410  122.2740    6.5480 C.2       1 GNP202      0.0000 
     27 O6         43.6160  121.9670    6.8390 O.2       1 GNP202      0.0000 
     28 N1         41.7690  121.6060    5.6020 N.am      1 GNP202      0.0000 
     29 C2         40.5110  121.9040    5.2360 C.2       1 GNP202      0.0000 
     30 N2         39.9430  121.1780    4.2750 N.pl3     1 GNP202      0.0000 
     31 N3         39.7960  122.8860    5.7920 N.2       1 GNP202      0.0000 
     32 C4         40.3470  123.6300    6.7620 C.2       1 GNP202      0.0000 
@<TRIPOS>BOND
     1    1    2 ar   
     2    1    3 ar   
     3    1    4 ar   
     4    1    5 1    
     5    5    6 1    
     6    6    7 ar   
     7    6    8 ar   
     8    6    9 1    
     9    9   10 1    
    10   10   11 ar   
    11   10   12 ar   
    12   10   13 1    
    13   13   14 1    
    14   14   15 1    
    15   15   16 1    
    16   15   17 1    
    17   16   21 1    
    18   17   18 1    
    19   17   19 1    
    20   19   20 1    
    21   19   21 1    
    22   21   22 1    
    23   22   23 1    
    24   22   32 1    
    25   23   24 2    
    26   24   25 1    
    27   25   26 1    
    28   25   32 2    
    29   26   27 2    
    30   26   28 am   
    31   28   29 1    
    32   29   30 1    
    33   29   31 2    
    34   31   32 1    
@<TRIPOS>SUBSTRUCTURE
     1 GNP202      1 GROUP   
@<TRIPOS>SET
ATOM$ORANGE STATIC     ATOMS   COLORGROUP SYSTEM 
20 14 14 15 15 17 17 19 19 21 21 23 23 25 25 26 26 29 \
29 32 32 

