#    Name: 6fa2_5_GNP
#    Modification time : Fri May 22 19:25:35 2020

@<TRIPOS>MOLECULE
6fa2_5_GNP
   32    34     1     0     1
SMALL
NO_CHARGES


@<TRIPOS>ATOM
      1 PG         35.9860   97.4590   58.2280 P.3       1 GNP202      0.0000 
      2 O1G        35.7120   98.0150   56.7700 O.co2     1 GNP202      0.0000 
      3 O2G        36.2180   96.0010   58.1110 O.co2     1 GNP202      0.0000 
      4 O3G        34.7320   97.7990   59.1720 O.co2     1 GNP202      0.0000 
      5 N3B        37.4020   98.2950   58.7790 N.3       1 GNP202      0.0000 
      6 PB         38.8260   98.2770   57.7780 P.3       1 GNP202      0.0000 
      7 O1B        38.4340   98.7410   56.4410 O.co2     1 GNP202      0.0000 
      8 O2B        39.5280   96.8460   57.7800 O.co2     1 GNP202      0.0000 
      9 O3A        39.8980   99.3190   58.3520 O.3       1 GNP202      0.0000 
     10 PA         39.7920  100.9130   58.0670 P.3       1 GNP202      0.0000 
     11 O1A        40.4650  101.2610   56.7760 O.co2     1 GNP202      0.0000 
     12 O2A        38.3530  101.3110   58.3980 O.co2     1 GNP202      0.0000 
     13 O5'        40.7930  101.5340   59.1830 O.3       1 GNP202      0.0000 
     14 C5'        40.3670  101.4130   60.5370 C.3       1 GNP202      0.0000 
     15 C4'        41.1180  102.3890   61.4040 C.3       1 GNP202      0.0000 
     16 O4'        42.4890  102.0520   61.3890 O.3       1 GNP202      0.0000 
     17 C3'        41.0240  103.8130   60.9220 C.3       1 GNP202      0.0000 
     18 O3'        40.9400  104.6320   62.0800 O.3       1 GNP202      0.0000 
     19 C2'        42.3250  104.0660   60.2010 C.3       1 GNP202      0.0000 
     20 O2'        42.7240  105.4540   60.1580 O.3       1 GNP202      0.0000 
     21 C1'        43.2660  103.1700   61.0000 C.3       1 GNP202      0.0000 
     22 N9         44.4030  102.6970   60.1890 N.pl3     1 GNP202      0.0000 
     23 C8         44.3030  101.9720   59.0640 C.2       1 GNP202      0.0000 
     24 N7         45.5230  101.7030   58.5860 N.2       1 GNP202      0.0000 
     25 C5         46.4090  102.2470   59.4160 C.2       1 GNP202      0.0000 
     26 C6         47.8800  102.3270   59.4620 C.2       1 GNP202      0.0000 
     27 O6         48.5450  101.7790   58.5620 O.2       1 GNP202      0.0000 
     28 N1         48.4590  102.9870   60.4870 N.am      1 GNP202      0.0000 
     29 C2         47.7020  103.5540   61.4720 C.2       1 GNP202      0.0000 
     30 N2         48.3360  104.1960   62.4640 N.pl3     1 GNP202      0.0000 
     31 N3         46.3300  103.5290   61.5000 N.2       1 GNP202      0.0000 
     32 C4         45.6670  102.9070   60.4900 C.2       1 GNP202      0.0000 
@<TRIPOS>BOND
     1    1    2 ar   
     2    1    3 ar   
     3    1    4 ar   
     4    1    5 1    
     5    5    6 1    
     6    6    7 ar   
     7    6    8 ar   
     8    6    9 1    
     9    9   10 1    
    10   10   11 ar   
    11   10   12 ar   
    12   10   13 1    
    13   13   14 1    
    14   14   15 1    
    15   15   16 1    
    16   15   17 1    
    17   16   21 1    
    18   17   18 1    
    19   17   19 1    
    20   19   20 1    
    21   19   21 1    
    22   21   22 1    
    23   22   23 1    
    24   22   32 1    
    25   23   24 2    
    26   24   25 1    
    27   25   26 1    
    28   25   32 2    
    29   26   27 2    
    30   26   28 am   
    31   28   29 1    
    32   29   30 1    
    33   29   31 2    
    34   31   32 1    
@<TRIPOS>SUBSTRUCTURE
     1 GNP202      1 GROUP   
@<TRIPOS>SET
ATOM$ORANGE STATIC     ATOMS   COLORGROUP SYSTEM 
20 14 14 15 15 17 17 19 19 21 21 23 23 25 25 26 26 29 \
29 32 32 

