#    Name: 6fa2_1_GNP
#    Modification time : Fri May 22 19:25:15 2020

@<TRIPOS>MOLECULE
6fa2_1_GNP
   32    34     1     0     1
SMALL
NO_CHARGES


@<TRIPOS>ATOM
      1 PG         69.7290  106.7550    2.0550 P.3       1 GNP202      0.0000 
      2 O1G        70.6210  107.3990    0.8750 O.co2     1 GNP202      0.0000 
      3 O2G        70.0970  107.1940    3.5540 O.co2     1 GNP202      0.0000 
      4 O3G        69.7540  105.2790    1.9660 O.co2     1 GNP202      0.0000 
      5 N3B        68.2300  107.5260    1.7290 N.3       1 GNP202      0.0000 
      6 PB         66.8580  107.1930    2.6920 P.3       1 GNP202      0.0000 
      7 O1B        66.4900  105.6410    2.3620 O.co2     1 GNP202      0.0000 
      8 O2B        67.1880  107.4430    4.0910 O.co2     1 GNP202      0.0000 
      9 O3A        65.7490  108.2440    2.2120 O.3       1 GNP202      0.0000 
     10 PA         65.5560  109.6730    2.9430 P.3       1 GNP202      0.0000 
     11 O1A        66.8490  110.4260    2.7610 O.co2     1 GNP202      0.0000 
     12 O2A        64.8980  109.4120    4.3180 O.co2     1 GNP202      0.0000 
     13 O5'        64.4520  110.3990    2.0100 O.3       1 GNP202      0.0000 
     14 C5'        64.7680  110.5040    0.6050 C.3       1 GNP202      0.0000 
     15 C4'        63.9970  111.6530    0.0290 C.3       1 GNP202      0.0000 
     16 O4'        62.7020  111.1240    0.0130 O.3       1 GNP202      0.0000 
     17 C3'        63.8910  112.8870    0.9260 C.3       1 GNP202      0.0000 
     18 O3'        63.9680  114.1140    0.2070 O.3       1 GNP202      0.0000 
     19 C2'        62.5460  112.8160    1.6320 C.3       1 GNP202      0.0000 
     20 O2'        61.9140  114.1020    1.7300 O.3       1 GNP202      0.0000 
     21 C1'        61.7610  111.9230    0.7140 C.3       1 GNP202      0.0000 
     22 N9         60.7900  111.0370    1.4050 N.pl3     1 GNP202      0.0000 
     23 C8         60.9930  110.0390    2.3200 C.2       1 GNP202      0.0000 
     24 N7         59.8220  109.4310    2.7030 N.2       1 GNP202      0.0000 
     25 C5         58.8670  110.0760    1.9950 C.2       1 GNP202      0.0000 
     26 C6         57.4020  110.0010    1.8540 C.2       1 GNP202      0.0000 
     27 O6         56.7460  109.1700    2.5120 O.2       1 GNP202      0.0000 
     28 N1         56.8130  110.8530    1.0090 N.am      1 GNP202      0.0000 
     29 C2         57.4720  111.7710    0.2650 C.2       1 GNP202      0.0000 
     30 N2         56.8060  112.6000   -0.5830 N.pl3     1 GNP202      0.0000 
     31 N3         58.7960  111.8980    0.3470 N.2       1 GNP202      0.0000 
     32 C4         59.5040  111.1090    1.1610 C.2       1 GNP202      0.0000 
@<TRIPOS>BOND
     1    1    2 ar   
     2    1    3 ar   
     3    1    4 ar   
     4    1    5 1    
     5    5    6 1    
     6    6    7 ar   
     7    6    8 ar   
     8    6    9 1    
     9    9   10 1    
    10   10   11 ar   
    11   10   12 ar   
    12   10   13 1    
    13   13   14 1    
    14   14   15 1    
    15   15   16 1    
    16   15   17 1    
    17   16   21 1    
    18   17   18 1    
    19   17   19 1    
    20   19   20 1    
    21   19   21 1    
    22   21   22 1    
    23   22   23 1    
    24   22   32 1    
    25   23   24 2    
    26   24   25 1    
    27   25   26 1    
    28   25   32 2    
    29   26   27 2    
    30   26   28 am   
    31   28   29 1    
    32   29   30 1    
    33   29   31 2    
    34   31   32 1    
@<TRIPOS>SUBSTRUCTURE
     1 GNP202      1 GROUP   
@<TRIPOS>SET
ATOM$ORANGE STATIC     ATOMS   COLORGROUP SYSTEM 
20 14 14 15 15 17 17 19 19 21 21 23 23 25 25 26 26 29 \
29 32 32 

