#    Name: 6fa2_3_GNP
#    Modification time : Fri May 22 19:25:25 2020

@<TRIPOS>MOLECULE
6fa2_3_GNP
   32    34     1     0     1
SMALL
NO_CHARGES


@<TRIPOS>ATOM
      1 PG         76.3620   92.4660   48.5030 P.3       1 GNP202      0.0000 
      2 O1G        75.9320   93.0030   47.0410 O.co2     1 GNP202      0.0000 
      3 O2G        77.6210   93.2030   48.7340 O.co2     1 GNP202      0.0000 
      4 O3G        76.4740   90.8520   48.5820 O.co2     1 GNP202      0.0000 
      5 N3B        75.0590   92.7460   49.6150 N.3       1 GNP202      0.0000 
      6 PB         73.9910   94.0990   49.4060 P.3       1 GNP202      0.0000 
      7 O1B        73.3800   94.0160   48.0470 O.co2     1 GNP202      0.0000 
      8 O2B        74.7960   95.4850   49.6790 O.co2     1 GNP202      0.0000 
      9 O3A        72.8550   93.9210   50.5270 O.3       1 GNP202      0.0000 
     10 PA         71.3780   93.4630   50.0960 P.3       1 GNP202      0.0000 
     11 O1A        70.8610   94.6500   49.2790 O.co2     1 GNP202      0.0000 
     12 O2A        71.3930   91.9930   49.6810 O.co2     1 GNP202      0.0000 
     13 O5'        70.6090   93.5470   51.4890 O.3       1 GNP202      0.0000 
     14 C5'        71.2250   92.9670   52.6240 C.3       1 GNP202      0.0000 
     15 C4'        70.1950   92.7320   53.7090 C.3       1 GNP202      0.0000 
     16 O4'        69.8640   93.9860   54.2650 O.3       1 GNP202      0.0000 
     17 C3'        68.9120   92.0860   53.2130 C.3       1 GNP202      0.0000 
     18 O3'        68.5750   91.0090   54.0860 O.3       1 GNP202      0.0000 
     19 C2'        67.8640   93.1900   53.2180 C.3       1 GNP202      0.0000 
     20 O2'        66.5830   92.7780   53.7150 O.3       1 GNP202      0.0000 
     21 C1'        68.4560   94.1800   54.1730 C.3       1 GNP202      0.0000 
     22 N9         68.3230   95.6060   53.8160 N.pl3     1 GNP202      0.0000 
     23 C8         68.8650   96.3210   52.8120 C.2       1 GNP202      0.0000 
     24 N7         68.5260   97.6480   52.9510 N.2       1 GNP202      0.0000 
     25 C5         67.7630   97.7630   54.0580 C.2       1 GNP202      0.0000 
     26 C6         67.0590   98.8010   54.8140 C.2       1 GNP202      0.0000 
     27 O6         67.0610  100.0060   54.4890 O.2       1 GNP202      0.0000 
     28 N1         66.4150   98.4330   55.9050 N.am      1 GNP202      0.0000 
     29 C2         66.3660   97.1670   56.3620 C.2       1 GNP202      0.0000 
     30 N2         65.6910   96.8160   57.4940 N.pl3     1 GNP202      0.0000 
     31 N3         66.9690   96.1850   55.7220 N.2       1 GNP202      0.0000 
     32 C4         67.6590   96.4240   54.6080 C.2       1 GNP202      0.0000 
@<TRIPOS>BOND
     1    1    2 ar   
     2    1    3 ar   
     3    1    4 ar   
     4    1    5 1    
     5    5    6 1    
     6    6    7 ar   
     7    6    8 ar   
     8    6    9 1    
     9    9   10 1    
    10   10   11 ar   
    11   10   12 ar   
    12   10   13 1    
    13   13   14 1    
    14   14   15 1    
    15   15   16 1    
    16   15   17 1    
    17   16   21 1    
    18   17   18 1    
    19   17   19 1    
    20   19   20 1    
    21   19   21 1    
    22   21   22 1    
    23   22   23 1    
    24   22   32 1    
    25   23   24 2    
    26   24   25 1    
    27   25   26 1    
    28   25   32 2    
    29   26   27 2    
    30   26   28 am   
    31   28   29 1    
    32   29   30 1    
    33   29   31 2    
    34   31   32 1    
@<TRIPOS>SUBSTRUCTURE
     1 GNP202      1 GROUP   
@<TRIPOS>SET
ATOM$ORANGE STATIC     ATOMS   COLORGROUP SYSTEM 
20 14 14 15 15 17 17 19 19 21 21 23 23 25 25 26 26 29 \
29 32 32 

