#    Name: 6dxz_1_27L
#    Modification time : Fri May 22 19:35:20 2020

@<TRIPOS>MOLECULE
6dxz_1_27L
   37    37     1     0     0
SMALL
NO_CHARGES


@<TRIPOS>ATOM
      1 CAA       -43.9560   25.7860   49.2830           1 27L206      0.0000 
      2 CAN       -43.4180   25.8630   50.7170           1 27L206      0.0000 
      3 CAB       -43.9960   27.1320   51.3450           1 27L206      0.0000 
      4 CAC       -41.8870   26.0410   50.6970           1 27L206      0.0000 
      5 CAK       -43.9000   24.6550   51.5640           1 27L206      0.0000 
      6 CAO       -43.1930   23.2900   51.3770           1 27L206      0.0000 
      7 CAD       -42.8300   23.0450   49.9080           1 27L206      0.0000 
      8 CAE       -41.9100   23.2510   52.2290           1 27L206      0.0000 
      9 CAM       -44.0850   22.1320   51.8900           1 27L206      0.0000 
     10 CAI       -44.6490   22.1950   53.1560           1 27L206      0.0000 
     11 CAG       -45.4420   21.1550   53.6220           1 27L206      0.0000 
     12 CAL       -45.6760   20.0430   52.8240           1 27L206      0.0000 
     13 OAF       -46.4770   18.9970   53.2920           1 27L206      0.0000 
     14 CAH       -45.1110   19.9730   51.5610           1 27L206      0.0000 
     15 CAJ       -44.3180   21.0090   51.0980           1 27L206      0.0000 
     16 H1        -44.4140   26.6130   49.0640           1 27L206      0.0000 
     17 H2        -43.2190   25.6520   48.6670           1 27L206      0.0000 
     18 H3        -44.5770   25.0440   49.2100           1 27L206      0.0000 
     19 H4        -43.5650   27.9100   50.9580           1 27L206      0.0000 
     20 H5        -43.8410   27.1180   52.3020           1 27L206      0.0000 
     21 H6        -44.9500   27.1720   51.1720           1 27L206      0.0000 
     22 H7        -41.6410   26.6410   49.9760           1 27L206      0.0000 
     23 H8        -41.5940   26.4150   51.5430           1 27L206      0.0000 
     24 H9        -41.4630   25.1790   50.5600           1 27L206      0.0000 
     25 H10       -44.8390   24.5200   51.3630           1 27L206      0.0000 
     26 H11       -43.8010   24.9020   52.4970           1 27L206      0.0000 
     27 H12       -42.3390   23.8070   49.5640           1 27L206      0.0000 
     28 H13       -43.6420   22.9240   49.3900           1 27L206      0.0000 
     29 H14       -42.2810   22.2490   49.8390           1 27L206      0.0000 
     30 H15       -42.1170   22.9030   53.1100           1 27L206      0.0000 
     31 H16       -41.2550   22.6770   51.8010           1 27L206      0.0000 
     32 H17       -41.5490   24.1480   52.3120           1 27L206      0.0000 
     33 H18       -44.4940   22.9370   53.6960           1 27L206      0.0000 
     34 H19       -45.8190   21.2030   54.4710           1 27L206      0.0000 
     35 H20       -46.8350   18.5980   52.6330           1 27L206      0.0000 
     36 H21       -45.2650   19.2300   51.0230           1 27L206      0.0000 
     37 H22       -43.9370   20.9550   50.2520           1 27L206      0.0000 
@<TRIPOS>BOND
     1    1    2 du   
     2    1   16 1    
     3    1   17 1    
     4    1   18 1    
     5    2    3 du   
     6    2    4 du   
     7    2    5 du   
     8    3   19 1    
     9    3   20 1    
    10    3   21 1    
    11    4   22 1    
    12    4   23 1    
    13    4   24 1    
    14    5    6 du   
    15    5   25 1    
    16    5   26 1    
    17    6    7 du   
    18    6    8 du   
    19    6    9 du   
    20    7   27 1    
    21    7   28 1    
    22    7   29 1    
    23    8   30 1    
    24    8   31 1    
    25    8   32 1    
    26    9   10 du   
    27    9   15 du   
    28   10   11 du   
    29   11   12 du   
    30   10   33 1    
    31   12   13 du   
    32   11   34 1    
    33   12   14 du   
    34   13   35 1    
    35   14   15 du   
    36   14   36 1    
    37   15   37 1    
@<TRIPOS>SUBSTRUCTURE
     1 27L206      1 GROUP   
@<TRIPOS>SET

