#    Name: 6cpf_1_ACP
#    Modification time : Fri May 22 19:36:33 2020

@<TRIPOS>MOLECULE
6cpf_1_ACP
   44    46     1     0     1
SMALL
NO_CHARGES


@<TRIPOS>ATOM
      1 PG         24.1450    1.3090   61.1710 P.3       1 ACP501      0.0000 
      2 O1G        23.7260    1.1690   59.7360 O.co2     1 ACP501      0.0000 
      3 O2G        22.9140    1.5390   62.0580 O.co2     1 ACP501      0.0000 
      4 O3G        24.8690    0.0340   61.6060 O.co2     1 ACP501      0.0000 
      5 PB         26.4280    2.5230   62.7460 P.3       1 ACP501      0.0000 
      6 O1B        27.8000    2.2900   62.2030 O.co2     1 ACP501      0.0000 
      7 O2B        26.0070    1.3550   63.5610 O.co2     1 ACP501      0.0000 
      8 C3B        25.2660    2.7590   61.3210 C.3       1 ACP501      0.0000 
      9 PA         27.6330    4.9420   63.9020 P.3       1 ACP501      0.0000 
     10 O1A        28.8770    4.4310   63.2900 O.co2     1 ACP501      0.0000 
     11 O2A        27.8510    5.1720   65.3490 O.co2     1 ACP501      0.0000 
     12 O3A        26.4000    3.8850   63.7030 O.3       1 ACP501      0.0000 
     13 O5'        27.1880    6.3660   63.1480 O.3       1 ACP501      0.0000 
     14 C5'        27.1760    6.4060   61.7320 C.3       1 ACP501      0.0000 
     15 C4'        27.8580    7.7080   61.2510 C.3       1 ACP501      0.0000 
     16 O4'        27.2920    8.7430   61.7940 O.3       1 ACP501      0.0000 
     17 C3'        29.3450    7.7620   61.7230 C.3       1 ACP501      0.0000 
     18 O3'        30.1760    7.2000   60.8100 O.3       1 ACP501      0.0000 
     19 C2'        29.5890    9.2560   61.8550 C.3       1 ACP501      0.0000 
     20 O2'        29.8770    9.8730   60.5010 O.3       1 ACP501      0.0000 
     21 C1'        28.4520    9.7460   62.3140 C.3       1 ACP501      0.0000 
     22 N9         28.4430    9.8070   63.7690 N.pl3     1 ACP501      0.0000 
     23 C8         28.0530    8.8290   64.6220 C.2       1 ACP501      0.0000 
     24 N7         28.1940    9.2890   65.8830 N.2       1 ACP501      0.0000 
     25 C5         28.6650   10.5390   65.8140 C.ar      1 ACP501      0.0000 
     26 C6         28.9850   11.4520   66.7950 C.ar      1 ACP501      0.0000 
     27 N6         28.9510   11.4520   68.3120 N.pl3     1 ACP501      0.0000 
     28 N1         29.4470   12.6620   66.4710 N.ar      1 ACP501      0.0000 
     29 C2         29.6030   12.9940   65.1570 C.ar      1 ACP501      0.0000 
     30 N3         29.2830   12.0870   64.1760 N.ar      1 ACP501      0.0000 
     31 C4         28.8180   10.8660   64.5030 C.ar      1 ACP501      0.0000 
     32 H3B1       25.7800    2.8540   60.5030 H         1 ACP501      0.0000 
     33 H3B2       24.7390    3.5590   61.4680 H         1 ACP501      0.0000 
     34 H5'1       26.2600    6.3850   61.4140 H         1 ACP501      0.0000 
     35 H5'2       27.6580    5.6400   61.3820 H         1 ACP501      0.0000 
     36 H4'        27.8150    7.7640   60.2840 H         1 ACP501      0.0000 
     37 H3'        29.4780    7.3030   62.5680 H         1 ACP501      0.0000 
     38 H2'        30.3210    9.4150   62.4710 H         1 ACP501      0.0000 
     39 HO2'       30.1770   10.6620   60.6060 H         1 ACP501      0.0000 
     40 H1'        28.3250   10.6360   61.9490 H         1 ACP501      0.0000 
     41 H8         27.7420    7.9870   64.3800 H         1 ACP501      0.0000 
     42 HN61       28.3770   10.9650   68.7280 H         1 ACP501      0.0000 
     43 HN62       29.5050   11.9400   68.7530 H         1 ACP501      0.0000 
     44 H2         29.9250   13.8350   64.9250 H         1 ACP501      0.0000 
@<TRIPOS>BOND
     1    1    2 ar   
     2    1    3 ar   
     3    1    4 ar   
     4    1    8 1    
     5    5    6 ar   
     6    5    7 ar   
     7    5    8 1    
     8    5   12 1    
     9    8   32 1    
    10    8   33 1    
    11    9   10 ar   
    12    9   11 ar   
    13    9   12 1    
    14    9   13 1    
    15   13   14 1    
    16   14   15 1    
    17   14   34 1    
    18   14   35 1    
    19   15   16 1    
    20   15   17 1    
    21   15   36 1    
    22   16   21 1    
    23   17   18 1    
    24   17   19 1    
    25   17   37 1    
    26   19   20 1    
    27   19   21 1    
    28   19   38 1    
    29   21   40 1    
    30   21   22 1    
    31   20   39 1    
    32   22   23 1    
    33   22   31 1    
    34   23   24 2    
    35   24   25 1    
    36   23   41 1    
    37   25   26 ar   
    38   25   31 ar   
    39   26   27 1    
    40   26   28 ar   
    41   28   29 ar   
    42   27   42 1    
    43   27   43 1    
    44   29   30 ar   
    45   30   31 ar   
    46   29   44 1    
@<TRIPOS>SUBSTRUCTURE
     1 ACP501      1 GROUP   
@<TRIPOS>SET
ATOM$ORANGE STATIC     ATOMS   COLORGROUP SYSTEM 
22 8 8 14 14 15 15 17 17 19 19 21 21 23 23 25 25 26 \
26 29 29 31 31 

