#    Name: 6jbd_1_ATP_CAVITY_N1_8
#    Modification time : Fri May 22 19:27:23 2020

@<TRIPOS>MOLECULE
6jbd_1_ATP_CAVITY_N1_8
   66     0     7     0     0
SMALL
NO_CHARGES


@<TRIPOS>ATOM
      1 OG        -47.2700   52.5200   43.6700 O.3       1 SER1        0.0000 
      2 OG        -47.1600   53.8800   43.0600 O.3       1 SER1        0.0000 
      3 N         -53.5400   51.2500   39.7600 N.am      2 ALA2        0.0000 
      4 N         -53.4300   52.6200   39.1500 N.am      2 ALA2        0.0000 
      5 N         -56.2400   53.2300   40.0000 N.am      2 ALA2        0.0000 
      6 N         -50.2100   51.1900   40.2100 N.am      2 ALA2        0.0000 
      7 N         -51.7300   50.1300   41.2500 N.am      2 ALA2        0.0000 
      8 N         -51.6200   51.4900   40.6300 N.am      2 ALA2        0.0000 
      9 N         -53.1300   50.4400   41.6800 N.am      2 ALA2        0.0000 
     10 N         -53.0200   51.8000   41.0600 N.am      2 ALA2        0.0000 
     11 N         -54.3200   53.4700   40.8700 N.am      2 ALA2        0.0000 
     12 O         -50.8900   54.7700   40.7000 O.2       2 ALA2        0.0000 
     13 O         -47.5600   54.7000   41.1400 O.2       2 ALA2        0.0000 
     14 O         -48.9700   55.0100   41.5700 O.2       2 ALA2        0.0000 
     15 N         -48.6700   52.8200   44.1000 N.am      2 ALA2        0.0000 
     16 OD1       -53.6500   49.8900   40.3800 O.co2     3 ASP3        0.0000 
     17 OD1       -45.6400   54.9400   42.0100 O.co2     3 ASP3        0.0000 
     18 OD1       -47.0500   55.2500   42.4400 O.co2     3 ASP3        0.0000 
     19 NZ        -48.1900   52.7900   40.4600 N.4       4 LYS4        0.0000 
     20 NZ        -49.7000   51.7300   41.5000 N.4       4 LYS4        0.0000 
     21 NZ        -46.2700   53.0300   41.3300 N.4       4 LYS4        0.0000 
     22 NZ        -47.7800   51.9700   42.3800 N.4       4 LYS4        0.0000 
     23 NZ        -47.6700   53.3400   41.7600 N.4       4 LYS4        0.0000 
     24 CZ        -55.1000   55.6800   41.9900 C.ar      5 PHE5        0.0000 
     25 CZ        -54.5900   56.2300   43.2800 C.ar      5 PHE5        0.0000 
     26 CZ        -48.4500   55.5500   42.8700 C.ar      5 PHE5        0.0000 
     27 CZ        -49.8600   55.8600   43.3000 C.ar      5 PHE5        0.0000 
     28 CZ        -51.2600   56.1600   43.7300 C.ar      5 PHE5        0.0000 
     29 CZ        -52.6700   56.4700   44.1600 C.ar      5 PHE5        0.0000 
     30 CZ        -54.0700   56.7700   44.5800 C.ar      5 PHE5        0.0000 
     31 CZ        -48.0500   54.7300   44.7900 C.ar      5 PHE5        0.0000 
     32 CZ        -52.2600   55.6500   46.0700 C.ar      5 PHE5        0.0000 
     33 CZ        -52.1500   57.0100   45.4500 C.ar      5 PHE5        0.0000 
     34 CA        -54.7300   54.2900   38.9600 C.3       6 GLY6        0.0000 
     35 CA        -52.9100   53.1600   40.4500 C.3       6 GLY6        0.0000 
     36 CA        -52.8100   54.5300   39.8300 C.3       6 GLY6        0.0000 
     37 CA        -55.6100   55.1400   40.6900 C.3       6 GLY6        0.0000 
     38 CA        -49.5900   53.1000   40.8900 C.3       6 GLY6        0.0000 
     39 CA        -51.0000   53.4000   41.3200 C.3       6 GLY6        0.0000 
     40 CA        -52.6200   50.9800   42.9800 C.3       6 GLY6        0.0000 
     41 CA        -52.2900   55.0700   41.1300 C.3       6 GLY6        0.0000 
     42 CA        -53.7000   55.3800   41.5600 C.3       6 GLY6        0.0000 
     43 CA        -50.5900   52.5800   43.2300 C.3       6 GLY6        0.0000 
     44 CA        -50.3700   55.3100   42.0000 C.3       6 GLY6        0.0000 
     45 CA        -51.9900   52.8900   43.6600 C.3       6 GLY6        0.0000 
     46 CA        -51.8900   54.2500   43.0400 C.3       6 GLY6        0.0000 
     47 CA        -51.7800   55.6200   42.4300 C.3       6 GLY6        0.0000 
     48 CA        -53.2900   54.5600   43.4700 C.3       6 GLY6        0.0000 
     49 CA        -53.1800   55.9200   42.8600 C.3       6 GLY6        0.0000 
     50 CA        -50.0700   53.1300   44.5300 C.3       6 GLY6        0.0000 
     51 CA        -49.9700   54.4900   43.9200 C.3       6 GLY6        0.0000 
     52 CA        -51.3700   54.8000   44.3400 C.3       6 GLY6        0.0000 
     53 CA        -52.7800   55.1000   44.7700 C.3       6 GLY6        0.0000 
     54 CA        -46.6400   54.4300   44.3600 C.3       6 GLY6        0.0000 
     55 CA        -53.5600   57.3200   45.8800 C.3       6 GLY6        0.0000 
     56 DU        -54.2100   54.8300   40.2600 H         7 CUB7        0.0000 
     57 DU        -51.2100   50.6800   42.5500 H         7 CUB7        0.0000 
     58 DU        -51.1000   52.0400   41.9300 H         7 CUB7        0.0000 
     59 DU        -52.5100   52.3400   42.3600 H         7 CUB7        0.0000 
     60 DU        -52.4000   53.7100   41.7500 H         7 CUB7        0.0000 
     61 DU        -53.9100   52.6500   42.7900 H         7 CUB7        0.0000 
     62 DU        -53.8000   54.0100   42.1700 H         7 CUB7        0.0000 
     63 DU        -49.1800   52.2800   42.8000 H         7 CUB7        0.0000 
     64 DU        -49.0800   53.6400   42.1900 H         7 CUB7        0.0000 
     65 DU        -50.4800   53.9500   42.6200 H         7 CUB7        0.0000 
     66 DU        -48.5600   54.1900   43.4900 H         7 CUB7        0.0000 
@<TRIPOS>BOND
@<TRIPOS>SUBSTRUCTURE
     1 SER1        1 GROUP   
     2 ALA2        3 GROUP   
     3 ASP3       16 GROUP   
     4 LYS4       19 GROUP   
     5 PHE5       24 GROUP   
     6 GLY6       34 GROUP   
     7 CUB7       56 GROUP   
@<TRIPOS>SET

