#    Name: 6jbd_1_ATP
#    Modification time : Fri May 22 19:27:21 2020

@<TRIPOS>MOLECULE
6jbd_1_ATP
   22    22     1     0     1
SMALL
NO_CHARGES


@<TRIPOS>ATOM
      1 PG        -50.4360   48.2680   38.0230 P.3       1 ATP406      0.0000 
      2 O1G       -49.9010   48.8820   36.6650 O.co2     1 ATP406      0.0000 
      3 O2G       -49.9330   49.1320   39.1730 O.co2     1 ATP406      0.0000 
      4 O3G       -52.0260   48.2440   38.0310 O.co2     1 ATP406      0.0000 
      5 PB        -49.9870   45.7440   39.4440 P.3       1 ATP406      0.0000 
      6 O1B       -49.1000   44.4550   39.2040 O.co2     1 ATP406      0.0000 
      7 O2B       -51.4130   45.3020   39.6110 O.co2     1 ATP406      0.0000 
      8 O3B       -49.8270   46.7750   38.2120 O.3       1 ATP406      0.0000 
      9 PA        -50.1320   46.7040   42.2370 P.3       1 ATP406      0.0000 
     10 O1A       -50.3060   45.2760   42.8830 O.co2     1 ATP406      0.0000 
     11 O2A       -49.2320   47.5440   43.1300 O.co2     1 ATP406      0.0000 
     12 O3A       -49.4520   46.5440   40.7720 O.3       1 ATP406      0.0000 
     13 O5'       -51.5440   47.5280   42.1340 O.3       1 ATP406      0.0000 
     14 C5'       -52.7240   46.8070   42.6070 C.3       1 ATP406      0.0000 
     15 C4'       -52.6880   46.7660   44.1650 C.3       1 ATP406      0.0000 
     16 O4'       -52.8680   48.0630   44.6700 O.3       1 ATP406      0.0000 
     17 C3'       -53.8340   45.9060   44.7080 C.3       1 ATP406      0.0000 
     18 O3'       -53.4130   45.2370   45.9000 O.3       1 ATP406      0.0000 
     19 C2'       -54.9620   46.9140   45.0650 C.3       1 ATP406      0.0000 
     20 O2'       -55.7560   46.5430   46.1610 O.3       1 ATP406      0.0000 
     21 C1'       -54.0380   48.1180   45.4720 C.3       1 ATP406      0.0000 
     22 N9        -54.6580   49.4170   45.3470 N.pl3     1 ATP406      0.0000 
@<TRIPOS>BOND
     1    1    2 ar   
     2    1    3 ar   
     3    1    4 ar   
     4    1    8 1    
     5    5    6 ar   
     6    5    7 ar   
     7    5    8 1    
     8    5   12 1    
     9    9   10 ar   
    10    9   11 ar   
    11    9   12 1    
    12    9   13 1    
    13   13   14 1    
    14   14   15 1    
    15   15   16 1    
    16   15   17 1    
    17   16   21 1    
    18   17   18 1    
    19   17   19 1    
    20   19   20 1    
    21   19   21 1    
    22   21   22 1    
@<TRIPOS>SUBSTRUCTURE
     1 ATP406      1 GROUP   
@<TRIPOS>SET
ATOM$ORANGE STATIC     ATOMS   COLORGROUP SYSTEM 
10 14 14 15 15 17 17 19 19 21 21 

