#    Name: 6jbd_1_ATP_CAVITY_N1_6
#    Modification time : Fri May 22 19:27:23 2020

@<TRIPOS>MOLECULE
6jbd_1_ATP_CAVITY_N1_6
   33     0     6     0     0
SMALL
NO_CHARGES


@<TRIPOS>ATOM
      1 OG        -47.2700   52.5200   43.6700 O.3       1 SER1        0.0000 
      2 N         -53.5400   51.2500   39.7600 N.am      2 ALA2        0.0000 
      3 N         -53.4300   52.6200   39.1500 N.am      2 ALA2        0.0000 
      4 N         -50.2100   51.1900   40.2100 N.am      2 ALA2        0.0000 
      5 N         -51.7300   50.1300   41.2500 N.am      2 ALA2        0.0000 
      6 N         -51.6200   51.4900   40.6300 N.am      2 ALA2        0.0000 
      7 N         -53.1300   50.4400   41.6800 N.am      2 ALA2        0.0000 
      8 N         -53.0200   51.8000   41.0600 N.am      2 ALA2        0.0000 
      9 O         -50.8900   54.7700   40.7000 O.2       2 ALA2        0.0000 
     10 N         -48.6700   52.8200   44.1000 N.am      2 ALA2        0.0000 
     11 OD1       -53.6500   49.8900   40.3800 O.co2     3 ASP3        0.0000 
     12 NZ        -48.1900   52.7900   40.4600 N.4       4 LYS4        0.0000 
     13 NZ        -49.7000   51.7300   41.5000 N.4       4 LYS4        0.0000 
     14 NZ        -46.2700   53.0300   41.3300 N.4       4 LYS4        0.0000 
     15 NZ        -47.7800   51.9700   42.3800 N.4       4 LYS4        0.0000 
     16 NZ        -47.6700   53.3400   41.7600 N.4       4 LYS4        0.0000 
     17 CA        -52.9100   53.1600   40.4500 C.3       5 GLY6        0.0000 
     18 CA        -49.5900   53.1000   40.8900 C.3       5 GLY6        0.0000 
     19 CA        -51.0000   53.4000   41.3200 C.3       5 GLY6        0.0000 
     20 CA        -52.6200   50.9800   42.9800 C.3       5 GLY6        0.0000 
     21 CA        -50.5900   52.5800   43.2300 C.3       5 GLY6        0.0000 
     22 CA        -51.9900   52.8900   43.6600 C.3       5 GLY6        0.0000 
     23 CA        -53.2900   54.5600   43.4700 C.3       5 GLY6        0.0000 
     24 CA        -50.0700   53.1300   44.5300 C.3       5 GLY6        0.0000 
     25 DU        -51.2100   50.6800   42.5500 H         6 CUB7        0.0000 
     26 DU        -51.1000   52.0400   41.9300 H         6 CUB7        0.0000 
     27 DU        -52.5100   52.3400   42.3600 H         6 CUB7        0.0000 
     28 DU        -52.4000   53.7100   41.7500 H         6 CUB7        0.0000 
     29 DU        -53.9100   52.6500   42.7900 H         6 CUB7        0.0000 
     30 DU        -53.8000   54.0100   42.1700 H         6 CUB7        0.0000 
     31 DU        -49.1800   52.2800   42.8000 H         6 CUB7        0.0000 
     32 DU        -49.0800   53.6400   42.1900 H         6 CUB7        0.0000 
     33 DU        -50.4800   53.9500   42.6200 H         6 CUB7        0.0000 
@<TRIPOS>BOND
@<TRIPOS>SUBSTRUCTURE
     1 SER1        1 GROUP   
     2 ALA2        2 GROUP   
     3 ASP3       11 GROUP   
     4 LYS4       12 GROUP   
     5 GLY6       17 GROUP   
     6 CUB7       25 GROUP   
@<TRIPOS>SET

