#    Name: 6nbw_1_LAB
#    Modification time : Fri May 22 19:41:10 2020

@<TRIPOS>MOLECULE
6nbw_1_LAB
   56    58     1     0     0
SMALL
NO_CHARGES


@<TRIPOS>ATOM
      1 O5        -14.7120  -25.3210   11.9890 O.2       1 LAB403      0.0000 
      2 C18       -15.6780  -26.0220   12.0330 C.2       1 LAB403      0.0000 
      3 N1        -16.5900  -26.0480   13.0990 N.am      1 LAB403      0.0000 
      4 C16       -17.6550  -27.3660   12.9260 C.3       1 LAB403      0.0000 
      5 C17       -17.5390  -27.8340   11.5500 C.3       1 LAB403      0.0000 
      6 S1        -16.1680  -27.0980   10.8870 S.3       1 LAB403      0.0000 
      7 C15       -17.3570  -28.4190   13.8810 C.3       1 LAB403      0.0000 
      8 O4        -16.1350  -29.0480   13.5810 O.3       1 LAB403      0.0000 
      9 C14       -17.2050  -27.8420   15.2730 C.3       1 LAB403      0.0000 
     10 C13       -17.2440  -28.8400   16.3640 C.3       1 LAB403      0.0000 
     11 O2        -16.0320  -29.6780   16.3160 O.3       1 LAB403      0.0000 
     12 C12       -18.4600  -29.7700   16.2940 C.3       1 LAB403      0.0000 
     13 C11       -18.3910  -30.4920   14.8350 C.3       1 LAB403      0.0000 
     14 O3        -18.4520  -29.4040   13.7730 O.3       1 LAB403      0.0000 
     15 C10       -19.4020  -31.4090   14.6860 C.3       1 LAB403      0.0000 
     16 C9        -19.1250  -32.3350   13.4000 C.3       1 LAB403      0.0000 
     17 C8        -17.8350  -33.1910   13.5410 C.3       1 LAB403      0.0000 
     18 C20       -17.7650  -34.1760   12.3820 C.3       1 LAB403      0.0000 
     19 C7        -17.8490  -33.9730   14.8370 C.2       1 LAB403      0.0000 
     20 C6        -16.7390  -33.7980   15.9450 C.2       1 LAB403      0.0000 
     21 C5        -15.5420  -32.8080   15.8010 C.3       1 LAB403      0.0000 
     22 C4        -15.2060  -32.3010   17.2730 C.3       1 LAB403      0.0000 
     23 C3        -13.8200  -31.5850   17.3280 C.2       1 LAB403      0.0000 
     24 C19       -12.5510  -32.4260   17.5140 C.3       1 LAB403      0.0000 
     25 C2        -13.6870  -30.0570   17.2160 C.2       1 LAB403      0.0000 
     26 C1        -14.9150  -29.1140   17.0390 C.2       1 LAB403      0.0000 
     27 O1        -14.9360  -28.0060   17.4600 O.2       1 LAB403      0.0000 
     28 HN1       -16.6120  -25.3890   13.8500 H         1 LAB403      0.0000 
     29 H16       -18.6610  -27.0110   13.0770 H         1 LAB403      0.0000 
     30 H171      -17.4160  -28.9120   11.5400 H         1 LAB403      0.0000 
     31 H172      -18.4190  -27.5430   10.9890 H         1 LAB403      0.0000 
     32 HO4       -15.6790  -28.5670   12.9200 H         1 LAB403      0.0000 
     33 H141      -18.0000  -27.1380   15.4330 H         1 LAB403      0.0000 
     34 H142      -16.2630  -27.3280   15.3230 H         1 LAB403      0.0000 
     35 H13       -17.2680  -28.2990   17.2890 H         1 LAB403      0.0000 
     36 H121      -19.3880  -29.1880   16.3860 H         1 LAB403      0.0000 
     37 H122      -18.4080  -30.5220   17.0930 H         1 LAB403      0.0000 
     38 H11       -17.4600  -31.0280   14.7310 H         1 LAB403      0.0000 
     39 H101      -20.3410  -30.8880   14.5560 H         1 LAB403      0.0000 
     40 H102      -19.4540  -32.0310   15.5700 H         1 LAB403      0.0000 
     41 H91       -19.9700  -33.0010   13.2640 H         1 LAB403      0.0000 
     42 H92       -19.0250  -31.6970   12.5290 H         1 LAB403      0.0000 
     43 H8        -16.9880  -32.5360   13.5370 H         1 LAB403      0.0000 
     44 H201      -16.9270  -34.8470   12.5280 H         1 LAB403      0.0000 
     45 H202      -18.6830  -34.7500   12.3390 H         1 LAB403      0.0000 
     46 H203      -17.6350  -33.6340   11.4540 H         1 LAB403      0.0000 
     47 H7        -18.6530  -34.6800   15.0110 H         1 LAB403      0.0000 
     48 H6        -16.8110  -34.3890   16.8420 H         1 LAB403      0.0000 
     49 H51       -14.6870  -33.3130   15.3740 H         1 LAB403      0.0000 
     50 H52       -15.8190  -31.9740   15.1720 H         1 LAB403      0.0000 
     51 H41       -15.1890  -33.1500   17.9420 H         1 LAB403      0.0000 
     52 H42       -15.9720  -31.6080   17.5890 H         1 LAB403      0.0000 
     53 H191      -11.8160  -32.1410   16.7700 H         1 LAB403      0.0000 
     54 H192      -12.7930  -33.4760   17.4000 H         1 LAB403      0.0000 
     55 H193      -12.1460  -32.2550   18.5050 H         1 LAB403      0.0000 
     56 H2        -12.7000  -29.6170   17.2610 H         1 LAB403      0.0000 
@<TRIPOS>BOND
     1    1    2 2    
     2    2    3 am   
     3    2    6 1    
     4    3    4 1    
     5    3   28 1    
     6    4    5 1    
     7    4    7 1    
     8    4   29 1    
     9    5    6 1    
    10    5   30 1    
    11    5   31 1    
    12    7    8 1    
    13    7    9 1    
    14    7   14 1    
    15    8   32 1    
    16    9   10 1    
    17    9   33 1    
    18    9   34 1    
    19   10   11 1    
    20   10   12 1    
    21   10   35 1    
    22   11   26 1    
    23   12   13 1    
    24   12   36 1    
    25   12   37 1    
    26   13   14 1    
    27   13   15 1    
    28   13   38 1    
    29   15   16 1    
    30   15   39 1    
    31   15   40 1    
    32   16   17 1    
    33   16   41 1    
    34   16   42 1    
    35   17   18 1    
    36   17   19 1    
    37   17   43 1    
    38   18   44 1    
    39   18   45 1    
    40   18   46 1    
    41   19   20 2    
    42   19   47 1    
    43   20   21 1    
    44   20   48 1    
    45   21   22 1    
    46   21   49 1    
    47   21   50 1    
    48   22   23 1    
    49   22   51 1    
    50   22   52 1    
    51   23   24 1    
    52   23   25 2    
    53   24   53 1    
    54   24   54 1    
    55   24   55 1    
    56   25   26 1    
    57   25   56 1    
    58   26   27 2    
@<TRIPOS>SUBSTRUCTURE
     1 LAB403      1 GROUP   
@<TRIPOS>SET

