#    Name: 6nbw_2_SOP
#    Modification time : Fri May 22 19:41:13 2020

@<TRIPOS>MOLECULE
6nbw_2_SOP
   88    90     1     0     0
SMALL
NO_CHARGES


@<TRIPOS>ATOM
      1 N6        -31.2270  -45.6270   65.8950 N.pl3     1 SOP400      0.0000 
      2 C6        -30.4780  -45.6790   67.1370 C.ar      1 SOP400      0.0000 
      3 N1        -31.0850  -44.9100   68.0270 N.ar      1 SOP400      0.0000 
      4 C2        -30.5760  -44.7840   69.2760 C.ar      1 SOP400      0.0000 
      5 N3        -29.4440  -45.4410   69.6170 N.ar      1 SOP400      0.0000 
      6 C4        -28.8200  -46.2280   68.7150 C.ar      1 SOP400      0.0000 
      7 C5        -29.3250  -46.3510   67.4770 C.ar      1 SOP400      0.0000 
      8 N7        -28.5360  -47.1760   66.7650 N.2       1 SOP400      0.0000 
      9 C8        -27.5290  -47.5760   67.5500 C.2       1 SOP400      0.0000 
     10 N9        -27.7190  -46.9980   68.7340 N.pl3     1 SOP400      0.0000 
     11 C1'       -27.0580  -46.9320   70.0540 C.3       1 SOP400      0.0000 
     12 O4'       -25.9470  -46.2520   69.9190 O.3       1 SOP400      0.0000 
     13 C2'       -26.6450  -48.3320   70.5450 C.3       1 SOP400      0.0000 
     14 O2'       -27.5230  -48.7790   71.4820 O.3       1 SOP400      0.0000 
     15 C3'       -25.2470  -48.1280   71.1630 C.3       1 SOP400      0.0000 
     16 O3'       -25.3710  -47.8200   72.6230 O.3       1 SOP400      0.0000 
     17 P3        -24.1150  -48.2440   73.6030 P.3       1 SOP400      0.0000 
     18 O32       -22.8080  -48.0720   72.8660 O.co2     1 SOP400      0.0000 
     19 O33       -24.1100  -47.3580   74.8220 O.co2     1 SOP400      0.0000 
     20 O31       -24.2810  -49.6860   74.0140 O.co2     1 SOP400      0.0000 
     21 C4'       -24.7210  -47.1020   70.5440 C.3       1 SOP400      0.0000 
     22 C5'       -23.7840  -47.5560   69.4360 C.3       1 SOP400      0.0000 
     23 O5'       -24.3380  -48.6900   68.8230 O.3       1 SOP400      0.0000 
     24 P1        -23.7480  -49.3000   67.4060 P.3       1 SOP400      0.0000 
     25 O11       -22.5630  -48.4960   66.9470 O.co2     1 SOP400      0.0000 
     26 O12       -23.3630  -50.7490   67.5800 O.co2     1 SOP400      0.0000 
     27 O6        -24.9980  -49.2400   66.3340 O.3       1 SOP400      0.0000 
     28 P2        -24.8670  -48.9830   64.7130 P.3       1 SOP400      0.0000 
     29 O21       -25.9050  -49.8160   64.0190 O.co2     1 SOP400      0.0000 
     30 O22       -23.4820  -49.3450   64.2340 O.co2     1 SOP400      0.0000 
     31 O7        -25.2070  -47.3810   64.4860 O.3       1 SOP400      0.0000 
     32 CP9       -24.4910  -46.6210   63.5510 C.3       1 SOP400      0.0000 
     33 CP8       -25.3890  -46.2050   62.3860 C.3       1 SOP400      0.0000 
     34 CPB       -26.5910  -45.4030   62.8900 C.3       1 SOP400      0.0000 
     35 CPA       -24.5370  -45.3080   61.4850 C.3       1 SOP400      0.0000 
     36 CP7       -25.8840  -47.4770   61.6770 C.3       1 SOP400      0.0000 
     37 OP3       -26.9850  -47.9910   62.3670 O.3       1 SOP400      0.0000 
     38 CP6       -26.3200  -47.1620   60.2460 C.2       1 SOP400      0.0000 
     39 OP2       -25.5280  -47.1010   59.3640 O.2       1 SOP400      0.0000 
     40 NP2       -27.7350  -46.9310   59.9900 N.am      1 SOP400      0.0000 
     41 CP5       -28.2040  -46.6160   58.6470 C.3       1 SOP400      0.0000 
     42 CP4       -27.6320  -45.2700   58.1790 C.3       1 SOP400      0.0000 
     43 CP3       -28.0150  -44.1040   59.1010 C.2       1 SOP400      0.0000 
     44 OP1       -29.1270  -43.9620   59.4850 O.2       1 SOP400      0.0000 
     45 NP1       -26.9930  -43.1490   59.4960 N.am      1 SOP400      0.0000 
     46 CP2       -27.3710  -42.0320   60.3450 C.3       1 SOP400      0.0000 
     47 CP1       -28.1910  -41.0990   59.4530 C.3       1 SOP400      0.0000 
     48 S         -28.2260  -39.4040   60.1100 S.3       1 SOP400      0.0000 
     49 CA1       -27.6820  -38.3480   58.7310 C.3       1 SOP400      0.0000 
     50 CA2       -26.1490  -38.3250   58.6930 C.2       1 SOP400      0.0000 
     51 OA1       -25.5630  -38.9400   57.8700 O.2       1 SOP400      0.0000 
     52 CA3       -25.3590  -37.5080   59.7120 C.3       1 SOP400      0.0000 
     53 HN61      -31.9230  -46.3200   65.6890 H         1 SOP400      0.0000 
     54 HN62      -31.0450  -44.8910   65.2370 H         1 SOP400      0.0000 
     55 H2        -31.0250  -44.1740   70.0510 H         1 SOP400      0.0000 
     56 H8        -26.7180  -48.2410   67.2770 H         1 SOP400      0.0000 
     57 H1'       -27.7090  -46.4890   70.8000 H         1 SOP400      0.0000 
     58 H2'       -26.5960  -49.0340   69.7210 H         1 SOP400      0.0000 
     59 HO2'      -27.6630  -49.7080   71.3650 H         1 SOP400      0.0000 
     60 H3'       -24.6420  -49.0150   70.9990 H         1 SOP400      0.0000 
     61 H4'       -24.1860  -46.4950   71.2660 H         1 SOP400      0.0000 
     62 H5'1      -22.8150  -47.8030   69.8550 H         1 SOP400      0.0000 
     63 H5'2      -23.6700  -46.7640   68.7050 H         1 SOP400      0.0000 
     64 HP91      -24.1050  -45.7310   64.0370 H         1 SOP400      0.0000 
     65 HP92      -23.6650  -47.2120   63.1700 H         1 SOP400      0.0000 
     66 HPB1      -26.2410  -44.5210   63.4200 H         1 SOP400      0.0000 
     67 HPB2      -27.2040  -45.0990   62.0460 H         1 SOP400      0.0000 
     68 HPB3      -27.1810  -46.0190   63.5630 H         1 SOP400      0.0000 
     69 HPA1      -25.1140  -45.0220   60.6100 H         1 SOP400      0.0000 
     70 HPA2      -23.6490  -45.8480   61.1730 H         1 SOP400      0.0000 
     71 HPA3      -24.2460  -44.4170   62.0340 H         1 SOP400      0.0000 
     72 HP7       -25.0730  -48.1960   61.6570 H         1 SOP400      0.0000 
     73 HOP3      -26.8600  -48.9100   62.5420 H         1 SOP400      0.0000 
     74 HNP2      -28.3920  -46.9880   60.7430 H         1 SOP400      0.0000 
     75 HP51      -27.8840  -47.3950   57.9650 H         1 SOP400      0.0000 
     76 HP52      -29.2870  -46.5610   58.6510 H         1 SOP400      0.0000 
     77 HP41      -28.0070  -45.0610   57.1830 H         1 SOP400      0.0000 
     78 HP42      -26.5500  -45.3460   58.1500 H         1 SOP400      0.0000 
     79 HNP1      -26.0460  -43.2590   59.1890 H         1 SOP400      0.0000 
     80 HP21      -27.9680  -42.3780   61.1820 H         1 SOP400      0.0000 
     81 HP22      -26.4880  -41.5230   60.7160 H         1 SOP400      0.0000 
     82 HP11      -27.7510  -41.0830   58.4610 H         1 SOP400      0.0000 
     83 HP12      -29.2070  -41.4740   59.3920 H         1 SOP400      0.0000 
     84 HA11      -28.0570  -37.3410   58.8750 H         1 SOP400      0.0000 
     85 HA12      -28.0620  -38.7450   57.7970 H         1 SOP400      0.0000 
     86 HA31      -24.8060  -36.7270   59.2000 H         1 SOP400      0.0000 
     87 HA32      -26.0440  -37.0600   60.4260 H         1 SOP400      0.0000 
     88 HA33      -24.6650  -38.1590   60.2370 H         1 SOP400      0.0000 
@<TRIPOS>BOND
     1    1    2 1    
     2    1   53 1    
     3    1   54 1    
     4    2    3 ar   
     5    2    7 ar   
     6    3    4 ar   
     7    4    5 ar   
     8    4   55 1    
     9    5    6 ar   
    10    6    7 ar   
    11    6   10 1    
    12    7    8 1    
    13    8    9 2    
    14    9   10 1    
    15    9   56 1    
    16   10   11 1    
    17   11   12 1    
    18   11   13 1    
    19   11   57 1    
    20   12   21 1    
    21   13   14 1    
    22   13   15 1    
    23   13   58 1    
    24   14   59 1    
    25   15   16 1    
    26   15   21 1    
    27   15   60 1    
    28   16   17 1    
    29   17   18 ar   
    30   17   19 ar   
    31   17   20 ar   
    32   21   22 1    
    33   21   61 1    
    34   22   23 1    
    35   22   62 1    
    36   22   63 1    
    37   23   24 1    
    38   24   25 ar   
    39   24   26 ar   
    40   24   27 1    
    41   27   28 1    
    42   28   29 ar   
    43   28   30 ar   
    44   28   31 1    
    45   31   32 1    
    46   32   33 1    
    47   32   64 1    
    48   32   65 1    
    49   33   34 1    
    50   33   35 1    
    51   33   36 1    
    52   34   66 1    
    53   34   67 1    
    54   34   68 1    
    55   35   69 1    
    56   35   70 1    
    57   35   71 1    
    58   36   37 1    
    59   36   38 1    
    60   36   72 1    
    61   37   73 1    
    62   38   39 2    
    63   38   40 am   
    64   40   41 1    
    65   40   74 1    
    66   41   42 1    
    67   41   75 1    
    68   41   76 1    
    69   42   43 1    
    70   42   77 1    
    71   42   78 1    
    72   43   44 2    
    73   43   45 am   
    74   45   46 1    
    75   45   79 1    
    76   46   47 1    
    77   46   80 1    
    78   46   81 1    
    79   47   48 1    
    80   47   82 1    
    81   47   83 1    
    82   48   49 1    
    83   49   50 1    
    84   49   84 1    
    85   49   85 1    
    86   50   51 2    
    87   50   52 1    
    88   52   86 1    
    89   52   87 1    
    90   52   88 1    
@<TRIPOS>SUBSTRUCTURE
     1 SOP400      1 GROUP   
@<TRIPOS>SET

