#    Name: 6j8m_1_CHD
#    Modification time : Fri May 22 19:35:49 2020

@<TRIPOS>MOLECULE
6j8m_1_CHD
   29    32     1     0     0
SMALL
NO_CHARGES


@<TRIPOS>ATOM
      1 C1         76.3500  282.9640  202.8330 C.3       1 CHD303      0.0000 
      2 C2         75.9970  281.6090  203.4350 C.3       1 CHD303      0.0000 
      3 C3         74.4930  281.2900  203.2170 C.3       1 CHD303      0.0000 
      4 O3         74.1510  280.0990  203.9370 O.3       1 CHD303      0.0000 
      5 C4         73.5560  282.3890  203.7310 C.3       1 CHD303      0.0000 
      6 C5         73.9520  283.7610  203.1610 C.3       1 CHD303      0.0000 
      7 C6         73.0130  284.8740  203.6580 C.3       1 CHD303      0.0000 
      8 C7         73.2730  285.2590  205.1400 C.3       1 CHD303      0.0000 
      9 O7         72.7660  284.2210  206.0300 O.3       1 CHD303      0.0000 
     10 C8         74.7840  285.4990  205.4380 C.3       1 CHD303      0.0000 
     11 C9         75.6700  284.3450  204.9280 C.3       1 CHD303      0.0000 
     12 C10        75.4610  284.0780  203.4100 C.3       1 CHD303      0.0000 
     13 C11        77.1750  284.5860  205.3040 C.3       1 CHD303      0.0000 
     14 C12        77.3710  284.9570  206.8130 C.3       1 CHD303      0.0000 
     15 O12        77.0240  283.8080  207.5990 O.3       1 CHD303      0.0000 
     16 C13        76.5040  286.1300  207.2190 C.3       1 CHD303      0.0000 
     17 C14        75.0420  285.7550  206.9340 C.3       1 CHD303      0.0000 
     18 C15        74.2260  286.8600  207.6090 C.3       1 CHD303      0.0000 
     19 C16        75.0930  287.3250  208.8110 C.3       1 CHD303      0.0000 
     20 C17        76.4260  286.5430  208.6990 C.3       1 CHD303      0.0000 
     21 C18        76.9490  287.3590  206.3970 C.3       1 CHD303      0.0000 
     22 C19        75.8730  285.3200  202.5870 C.3       1 CHD303      0.0000 
     23 C20        77.6000  287.3620  209.2940 C.3       1 CHD303      0.0000 
     24 C21        78.9400  286.6000  209.1720 C.3       1 CHD303      0.0000 
     25 C22        77.3520  287.7470  210.7630 C.3       1 CHD303      0.0000 
     26 C23        77.2940  286.5340  211.7210 C.3       1 CHD303      0.0000 
     27 O25        76.3610  286.9920  213.8960 O.co2     1 CHD303      0.0000 
     28 C24        77.3560  287.1280  213.1310 C.2       1 CHD303      0.0000 
     29 O26        78.3700  287.7850  213.4790 O.co2     1 CHD303      0.0000 
@<TRIPOS>BOND
     1    1    2 1    
     2    1   12 1    
     3    2    3 1    
     4    3    4 1    
     5    3    5 1    
     6    5    6 1    
     7    6    7 1    
     8    6   12 1    
     9    7    8 1    
    10    8    9 1    
    11    8   10 1    
    12   10   11 1    
    13   10   17 1    
    14   11   12 1    
    15   11   13 1    
    16   12   22 1    
    17   13   14 1    
    18   14   15 1    
    19   14   16 1    
    20   16   17 1    
    21   16   20 1    
    22   16   21 1    
    23   17   18 1    
    24   18   19 1    
    25   19   20 1    
    26   20   23 1    
    27   23   24 1    
    28   23   25 1    
    29   25   26 1    
    30   26   28 1    
    31   27   28 ar   
    32   28   29 ar   
@<TRIPOS>SUBSTRUCTURE
     1 CHD303      1 GROUP   
@<TRIPOS>SET

