#    Name: 6j8m_6_CHD
#    Modification time : Fri May 22 19:35:57 2020

@<TRIPOS>MOLECULE
6j8m_6_CHD
   29    32     1     0     0
SMALL
NO_CHARGES


@<TRIPOS>ATOM
      1 C1        112.2320  332.9380  201.8650 C.3       1 CHD301      0.0000 
      2 C2        112.6080  334.2840  202.4860 C.3       1 CHD301      0.0000 
      3 C3        114.0550  334.6300  202.0730 C.3       1 CHD301      0.0000 
      4 O3        114.4650  335.7710  202.8240 O.3       1 CHD301      0.0000 
      5 C4        115.0410  333.5020  202.3790 C.3       1 CHD301      0.0000 
      6 C5        114.6050  332.1340  201.8490 C.3       1 CHD301      0.0000 
      7 C6        115.6060  331.0260  202.2530 C.3       1 CHD301      0.0000 
      8 C7        115.5620  330.5860  203.7440 C.3       1 CHD301      0.0000 
      9 O7        116.1270  331.6490  204.5610 O.3       1 CHD301      0.0000 
     10 C8        114.0880  330.2750  204.1490 C.3       1 CHD301      0.0000 
     11 C9        113.1260  331.4360  203.7750 C.3       1 CHD301      0.0000 
     12 C10       113.1570  331.7920  202.2530 C.3       1 CHD301      0.0000 
     13 C11       111.6640  331.2390  204.2780 C.3       1 CHD301      0.0000 
     14 C12       111.5850  330.7210  205.7260 C.3       1 CHD301      0.0000 
     15 O12       112.0110  331.8470  206.4880 O.3       1 CHD301      0.0000 
     16 C13       112.4940  329.5400  206.0380 C.3       1 CHD301      0.0000 
     17 C14       113.9570  329.9010  205.6460 C.3       1 CHD301      0.0000 
     18 C15       114.7630  328.7250  206.1980 C.3       1 CHD301      0.0000 
     19 C16       114.0110  328.3100  207.4770 C.3       1 CHD301      0.0000 
     20 C17       112.6990  329.1400  207.5210 C.3       1 CHD301      0.0000 
     21 C18       111.9760  328.2660  205.3000 C.3       1 CHD301      0.0000 
     22 C19       112.6900  330.6070  201.4170 C.3       1 CHD301      0.0000 
     23 C20       111.5980  328.2750  208.1860 C.3       1 CHD301      0.0000 
     24 C21       110.2740  329.0520  208.2660 C.3       1 CHD301      0.0000 
     25 C22       112.0130  327.7820  209.6050 C.3       1 CHD301      0.0000 
     26 C23       112.1360  328.9460  210.6060 C.3       1 CHD301      0.0000 
     27 O25       113.4610  328.4870  212.4940 O.co2     1 CHD301      0.0000 
     28 C24       112.3460  328.3210  211.9660 C.2       1 CHD301      0.0000 
     29 O26       111.4560  327.6050  212.4830 O.co2     1 CHD301      0.0000 
@<TRIPOS>BOND
     1    1    2 1    
     2    1   12 1    
     3    2    3 1    
     4    3    4 1    
     5    3    5 1    
     6    5    6 1    
     7    6    7 1    
     8    6   12 1    
     9    7    8 1    
    10    8    9 1    
    11    8   10 1    
    12   10   11 1    
    13   10   17 1    
    14   11   12 1    
    15   11   13 1    
    16   12   22 1    
    17   13   14 1    
    18   14   15 1    
    19   14   16 1    
    20   16   17 1    
    21   16   20 1    
    22   16   21 1    
    23   17   18 1    
    24   18   19 1    
    25   19   20 1    
    26   20   23 1    
    27   23   24 1    
    28   23   25 1    
    29   25   26 1    
    30   26   28 1    
    31   27   28 ar   
    32   28   29 ar   
@<TRIPOS>SUBSTRUCTURE
     1 CHD301      1 GROUP   
@<TRIPOS>SET

