#    Name: 6j8m_6_CHD_CAVITY_N1_8
#    Modification time : Fri May 22 19:35:58 2020

@<TRIPOS>MOLECULE
6j8m_6_CHD_CAVITY_N1_8
   87     0     7     0     0
SMALL
NO_CHARGES


@<TRIPOS>ATOM
      1 OG        113.1100  333.2700  200.4800 O.3       1 SER1        0.0000 
      2 OG        114.4200  333.6000  201.1300 O.3       1 SER1        0.0000 
      3 N         108.8500  328.2200  208.2100 N.am      2 ALA2        0.0000 
      4 N         110.1000  332.1900  203.6400 N.am      2 ALA2        0.0000 
      5 N         112.1300  331.7000  203.2700 N.am      2 ALA2        0.0000 
      6 N         111.9900  330.4900  204.1600 N.am      2 ALA2        0.0000 
      7 N         112.8500  330.8600  202.2500 N.am      2 ALA2        0.0000 
      8 O         112.7100  329.6600  203.1400 O.2       2 ALA2        0.0000 
      9 N         112.9800  335.2700  203.1600 N.am      2 ALA2        0.0000 
     10 N         112.7200  332.8600  204.9400 N.am      2 ALA2        0.0000 
     11 N         115.0100  334.7700  202.8000 N.am      2 ALA2        0.0000 
     12 N         114.8800  333.5700  203.6800 N.am      2 ALA2        0.0000 
     13 N         115.7300  333.9400  201.7800 N.am      2 ALA2        0.0000 
     14 N         115.0700  327.9300  206.2200 N.am      2 ALA2        0.0000 
     15 O         115.7900  330.3000  207.0000 O.2       2 ALA2        0.0000 
     16 O         115.6600  329.1000  207.8900 O.2       2 ALA2        0.0000 
     17 OD1       108.8500  331.4200  210.0100 O.co2     3 ASP3        0.0000 
     18 OD1       109.4400  329.3900  209.8800 O.co2     3 ASP3        0.0000 
     19 OD1       110.1600  331.7600  210.6600 O.co2     3 ASP3        0.0000 
     20 OD1       112.0600  330.0600  211.1800 O.co2     3 ASP3        0.0000 
     21 NZ        115.4700  331.5400  203.5500 N.4       4 LYS4        0.0000 
     22 NZ        115.3300  330.3300  204.4400 N.4       4 LYS4        0.0000 
     23 CZ        108.9800  329.4200  207.3300 C.ar      5 PHE5        0.0000 
     24 CZ        109.7000  331.7900  208.1100 C.ar      5 PHE5        0.0000 
     25 CZ        109.5700  330.5900  208.9900 C.ar      5 PHE5        0.0000 
     26 CZ        110.2900  329.7600  207.9800 C.ar      5 PHE5        0.0000 
     27 CZ        111.7300  328.0900  205.9400 C.ar      5 PHE5        0.0000 
     28 CZ        112.5800  328.4600  204.0300 C.ar      5 PHE5        0.0000 
     29 CZ        113.5700  330.0300  201.2300 C.ar      5 PHE5        0.0000 
     30 CZ        112.1900  328.0600  208.4900 C.ar      5 PHE5        0.0000 
     31 CZ        113.0400  328.4300  206.5900 C.ar      5 PHE5        0.0000 
     32 CZ        112.9100  327.2300  207.4800 C.ar      5 PHE5        0.0000 
     33 CZ        114.0200  330.0000  203.7900 C.ar      5 PHE5        0.0000 
     34 CZ        113.8900  328.8000  204.6800 C.ar      5 PHE5        0.0000 
     35 CZ        114.8800  330.3700  201.8800 C.ar      5 PHE5        0.0000 
     36 CZ        114.7400  329.1700  202.7700 C.ar      5 PHE5        0.0000 
     37 CZ        116.1900  330.7000  202.5300 C.ar      5 PHE5        0.0000 
     38 CZ        116.0500  329.5000  203.4200 C.ar      5 PHE5        0.0000 
     39 CA        109.7000  328.5900  206.3100 C.3       6 GLY6        0.0000 
     40 CA        110.5600  332.1600  206.2000 C.3       6 GLY6        0.0000 
     41 CA        110.4200  330.9600  207.0900 C.3       6 GLY6        0.0000 
     42 CA        110.1600  328.5500  208.8600 C.3       6 GLY6        0.0000 
     43 CA        111.2800  331.3300  205.1800 C.3       6 GLY6        0.0000 
     44 CA        111.1400  330.1300  206.0700 C.3       6 GLY6        0.0000 
     45 CA        111.0100  328.9200  206.9600 C.3       6 GLY6        0.0000 
     46 CA        110.8800  327.7200  207.8400 C.3       6 GLY6        0.0000 
     47 CA        111.8600  329.2900  205.0500 C.3       6 GLY6        0.0000 
     48 CA        112.0600  326.8600  209.3800 C.3       6 GLY6        0.0000 
     49 CA        113.7600  327.5900  205.5700 C.3       6 GLY6        0.0000 
     50 CA        115.0100  331.5700  201.0000 C.3       6 GLY6        0.0000 
     51 CA        113.5000  328.4000  209.1400 C.3       6 GLY6        0.0000 
     52 CA        114.3500  328.7600  207.2400 C.3       6 GLY6        0.0000 
     53 CA        114.2200  327.5600  208.1200 C.3       6 GLY6        0.0000 
     54 CA        115.6000  332.7400  202.6600 C.3       6 GLY6        0.0000 
     55 CA        115.2000  329.1300  205.3300 C.3       6 GLY6        0.0000 
     56 CA        116.3200  331.9000  201.6400 C.3       6 GLY6        0.0000 
     57 CA        115.9200  328.3000  204.3100 C.3       6 GLY6        0.0000 
     58 CA        114.9400  329.9300  208.9100 C.3       6 GLY6        0.0000 
     59 CA        116.5100  329.4700  205.9800 C.3       6 GLY6        0.0000 
     60 CA        116.2500  330.2700  209.5600 C.3       6 GLY6        0.0000 
     61 DU        111.4100  332.5300  204.2900 H         7 CUB7        0.0000 
     62 DU        112.2600  332.9000  202.3800 H         7 CUB7        0.0000 
     63 DU        112.9800  332.0600  201.3600 H         7 CUB7        0.0000 
     64 DU        111.0100  332.1300  208.7600 H         7 CUB7        0.0000 
     65 DU        110.8800  330.9300  209.6400 H         7 CUB7        0.0000 
     66 DU        111.8700  332.5000  206.8500 H         7 CUB7        0.0000 
     67 DU        111.7300  331.2900  207.7400 H         7 CUB7        0.0000 
     68 DU        111.4700  328.8900  209.5100 H         7 CUB7        0.0000 
     69 DU        112.5800  331.6600  205.8300 H         7 CUB7        0.0000 
     70 DU        112.4500  330.4600  206.7200 H         7 CUB7        0.0000 
     71 DU        112.3200  329.2600  207.6100 H         7 CUB7        0.0000 
     72 DU        113.7000  334.4300  202.1500 H         7 CUB7        0.0000 
     73 DU        113.5700  333.2300  203.0300 H         7 CUB7        0.0000 
     74 DU        113.4400  332.0300  203.9200 H         7 CUB7        0.0000 
     75 DU        113.1700  329.6300  205.7000 H         7 CUB7        0.0000 
     76 DU        114.2900  332.4000  202.0100 H         7 CUB7        0.0000 
     77 DU        114.1600  331.2000  202.9000 H         7 CUB7        0.0000 
     78 DU        112.1900  331.2600  210.2900 H         7 CUB7        0.0000 
     79 DU        112.9100  330.4300  209.2700 H         7 CUB7        0.0000 
     80 DU        112.7800  329.2300  210.1600 H         7 CUB7        0.0000 
     81 DU        113.6300  329.6000  208.2600 H         7 CUB7        0.0000 
     82 DU        114.4800  329.9700  206.3500 H         7 CUB7        0.0000 
     83 DU        114.3500  331.9700  209.0400 H         7 CUB7        0.0000 
     84 DU        114.2200  330.7700  209.9200 H         7 CUB7        0.0000 
     85 DU        115.0700  331.1300  208.0200 H         7 CUB7        0.0000 
     86 DU        115.6600  332.3000  209.6900 H         7 CUB7        0.0000 
     87 DU        116.3800  331.4700  208.6700 H         7 CUB7        0.0000 
@<TRIPOS>BOND
@<TRIPOS>SUBSTRUCTURE
     1 SER1        1 GROUP   
     2 ALA2        3 GROUP   
     3 ASP3       17 GROUP   
     4 LYS4       21 GROUP   
     5 PHE5       23 GROUP   
     6 GLY6       39 GROUP   
     7 CUB7       61 GROUP   
@<TRIPOS>SET

