#    Name: 6o96_1_SAH
#    Modification time : Fri May 22 19:26:53 2020

@<TRIPOS>MOLECULE
6o96_1_SAH
   26    28     1     0     0
SMALL
NO_CHARGES


@<TRIPOS>ATOM
      1 N         177.1590  154.4680  130.5330 N.4       1 SAH401      0.0000 
      2 CA        175.8830  154.9130  129.8700 C.3       1 SAH401      0.0000 
      3 CB        174.6970  154.8640  130.8600 C.3       1 SAH401      0.0000 
      4 CG        175.0930  154.5310  132.3040 C.3       1 SAH401      0.0000 
      5 SD        173.7000  153.9150  133.2070 S.3       1 SAH401      0.0000 
      6 C         176.0950  156.3020  129.3190 C.2       1 SAH401      0.0000 
      7 O         175.3740  156.7810  128.4290 O.co2     1 SAH401      0.0000 
      8 OXT       177.0070  157.0060  129.7490 O.co2     1 SAH401      0.0000 
      9 C5'       174.4000  152.7660  134.3560 C.3       1 SAH401      0.0000 
     10 C4'       174.6470  151.4390  133.6450 C.3       1 SAH401      0.0000 
     11 O4'       175.5500  150.6570  134.4310 O.3       1 SAH401      0.0000 
     12 C3'       173.3810  150.5890  133.5000 C.3       1 SAH401      0.0000 
     13 O3'       173.1900  150.2380  132.1230 O.3       1 SAH401      0.0000 
     14 C2'       173.6860  149.3240  134.2840 C.3       1 SAH401      0.0000 
     15 O2'       173.1580  148.1700  133.6440 O.3       1 SAH401      0.0000 
     16 C1'       175.1890  149.3070  134.1620 C.3       1 SAH401      0.0000 
     17 N9        175.8000  148.3110  135.0500 N.pl3     1 SAH401      0.0000 
     18 C8        175.4800  148.0780  136.3520 C.2       1 SAH401      0.0000 
     19 N7        176.2460  147.0800  136.8370 N.2       1 SAH401      0.0000 
     20 C5        177.0670  146.6570  135.8490 C.ar      1 SAH401      0.0000 
     21 C6        178.1330  145.6290  135.6940 C.ar      1 SAH401      0.0000 
     22 N6        178.4870  144.8200  136.7230 N.pl3     1 SAH401      0.0000 
     23 N1        178.7330  145.5190  134.4790 N.ar      1 SAH401      0.0000 
     24 C2        178.4040  146.3220  133.4440 C.ar      1 SAH401      0.0000 
     25 N3        177.4470  147.2640  133.5190 N.ar      1 SAH401      0.0000 
     26 C4        176.7640  147.4760  134.6670 C.ar      1 SAH401      0.0000 
@<TRIPOS>BOND
     1    1    2 1    
     2    2    3 1    
     3    2    6 1    
     4    3    4 1    
     5    4    5 1    
     6    5    9 1    
     7    6    7 ar   
     8    6    8 ar   
     9    9   10 1    
    10   10   11 1    
    11   10   12 1    
    12   11   16 1    
    13   12   13 1    
    14   12   14 1    
    15   14   15 1    
    16   14   16 1    
    17   16   17 1    
    18   17   18 1    
    19   17   26 1    
    20   18   19 2    
    21   19   20 1    
    22   20   21 ar   
    23   20   26 ar   
    24   21   22 1    
    25   21   23 ar   
    26   23   24 ar   
    27   24   25 ar   
    28   25   26 ar   
@<TRIPOS>SUBSTRUCTURE
     1 SAH401      1 GROUP   
@<TRIPOS>SET

