#    Name: 5xet_1_ME8_CAVITY_N1_12
#    Modification time : Fri May 22 19:13:17 2020

@<TRIPOS>MOLECULE
5xet_1_ME8_CAVITY_N1_12
  119     0     7     0     0
SMALL
NO_CHARGES


@<TRIPOS>ATOM
      1 OG        -23.6700  -36.6300   -2.6800 O.3       1 SER1        0.0000 
      2 OG        -23.2200  -36.9800   -4.7200 O.3       1 SER1        0.0000 
      3 OG        -22.7300  -38.1500   -5.5100 O.3       1 SER1        0.0000 
      4 OG        -22.2700  -38.5000   -7.5600 O.3       1 SER1        0.0000 
      5 OG        -21.7900  -39.6700   -8.3500 O.3       1 SER1        0.0000 
      6 OG        -21.3100  -37.7300   -5.2700 O.3       1 SER1        0.0000 
      7 OG        -20.8600  -38.0800   -7.3100 O.3       1 SER1        0.0000 
      8 OG        -20.8300  -38.9100   -6.0600 O.3       1 SER1        0.0000 
      9 OG        -20.3700  -39.2500   -8.1100 O.3       1 SER1        0.0000 
     10 N         -29.4100  -36.6500   -6.1600 N.am      2 ALA2        0.0000 
     11 N         -28.5000  -34.2200   -6.3600 N.am      2 ALA2        0.0000 
     12 N         -25.6400  -31.1000   -0.7400 N.am      2 ALA2        0.0000 
     13 N         -25.1600  -32.2800   -1.5400 N.am      2 ALA2        0.0000 
     14 N         -24.6700  -33.4500   -2.3300 N.am      2 ALA2        0.0000 
     15 N         -24.6400  -34.2800   -1.0800 N.am      2 ALA2        0.0000 
     16 N         -24.7100  -29.5100    0.3000 N.am      2 ALA2        0.0000 
     17 N         -24.2200  -30.6800   -0.4900 N.am      2 ALA2        0.0000 
     18 N         -23.7400  -31.8600   -1.2900 N.am      2 ALA2        0.0000 
     19 N         -23.2200  -33.8600   -0.8400 N.am      2 ALA2        0.0000 
     20 N         -19.8900  -40.4300   -8.9000 N.am      2 ALA2        0.0000 
     21 O         -20.9200  -33.3000   -5.9200 O.2       2 ALA2        0.0000 
     22 O         -18.4700  -40.0100   -8.6500 O.2       2 ALA2        0.0000 
     23 N         -18.0200  -37.2400   -6.8200 N.am      2 ALA2        0.0000 
     24 N         -17.5600  -37.5800   -8.8600 N.am      2 ALA2        0.0000 
     25 OD1       -28.9200  -37.8200   -6.9500 O.co2     3 ASP3        0.0000 
     26 OD1       -28.4700  -38.1600   -9.0000 O.co2     3 ASP3        0.0000 
     27 OD1       -27.9900  -36.2300   -5.9100 O.co2     3 ASP3        0.0000 
     28 OD1       -27.5000  -37.4000   -6.7100 O.co2     3 ASP3        0.0000 
     29 OD1       -27.4700  -38.2300   -5.4600 O.co2     3 ASP3        0.0000 
     30 OD1       -26.9900  -39.4100   -6.2500 O.co2     3 ASP3        0.0000 
     31 OD1       -26.5400  -36.6400   -4.4200 O.co2     3 ASP3        0.0000 
     32 NZ        -29.4400  -35.8100   -7.4000 N.4       4 LYS4        0.0000 
     33 NZ        -28.9500  -36.9900   -8.2000 N.4       4 LYS4        0.0000 
     34 NZ        -28.4900  -37.3300  -10.2400 N.4       4 LYS4        0.0000 
     35 NZ        -28.0500  -34.5600   -8.4100 N.4       4 LYS4        0.0000 
     36 NZ        -28.0200  -35.3900   -7.1600 N.4       4 LYS4        0.0000 
     37 NZ        -27.5300  -36.5700   -7.9500 N.4       4 LYS4        0.0000 
     38 NZ        -27.0800  -33.8000   -6.1200 N.4       4 LYS4        0.0000 
     39 NZ        -27.0500  -34.6300   -4.8700 N.4       4 LYS4        0.0000 
     40 NZ        -26.5700  -35.8100   -5.6600 N.4       4 LYS4        0.0000 
     41 NZ        -26.0800  -36.9800   -6.4600 N.4       4 LYS4        0.0000 
     42 NZ        -25.6600  -36.4900   -9.7500 N.4       4 LYS4        0.0000 
     43 NZ        -25.6300  -37.3300   -8.5000 N.4       4 LYS4        0.0000 
     44 NZ        -25.6400  -34.2100   -4.6200 N.4       4 LYS4        0.0000 
     45 NZ        -25.1500  -35.3900   -5.4200 N.4       4 LYS4        0.0000 
     46 NZ        -24.6600  -36.5600   -6.2100 N.4       4 LYS4        0.0000 
     47 NZ        -24.2100  -36.9100   -8.2600 N.4       4 LYS4        0.0000 
     48 NZ        -24.1800  -37.7400   -7.0100 N.4       4 LYS4        0.0000 
     49 NZ        -24.2200  -33.7900   -4.3700 N.4       4 LYS4        0.0000 
     50 NZ        -23.7300  -34.9700   -5.1700 N.4       4 LYS4        0.0000 
     51 NZ        -23.2500  -36.1400   -5.9700 N.4       4 LYS4        0.0000 
     52 NZ        -22.3400  -33.7200   -6.1700 N.4       4 LYS4        0.0000 
     53 NZ        -22.3100  -34.5500   -4.9200 N.4       4 LYS4        0.0000 
     54 NZ        -21.8600  -34.8900   -6.9700 N.4       4 LYS4        0.0000 
     55 NZ        -20.8900  -34.1300   -4.6800 N.4       4 LYS4        0.0000 
     56 NZ        -20.8600  -34.9600   -3.4300 N.4       4 LYS4        0.0000 
     57 NZ        -20.4100  -35.3100   -5.4700 N.4       4 LYS4        0.0000 
     58 CZ        -26.6200  -37.2500  -12.0400 C.ar      5 PHE5        0.0000 
     59 CZ        -27.5400  -33.4600   -4.0700 C.ar      5 PHE5        0.0000 
     60 CZ        -27.0300  -35.4600   -3.6200 C.ar      5 PHE5        0.0000 
     61 CZ        -25.1700  -37.6700  -10.5500 C.ar      5 PHE5        0.0000 
     62 CZ        -25.1400  -38.5000   -9.3000 C.ar      5 PHE5        0.0000 
     63 CZ        -26.6100  -31.8600   -3.0300 C.ar      5 PHE5        0.0000 
     64 CZ        -26.5800  -32.6900   -1.7800 C.ar      5 PHE5        0.0000 
     65 CZ        -26.0900  -33.8700   -2.5800 C.ar      5 PHE5        0.0000 
     66 CZ        -26.0600  -34.7000   -1.3300 C.ar      5 PHE5        0.0000 
     67 CZ        -25.6100  -35.0500   -3.3700 C.ar      5 PHE5        0.0000 
     68 CZ        -25.5800  -35.8800   -2.1300 C.ar      5 PHE5        0.0000 
     69 CZ        -23.7200  -38.0800   -9.0500 C.ar      5 PHE5        0.0000 
     70 CZ        -23.6700  -39.7500   -6.5600 C.ar      5 PHE5        0.0000 
     71 CZ        -25.1900  -31.4400   -2.7800 C.ar      5 PHE5        0.0000 
     72 CZ        -22.7900  -36.4900   -8.0100 C.ar      5 PHE5        0.0000 
     73 CZ        -22.3000  -37.6600   -8.8000 C.ar      5 PHE5        0.0000 
     74 CZ        -21.8200  -38.8400   -9.6000 C.ar      5 PHE5        0.0000 
     75 CZ        -24.7400  -28.6700   -0.9500 C.ar      5 PHE5        0.0000 
     76 CZ        -24.2500  -29.8500   -1.7400 C.ar      5 PHE5        0.0000 
     77 CZ        -22.2500  -36.2200   -2.4300 C.ar      5 PHE5        0.0000 
     78 CZ        -21.8000  -36.5600   -4.4700 C.ar      5 PHE5        0.0000 
     79 CZ        -21.3700  -36.0700   -7.7600 C.ar      5 PHE5        0.0000 
     80 CZ        -20.8800  -37.2400   -8.5600 C.ar      5 PHE5        0.0000 
     81 CZ        -20.4000  -38.4200   -9.3500 C.ar      5 PHE5        0.0000 
     82 CZ        -19.9500  -35.6500   -7.5200 C.ar      5 PHE5        0.0000 
     83 CZ        -19.9200  -36.4800   -6.2700 C.ar      5 PHE5        0.0000 
     84 CZ        -19.4700  -36.8300   -8.3100 C.ar      5 PHE5        0.0000 
     85 CZ        -18.5000  -36.0600   -6.0200 C.ar      5 PHE5        0.0000 
     86 CZ        -18.0500  -36.4100   -8.0600 C.ar      5 PHE5        0.0000 
     87 CA        -26.1300  -38.4300  -12.8300 C.3       6 GLY6        0.0000 
     88 CA        -26.1200  -33.0400   -3.8300 C.3       6 GLY6        0.0000 
     89 CA        -24.7000  -32.6200   -3.5800 C.3       6 GLY6        0.0000 
     90 CA        -24.2500  -32.9600   -5.6200 C.3       6 GLY6        0.0000 
     91 CA        -24.1600  -35.4600   -1.8800 C.3       6 GLY6        0.0000 
     92 CA        -23.2500  -33.0300   -2.0800 C.3       6 GLY6        0.0000 
     93 CA        -22.8300  -32.5400   -5.3800 C.3       6 GLY6        0.0000 
     94 CA        -22.8000  -33.3800   -4.1300 C.3       6 GLY6        0.0000 
     95 CA        -22.7400  -35.0400   -1.6300 C.3       6 GLY6        0.0000 
     96 CA        -21.3800  -32.9600   -3.8800 C.3       6 GLY6        0.0000 
     97 CA        -21.3500  -33.7900   -2.6300 C.3       6 GLY6        0.0000 
     98 CA        -19.8900  -37.3100   -5.0200 C.3       6 GLY6        0.0000 
     99 CA        -19.4400  -37.6600   -7.0600 C.3       6 GLY6        0.0000 
    100 CA        -19.4100  -38.4900   -5.8200 C.3       6 GLY6        0.0000 
    101 CA        -18.9800  -38.0000   -9.1100 C.3       6 GLY6        0.0000 
    102 CA        -18.9500  -38.8300   -7.8600 C.3       6 GLY6        0.0000 
    103 CA        -17.5300  -38.4100   -7.6100 C.3       6 GLY6        0.0000 
    104 DU        -28.0100  -38.5100  -11.0400 H         7 CUB7        0.0000 
    105 DU        -27.0800  -36.9100  -10.0000 H         7 CUB7        0.0000 
    106 DU        -27.0500  -37.7400   -8.7500 H         7 CUB7        0.0000 
    107 DU        -27.0200  -38.5800   -7.5000 H         7 CUB7        0.0000 
    108 DU        -26.5900  -38.0900  -10.7900 H         7 CUB7        0.0000 
    109 DU        -25.6000  -38.1600   -7.2500 H         7 CUB7        0.0000 
    110 DU        -25.1200  -36.2200   -4.1700 H         7 CUB7        0.0000 
    111 DU        -23.6900  -38.9100   -7.8000 H         7 CUB7        0.0000 
    112 DU        -23.2100  -40.0900   -8.6000 H         7 CUB7        0.0000 
    113 DU        -24.1900  -34.6300   -3.1300 H         7 CUB7        0.0000 
    114 DU        -23.7000  -35.8000   -3.9200 H         7 CUB7        0.0000 
    115 DU        -22.7600  -37.3200   -6.7600 H         7 CUB7        0.0000 
    116 DU        -22.7700  -34.2100   -2.8800 H         7 CUB7        0.0000 
    117 DU        -22.2800  -35.3800   -3.6800 H         7 CUB7        0.0000 
    118 DU        -21.8300  -35.7300   -5.7200 H         7 CUB7        0.0000 
    119 DU        -21.3400  -36.9000   -6.5100 H         7 CUB7        0.0000 
@<TRIPOS>BOND
@<TRIPOS>SUBSTRUCTURE
     1 SER1        1 GROUP   
     2 ALA2       10 GROUP   
     3 ASP3       25 GROUP   
     4 LYS4       32 GROUP   
     5 PHE5       58 GROUP   
     6 GLY6       87 GROUP   
     7 CUB7      104 GROUP   
@<TRIPOS>SET

