#    Name: 5xet_1_ME8
#    Modification time : Fri May 22 19:13:14 2020

@<TRIPOS>MOLECULE
5xet_1_ME8
   53    55     1     0     0
SMALL
NO_CHARGES


@<TRIPOS>ATOM
      1 O         -25.8020  -33.0330   -3.4100 O.2       1 ME8601      0.0000 
      2 N1        -18.5870  -38.8260   -8.4980 N.ar      1 ME8601      0.0000 
      3 O1        -25.5430  -34.4340   -1.6480 O.3       1 ME8601      0.0000 
      4 P1        -24.8210  -35.7470   -2.3870 P.3       1 ME8601      0.0000 
      5 C2        -18.0690  -37.6660   -8.0070 C.ar      1 ME8601      0.0000 
      6 N2        -26.5020  -32.5210   -0.0400 N.4       1 ME8601      0.0000 
      7 N3        -18.8130  -36.8800   -7.1880 N.ar      1 ME8601      0.0000 
      8 C4        -20.0390  -37.2460   -6.8730 C.ar      1 ME8601      0.0000 
      9 C5        -20.5580  -38.4180   -7.3750 C.ar      1 ME8601      0.0000 
     10 C6        -19.8180  -39.1970   -8.1870 C.ar      1 ME8601      0.0000 
     11 N6        -20.3560  -40.4390   -8.7140 N.pl3     1 ME8601      0.0000 
     12 N7        -21.9160  -38.5140   -6.8380 N.2       1 ME8601      0.0000 
     13 C8        -22.1110  -37.4050   -6.0540 C.2       1 ME8601      0.0000 
     14 C9        -25.8420  -33.1990   -2.2470 C.2       1 ME8601      0.0000 
     15 N9        -20.9810  -36.6970   -6.1200 N.pl3     1 ME8601      0.0000 
     16 CA        -26.2190  -32.0200   -1.3670 C.3       1 ME8601      0.0000 
     17 CB        -25.0470  -31.0420   -1.3320 C.3       1 ME8601      0.0000 
     18 SD        -23.8530  -28.8470   -0.2160 S.3       1 ME8601      0.0000 
     19 CE        -24.2050  -27.3760    0.7980 C.3       1 ME8601      0.0000 
     20 CG        -25.2640  -29.9950   -0.2410 C.3       1 ME8601      0.0000 
     21 C1'       -20.7560  -35.4640   -5.4360 C.3       1 ME8601      0.0000 
     22 O1S       -24.5500  -36.7500   -1.3560 O.co2     1 ME8601      0.0000 
     23 C2'       -21.8300  -34.4410   -5.5980 C.3       1 ME8601      0.0000 
     24 O2'       -21.6350  -33.6660   -6.8080 O.3       1 ME8601      0.0000 
     25 O2S       -25.6990  -36.5260   -3.2750 O.co2     1 ME8601      0.0000 
     26 C3'       -21.7350  -33.5910   -4.4020 C.3       1 ME8601      0.0000 
     27 O3'       -20.8450  -32.4530   -4.6080 O.3       1 ME8601      0.0000 
     28 C4'       -21.2240  -34.4790   -3.3140 C.3       1 ME8601      0.0000 
     29 O4'       -20.6600  -35.7060   -3.9610 O.3       1 ME8601      0.0000 
     30 C5'       -22.3340  -34.8780   -2.4010 C.3       1 ME8601      0.0000 
     31 O5'       -23.4220  -35.3290   -3.1660 O.3       1 ME8601      0.0000 
     32 H2        -17.2020  -37.4130   -8.2310 H         1 ME8601      0.0000 
     33 HN2       -26.4480  -33.4090   -0.0400 H         1 ME8601      0.0000 
     34 HN2A      -27.3220  -32.2730    0.2020 H         1 ME8601      0.0000 
     35 HN6       -19.8560  -40.9610   -9.1800 H         1 ME8601      0.0000 
     36 HN6A      -21.1750  -40.6530   -8.5590 H         1 ME8601      0.0000 
     37 HA        -27.0050  -31.5800   -1.7270 H         1 ME8601      0.0000 
     38 HB        -24.2280  -31.5290   -1.1500 H         1 ME8601      0.0000 
     39 HBA       -24.9720  -30.5980   -2.1910 H         1 ME8601      0.0000 
     40 HE        -25.0090  -26.9430    0.4710 H         1 ME8601      0.0000 
     41 HEA       -24.3330  -27.6420    1.7210 H         1 ME8601      0.0000 
     42 HEB       -23.4590  -26.7570    0.7400 H         1 ME8601      0.0000 
     43 HG        -25.3390  -30.4350    0.6200 H         1 ME8601      0.0000 
     44 HGA       -26.0790  -29.5020   -0.4240 H         1 ME8601      0.0000 
     45 H1'       -19.9180  -35.0840   -5.7430 H         1 ME8601      0.0000 
     46 H2'       -22.6960  -34.8780   -5.6190 H         1 ME8601      0.0000 
     47 HO2'      -22.3640  -33.2820   -7.0190 H         1 ME8601      0.0000 
     48 H3'       -22.6200  -33.2720   -4.1650 H         1 ME8601      0.0000 
     49 HO3'      -21.1960  -31.9160   -5.1650 H         1 ME8601      0.0000 
     50 H4'       -20.5280  -34.0220   -2.8160 H         1 ME8601      0.0000 
     51 H5'       -22.6060  -34.1140   -1.8690 H         1 ME8601      0.0000 
     52 H5'A      -22.0320  -35.5890   -1.8150 H         1 ME8601      0.0000 
     53 H8        -22.8800  -37.1860   -5.5780 H         1 ME8601      0.0000 
@<TRIPOS>BOND
     1    1   14 2    
     2    2    5 ar   
     3    2   10 ar   
     4    3    4 1    
     5    3   14 1    
     6    4   22 ar   
     7    4   25 ar   
     8    4   31 1    
     9    5    7 ar   
    10    6   16 1    
    11    5   32 1    
    12    7    8 ar   
    13    6   33 1    
    14    6   34 1    
    15    8    9 ar   
    16    8   15 1    
    17    9   10 ar   
    18    9   12 1    
    19   10   11 1    
    20   12   13 2    
    21   11   35 1    
    22   11   36 1    
    23   13   15 1    
    24   14   16 1    
    25   13   53 1    
    26   15   21 1    
    27   16   17 1    
    28   16   37 1    
    29   17   20 1    
    30   17   38 1    
    31   17   39 1    
    32   18   19 1    
    33   18   20 1    
    34   19   40 1    
    35   19   41 1    
    36   19   42 1    
    37   20   43 1    
    38   20   44 1    
    39   21   23 1    
    40   21   29 1    
    41   21   45 1    
    42   23   24 1    
    43   23   26 1    
    44   23   46 1    
    45   26   27 1    
    46   24   47 1    
    47   26   28 1    
    48   26   48 1    
    49   28   29 1    
    50   27   49 1    
    51   28   30 1    
    52   28   50 1    
    53   30   31 1    
    54   30   51 1    
    55   30   52 1    
@<TRIPOS>SUBSTRUCTURE
     1 ME8601      1 GROUP   
@<TRIPOS>SET

