#    Name: 5z68_17_IMD_CAVITY_N1_12
#    Modification time : Fri May 22 19:25:23 2020

@<TRIPOS>MOLECULE
5z68_17_IMD_CAVITY_N1_12
   78     0     7     0     0
SMALL
NO_CHARGES


@<TRIPOS>ATOM
      1 OG         23.0800    4.3000  -70.2800 O.3       1 SER1        0.0000 
      2 OG         22.5200    3.0700  -69.6300 O.3       1 SER1        0.0000 
      3 O          21.1700    6.2100  -68.2900 O.2       2 ALA2        0.0000 
      4 N          20.2100    0.5400  -66.0200 N.am      2 ALA2        0.0000 
      5 N          21.7800    6.6300  -66.9800 N.am      2 ALA2        0.0000 
      6 N          20.8100    0.9600  -64.7200 N.am      2 ALA2        0.0000 
      7 N          22.0700    0.2100  -65.0600 N.am      2 ALA2        0.0000 
      8 N          27.3500    4.8800  -69.0000 N.am      2 ALA2        0.0000 
      9 N          26.7000    6.0400  -67.3500 N.am      2 ALA2        0.0000 
     10 N          27.9600    5.3000  -67.6900 N.am      2 ALA2        0.0000 
     11 OD1        20.0600    3.7500  -66.9900 O.co2     3 ASP3        0.0000 
     12 OD1        19.5100    2.5100  -66.3300 O.co2     3 ASP3        0.0000 
     13 OD1        21.8700    4.2300  -67.9800 O.co2     3 ASP3        0.0000 
     14 OD1        21.3200    3.0000  -67.3300 O.co2     3 ASP3        0.0000 
     15 OD1        20.7600    1.7700  -66.6800 O.co2     3 ASP3        0.0000 
     16 OD1        22.4800    4.6500  -66.6700 O.co2     3 ASP3        0.0000 
     17 OD1        21.9200    3.4200  -66.0200 O.co2     3 ASP3        0.0000 
     18 OD1        21.3700    2.1900  -65.3700 O.co2     3 ASP3        0.0000 
     19 OD1        23.1800    2.6700  -66.3600 O.co2     3 ASP3        0.0000 
     20 OD1        22.3800    7.0500  -65.6800 O.co2     3 ASP3        0.0000 
     21 OD1        23.6400    6.3000  -66.0200 O.co2     3 ASP3        0.0000 
     22 OD1        23.0800    5.0700  -65.3700 O.co2     3 ASP3        0.0000 
     23 OD1        21.9700    2.6100  -64.0600 O.co2     3 ASP3        0.0000 
     24 OD1        23.7800    3.0900  -65.0600 O.co2     3 ASP3        0.0000 
     25 OD1        23.2300    1.8600  -64.4000 O.co2     3 ASP3        0.0000 
     26 NZ         23.5900    7.1200  -67.9800 N.4       4 LYS4        0.0000 
     27 NZ         24.8400    6.3700  -68.3200 N.4       4 LYS4        0.0000 
     28 CZ         24.3800    2.7400  -68.6600 C.ar      5 PHE5        0.0000 
     29 CZ         23.8300    1.5100  -68.0100 C.ar      5 PHE5        0.0000 
     30 CZ         26.1900    3.2300  -69.6600 C.ar      5 PHE5        0.0000 
     31 CZ         24.9900    3.1600  -67.3600 C.ar      5 PHE5        0.0000 
     32 CZ         24.4300    1.9300  -66.7000 C.ar      5 PHE5        0.0000 
     33 CZ         26.2400    2.4100  -67.7000 C.ar      5 PHE5        0.0000 
     34 CZ         25.6900    1.1800  -67.0500 C.ar      5 PHE5        0.0000 
     35 CZ         25.1300   -0.0500  -66.3900 C.ar      5 PHE5        0.0000 
     36 CA         20.6600    3.3900  -70.5900 C.3       6 GLY6        0.0000 
     37 CA         20.1100    2.1600  -69.9400 C.3       6 GLY6        0.0000 
     38 CA         21.3600    1.4200  -70.2800 C.3       6 GLY6        0.0000 
     39 CA         19.4600    3.3300  -68.2900 C.3       6 GLY6        0.0000 
     40 CA         18.9000    2.1000  -67.6400 C.3       6 GLY6        0.0000 
     41 CA         21.8200    5.0400  -69.9400 C.3       6 GLY6        0.0000 
     42 CA         21.2700    3.8100  -69.2900 C.3       6 GLY6        0.0000 
     43 CA         20.7100    2.5800  -68.6300 C.3       6 GLY6        0.0000 
     44 CA         20.1600    1.3500  -67.9800 C.3       6 GLY6        0.0000 
     45 CA         21.9700    1.8300  -68.9800 C.3       6 GLY6        0.0000 
     46 CA         20.6200    4.9800  -67.6400 C.3       6 GLY6        0.0000 
     47 CA         22.4300    5.4600  -68.6300 C.3       6 GLY6        0.0000 
     48 CA         24.2400    5.9500  -69.6200 C.3       6 GLY6        0.0000 
     49 CA         23.6800    4.7200  -68.9700 C.3       6 GLY6        0.0000 
     50 CA         22.0200    1.0200  -67.0200 C.3       6 GLY6        0.0000 
     51 CA         21.4600   -0.2100  -66.3700 C.3       6 GLY6        0.0000 
     52 CA         24.9400    3.9700  -69.3100 C.3       6 GLY6        0.0000 
     53 CA         23.2700    0.2800  -67.3600 C.3       6 GLY6        0.0000 
     54 CA         26.1000    5.6200  -68.6600 C.3       6 GLY6        0.0000 
     55 CA         23.8800    0.7000  -66.0500 C.3       6 GLY6        0.0000 
     56 CA         23.3200   -0.5400  -65.4000 C.3       6 GLY6        0.0000 
     57 CA         26.8000    3.6400  -68.3500 C.3       6 GLY6        0.0000 
     58 CA         22.9400    8.2800  -66.3300 C.3       6 GLY6        0.0000 
     59 CA         22.6700    0.6300  -63.7500 C.3       6 GLY6        0.0000 
     60 CA         23.9300   -0.1200  -64.0900 C.3       6 GLY6        0.0000 
     61 CA         27.4000    4.0600  -67.0400 C.3       6 GLY6        0.0000 
     62 CA         25.1800   -0.8600  -64.4300 C.3       6 GLY6        0.0000 
     63 DU         23.1300    3.4900  -68.3200 H         7 CUB7        0.0000 
     64 DU         22.5700    2.2500  -67.6700 H         7 CUB7        0.0000 
     65 DU         23.0300    5.8800  -67.3200 H         7 CUB7        0.0000 
     66 DU         24.2900    5.1400  -67.6700 H         7 CUB7        0.0000 
     67 DU         23.7300    3.9100  -67.0100 H         7 CUB7        0.0000 
     68 DU         22.6200    1.4400  -65.7100 H         7 CUB7        0.0000 
     69 DU         25.5400    4.3900  -68.0100 H         7 CUB7        0.0000 
     70 DU         25.4500    6.7900  -67.0100 H         7 CUB7        0.0000 
     71 DU         24.8900    5.5600  -66.3600 H         7 CUB7        0.0000 
     72 DU         24.3400    4.3200  -65.7100 H         7 CUB7        0.0000 
     73 DU         26.1500    4.8100  -66.7000 H         7 CUB7        0.0000 
     74 DU         25.5900    3.5800  -66.0500 H         7 CUB7        0.0000 
     75 DU         25.0400    2.3500  -65.4000 H         7 CUB7        0.0000 
     76 DU         24.4800    1.1100  -64.7400 H         7 CUB7        0.0000 
     77 DU         26.2900    1.6000  -65.7400 H         7 CUB7        0.0000 
     78 DU         25.7400    0.3700  -65.0900 H         7 CUB7        0.0000 
@<TRIPOS>BOND
@<TRIPOS>SUBSTRUCTURE
     1 SER1        1 GROUP   
     2 ALA2        3 GROUP   
     3 ASP3       11 GROUP   
     4 LYS4       26 GROUP   
     5 PHE5       28 GROUP   
     6 GLY6       36 GROUP   
     7 CUB7       63 GROUP   
@<TRIPOS>SET

