#    Name: 5z68_12_IMD_CAVITY_N1_4
#    Modification time : Fri May 22 19:24:55 2020

@<TRIPOS>MOLECULE
5z68_12_IMD_CAVITY_N1_4
   35     0     6     0     0
SMALL
NO_CHARGES


@<TRIPOS>ATOM
      1 N           8.6500   29.2500  -52.6700 N.am      1 ALA2        0.0000 
      2 N          11.6200   31.3800  -53.0100 N.am      1 ALA2        0.0000 
      3 N          11.0600   30.1500  -52.3600 N.am      1 ALA2        0.0000 
      4 N          10.5100   28.9200  -51.7100 N.am      1 ALA2        0.0000 
      5 N          13.4300   31.8700  -54.0000 N.am      1 ALA2        0.0000 
      6 N          12.8700   30.6400  -53.3500 N.am      1 ALA2        0.0000 
      7 N          12.3200   29.4100  -52.7000 N.am      1 ALA2        0.0000 
      8 OD1         8.0500   29.6000  -49.0600 O.co2     2 ASP3        0.0000 
      9 OD1        10.4100   31.3200  -50.7100 O.co2     2 ASP3        0.0000 
     10 OD1        12.2200   31.8000  -51.7000 O.co2     2 ASP3        0.0000 
     11 OD1        14.0300   32.2900  -52.7000 O.co2     2 ASP3        0.0000 
     12 OD1        13.4800   31.0600  -52.0400 O.co2     2 ASP3        0.0000 
     13 OD1        12.3700   28.5900  -50.7400 O.co2     2 ASP3        0.0000 
     14 OD1         9.2100   31.2500  -48.4100 O.co2     2 ASP3        0.0000 
     15 OD1         8.6500   30.0200  -47.7600 O.co2     2 ASP3        0.0000 
     16 OD1        11.0200   31.7400  -49.4000 O.co2     2 ASP3        0.0000 
     17 OD1        10.4600   30.5100  -48.7500 O.co2     2 ASP3        0.0000 
     18 OD1        13.5300   30.2500  -50.0900 O.co2     2 ASP3        0.0000 
     19 OD1        15.3400   30.7300  -51.0800 O.co2     2 ASP3        0.0000 
     20 OD1         9.8100   31.6700  -47.1000 O.co2     2 ASP3        0.0000 
     21 NZ          8.7000   28.4400  -50.7100 N.4       3 LYS4        0.0000 
     22 CZ          9.3000   28.8500  -49.4100 C.ar      4 PHE5        0.0000 
     23 CZ         10.5600   28.1100  -49.7500 C.ar      4 PHE5        0.0000 
     24 CZ          9.9100   29.2700  -48.1000 C.ar      4 PHE5        0.0000 
     25 CA          8.0000   30.4100  -51.0200 C.3       5 GLY6        0.0000 
     26 CA          9.8100   30.9000  -52.0200 C.3       5 GLY6        0.0000 
     27 CA          9.2500   29.6700  -51.3600 C.3       5 GLY6        0.0000 
     28 CA         12.2700   30.9900  -49.7400 C.3       5 GLY6        0.0000 
     29 CA         11.7200   29.7600  -49.0900 C.3       5 GLY6        0.0000 
     30 CA         12.9700   29.0100  -49.4300 C.3       5 GLY6        0.0000 
     31 CA         11.0700   30.9300  -47.4400 C.3       5 GLY6        0.0000 
     32 DU          9.8600   30.0900  -50.0600 H         6 CUB7        0.0000 
     33 DU         11.6700   30.5700  -51.0500 H         6 CUB7        0.0000 
     34 DU         11.1100   29.3400  -50.4000 H         6 CUB7        0.0000 
     35 DU         12.9200   29.8300  -51.3900 H         6 CUB7        0.0000 
@<TRIPOS>BOND
@<TRIPOS>SUBSTRUCTURE
     1 ALA2        1 GROUP   
     2 ASP3        8 GROUP   
     3 LYS4       21 GROUP   
     4 PHE5       22 GROUP   
     5 GLY6       25 GROUP   
     6 CUB7       32 GROUP   
@<TRIPOS>SET

