#    Name: 5z68_9_IMD_CAVITY_N1_4
#    Modification time : Fri May 22 19:24:46 2020

@<TRIPOS>MOLECULE
5z68_9_IMD_CAVITY_N1_4
   45     0     5     0     0
SMALL
NO_CHARGES


@<TRIPOS>ATOM
      1 N         -13.9900    7.5400   -9.4100 N.am      1 ALA2        0.0000 
      2 N         -13.3800    7.9600   -8.1000 N.am      1 ALA2        0.0000 
      3 N         -12.1300    7.2100   -8.4400 N.am      1 ALA2        0.0000 
      4 N         -12.6800    5.9800   -7.7900 N.am      1 ALA2        0.0000 
      5 N         -13.2400    4.7500   -7.1400 N.am      1 ALA2        0.0000 
      6 N         -13.8900    5.9100   -5.4900 N.am      1 ALA2        0.0000 
      7 N         -13.1900    3.9400   -5.1800 N.am      1 ALA2        0.0000 
      8 OD1       -10.2700    6.1100  -12.3900 O.co2     2 ASP3        0.0000 
      9 OD1       -10.9200    7.2800  -10.7400 O.co2     2 ASP3        0.0000 
     10 OD1       -11.4800    6.0500  -10.0900 O.co2     2 ASP3        0.0000 
     11 OD1       -12.0300    4.8100   -9.4400 O.co2     2 ASP3        0.0000 
     12 OD1        -9.6700    6.5300  -11.0900 O.co2     2 ASP3        0.0000 
     13 OD1       -10.2200    5.3000  -10.4300 O.co2     2 ASP3        0.0000 
     14 OD1        -8.4100    5.7900  -11.4300 O.co2     2 ASP3        0.0000 
     15 OD1       -11.5700    8.4400   -9.1000 O.co2     2 ASP3        0.0000 
     16 OD1       -11.4300    5.2300   -8.1300 O.co2     2 ASP3        0.0000 
     17 OD1       -11.9800    4.0000   -7.4800 O.co2     2 ASP3        0.0000 
     18 OD1       -10.1700    4.4900   -8.4800 O.co2     2 ASP3        0.0000 
     19 OD1       -11.5200    7.6300   -7.1400 O.co2     2 ASP3        0.0000 
     20 OD1       -12.0800    6.4000   -6.4900 O.co2     2 ASP3        0.0000 
     21 OD1       -12.6300    5.1700   -5.8300 O.co2     2 ASP3        0.0000 
     22 OD1        -9.7100    8.1200   -8.1300 O.co2     2 ASP3        0.0000 
     23 OD1       -10.2700    6.8800   -7.4800 O.co2     2 ASP3        0.0000 
     24 OD1       -10.8200    5.6500   -6.8300 O.co2     2 ASP3        0.0000 
     25 OD1       -10.9200    8.0500   -5.8300 O.co2     2 ASP3        0.0000 
     26 OD1       -11.4700    6.8200   -5.1800 O.co2     2 ASP3        0.0000 
     27 OD1       -12.0300    5.5900   -4.5300 O.co2     2 ASP3        0.0000 
     28 OD1       -12.5800    4.3500   -3.8700 O.co2     2 ASP3        0.0000 
     29 OD1        -9.6600    7.3000   -6.1700 O.co2     2 ASP3        0.0000 
     30 OD1       -10.2200    6.0700   -5.5200 O.co2     2 ASP3        0.0000 
     31 CZ        -10.3200    7.7000   -9.4400 C.ar      3 PHE5        0.0000 
     32 CZ         -9.0600    6.9500   -9.7800 C.ar      3 PHE5        0.0000 
     33 CA        -14.5900    7.1200  -10.7200 C.3       4 GLY6        0.0000 
     34 CA        -12.7800    7.6000  -11.7100 C.3       4 GLY6        0.0000 
     35 CA        -13.3400    6.3700  -11.0600 C.3       4 GLY6        0.0000 
     36 CA        -11.5300    6.8600  -12.0500 C.3       4 GLY6        0.0000 
     37 CA        -12.0800    5.6300  -11.4000 C.3       4 GLY6        0.0000 
     38 CA        -12.7300    6.7900   -9.7500 C.3       4 GLY6        0.0000 
     39 CA         -9.6200    5.7200   -9.1300 C.3       4 GLY6        0.0000 
     40 CA         -7.8100    6.2000  -10.1200 C.3       4 GLY6        0.0000 
     41 CA         -8.4600    7.3700   -8.4700 C.3       4 GLY6        0.0000 
     42 CA         -9.0100    6.1400   -7.8200 C.3       4 GLY6        0.0000 
     43 CA         -8.4100    6.5600   -6.5100 C.3       4 GLY6        0.0000 
     44 DU        -12.1800    8.0200  -10.4000 H         5 CUB7        0.0000 
     45 DU        -10.8700    6.4700   -8.7900 H         5 CUB7        0.0000 
@<TRIPOS>BOND
@<TRIPOS>SUBSTRUCTURE
     1 ALA2        1 GROUP   
     2 ASP3        8 GROUP   
     3 PHE5       31 GROUP   
     4 GLY6       33 GROUP   
     5 CUB7       44 GROUP   
@<TRIPOS>SET

