#    Name: 5z68_12_IMD
#    Modification time : Fri May 22 19:24:55 2020

@<TRIPOS>MOLECULE
5z68_12_IMD
    5     5     1     0     0
SMALL
NO_CHARGES


@<TRIPOS>ATOM
      1 N1         11.7680   32.1710  -49.9470 N.pl3     1 IMD402      0.0000 
      2 C2         10.5160   31.8870  -50.3870 C.2       1 IMD402      0.0000 
      3 N3         10.2450   32.6920  -51.4390 N.2       1 IMD402      0.0000 
      4 C4         11.3270   33.4710  -51.6710 C.2       1 IMD402      0.0000 
      5 C5         12.2890   33.1470  -50.7230 C.2       1 IMD402      0.0000 
@<TRIPOS>BOND
     1    1    2 1    
     2    1    5 1    
     3    2    3 2    
     4    3    4 1    
     5    4    5 2    
@<TRIPOS>SUBSTRUCTURE
     1 IMD402      1 GROUP   
@<TRIPOS>SET

