#    Name: 5z68_23_ATP_CAVITY_N1_ALL
#    Modification time : Fri May 22 19:25:54 2020

@<TRIPOS>MOLECULE
5z68_23_ATP_CAVITY_N1_ALL
   70     0     5     0     0
SMALL
NO_CHARGES


@<TRIPOS>ATOM
      1 N         -35.9200    4.1900  -10.2400 N.am      1 ALA2        0.0000 
      2 N         -34.1100    4.6700  -11.2300 N.am      1 ALA2        0.0000 
      3 N         -35.3100    4.6100   -8.9300 N.am      1 ALA2        0.0000 
      4 N         -33.5000    5.0900   -9.9200 N.am      1 ALA2        0.0000 
      5 N         -35.1600    1.4000   -7.9700 N.am      1 ALA2        0.0000 
      6 N         -31.1400    6.8100  -11.5700 N.am      1 ALA2        0.0000 
      7 O         -31.6900    5.5800  -10.9200 O.2       1 ALA2        0.0000 
      8 N         -32.2500    4.3500  -10.2700 N.am      1 ALA2        0.0000 
      9 O         -29.8800    6.0700  -11.9100 O.2       1 ALA2        0.0000 
     10 O         -30.4300    4.8300  -11.2600 O.2       1 ALA2        0.0000 
     11 O         -33.6000    7.4900   -8.9300 O.2       1 ALA2        0.0000 
     12 N         -34.1500    6.2600   -8.2800 N.am      1 ALA2        0.0000 
     13 N         -31.7900    7.9800   -9.9200 N.am      1 ALA2        0.0000 
     14 N         -32.3400    6.7500   -9.2700 N.am      1 ALA2        0.0000 
     15 N         -32.9000    5.5100   -8.6200 N.am      1 ALA2        0.0000 
     16 N         -33.4500    4.2800   -7.9700 N.am      1 ALA2        0.0000 
     17 N         -34.0100    3.0500   -7.3100 N.am      1 ALA2        0.0000 
     18 N         -31.6400    4.7700   -8.9600 N.am      1 ALA2        0.0000 
     19 N         -32.2000    3.5400   -8.3100 N.am      1 ALA2        0.0000 
     20 N         -32.7500    2.3000   -7.6500 N.am      1 ALA2        0.0000 
     21 N         -33.3000    1.0700   -7.0000 N.am      1 ALA2        0.0000 
     22 O         -29.8300    5.2500   -9.9500 O.2       1 ALA2        0.0000 
     23 O         -30.3800    4.0200   -9.3000 O.2       1 ALA2        0.0000 
     24 O         -28.0200    5.7400  -10.9500 O.2       1 ALA2        0.0000 
     25 N         -31.7400    7.1600   -7.9600 N.am      1 ALA2        0.0000 
     26 O         -29.9300    7.6500   -8.9600 O.2       1 ALA2        0.0000 
     27 N         -30.4800    6.4200   -8.3000 N.am      1 ALA2        0.0000 
     28 N         -31.0400    5.1900   -7.6500 N.am      1 ALA2        0.0000 
     29 N         -29.2300    5.6700   -8.6500 N.am      1 ALA2        0.0000 
     30 O         -29.7800    4.4400   -7.9900 O.2       1 ALA2        0.0000 
     31 O         -30.3300    3.2100   -7.3400 O.2       1 ALA2        0.0000 
     32 O         -30.8900    1.9800   -6.6900 O.2       1 ALA2        0.0000 
     33 N         -31.4400    0.7400   -6.0400 N.am      1 ALA2        0.0000 
     34 N         -27.4100    6.1600   -9.6400 N.am      1 ALA2        0.0000 
     35 N         -27.9700    4.9300   -8.9900 N.am      1 ALA2        0.0000 
     36 N         -28.0700    7.3200   -7.9900 N.am      1 ALA2        0.0000 
     37 N         -29.1800    4.8600   -6.6900 N.am      1 ALA2        0.0000 
     38 N         -29.7300    3.6300   -6.0300 N.am      1 ALA2        0.0000 
     39 N         -27.3600    5.3500   -7.6800 N.am      1 ALA2        0.0000 
     40 N         -28.4200    2.0700   -4.4200 N.am      1 ALA2        0.0000 
     41 OD1       -26.8600    7.3900  -10.2900 O.co2     2 ASP3        0.0000 
     42 OD1       -27.9200    4.1100   -7.0300 O.co2     2 ASP3        0.0000 
     43 CZ        -35.2600    3.8000   -6.9700 C.ar      3 PHE5        0.0000 
     44 CZ        -34.5600    1.8200   -6.6600 C.ar      3 PHE5        0.0000 
     45 CZ        -32.8500    4.7000   -6.6600 C.ar      3 PHE5        0.0000 
     46 CZ        -33.4000    3.4700   -6.0100 C.ar      3 PHE5        0.0000 
     47 CZ        -32.1400    2.7200   -6.3500 C.ar      3 PHE5        0.0000 
     48 CZ        -30.9900    4.3700   -5.6900 C.ar      3 PHE5        0.0000 
     49 CZ        -30.2800    2.4000   -5.3800 C.ar      3 PHE5        0.0000 
     50 CZ        -30.8400    1.1600   -4.7300 C.ar      3 PHE5        0.0000 
     51 CZ        -29.1200    4.0500   -4.7300 C.ar      3 PHE5        0.0000 
     52 CZ        -29.6800    2.8200   -4.0800 C.ar      3 PHE5        0.0000 
     53 CA        -36.6200    6.1700  -10.5500 C.3       4 GLY6        0.0000 
     54 CA        -35.3600    5.4200  -10.8900 C.3       4 GLY6        0.0000 
     55 CA        -35.4600    7.8200   -9.8900 C.3       4 GLY6        0.0000 
     56 CA        -36.0100    6.5900   -9.2400 C.3       4 GLY6        0.0000 
     57 CA        -34.2000    7.0700  -10.2300 C.3       4 GLY6        0.0000 
     58 CA        -34.7600    5.8400   -9.5800 C.3       4 GLY6        0.0000 
     59 CA        -32.9500    6.3300  -10.5800 C.3       4 GLY6        0.0000 
     60 CA        -29.3300    7.3000  -12.5600 C.3       4 GLY6        0.0000 
     61 CA        -30.5300    7.2300  -10.2600 C.3       4 GLY6        0.0000 
     62 CA        -28.7200    7.7200  -11.2600 C.3       4 GLY6        0.0000 
     63 CA        -29.2800    6.4800  -10.6000 C.3       4 GLY6        0.0000 
     64 CA        -28.6700    6.9000   -9.3000 C.3       4 GLY6        0.0000 
     65 CA        -28.4700    2.8800   -6.3800 C.3       4 GLY6        0.0000 
     66 CA        -29.0300    1.6500   -5.7200 C.3       4 GLY6        0.0000 
     67 CA        -29.5800    0.4200   -5.0700 C.3       4 GLY6        0.0000 
     68 DU        -34.7100    5.0300   -7.6200 H         5 CUB7        0.0000 
     69 DU        -31.0900    6.0000   -9.6100 H         5 CUB7        0.0000 
     70 DU        -31.5900    3.9500   -7.0000 H         5 CUB7        0.0000 
@<TRIPOS>BOND
@<TRIPOS>SUBSTRUCTURE
     1 ALA2        1 GROUP   
     2 ASP3       41 GROUP   
     3 PHE5       43 GROUP   
     4 GLY6       53 GROUP   
     5 CUB7       68 GROUP   
@<TRIPOS>SET

