#    Name: 5z68_9_IMD
#    Modification time : Fri May 22 19:24:45 2020

@<TRIPOS>MOLECULE
5z68_9_IMD
    5     5     1     0     0
SMALL
NO_CHARGES


@<TRIPOS>ATOM
      1 N1        -12.1470    4.5780   -9.7860 N.pl3     1 IMD404      0.0000 
      2 C2        -11.0620    5.0250   -9.1380 C.2       1 IMD404      0.0000 
      3 N3        -11.1430    4.6100   -7.8550 N.2       1 IMD404      0.0000 
      4 C4        -12.2550    3.8930   -7.6560 C.2       1 IMD404      0.0000 
      5 C5        -12.8770    3.8670   -8.8950 C.2       1 IMD404      0.0000 
@<TRIPOS>BOND
     1    1    2 1    
     2    1    5 1    
     3    2    3 2    
     4    3    4 1    
     5    4    5 2    
@<TRIPOS>SUBSTRUCTURE
     1 IMD404      1 GROUP   
@<TRIPOS>SET

