#    Name: 5z68_15_IMD
#    Modification time : Fri May 22 19:25:04 2020

@<TRIPOS>MOLECULE
5z68_15_IMD
    5     5     1     0     0
SMALL
NO_CHARGES


@<TRIPOS>ATOM
      1 N1         -4.5190   29.0670  -37.5720 N.pl3     1 IMD405      0.0000 
      2 C2         -3.4970   28.4540  -38.2110 C.2       1 IMD405      0.0000 
      3 N3         -3.8570   28.2570  -39.5020 N.2       1 IMD405      0.0000 
      4 C4         -5.1060   28.7450  -39.6790 C.2       1 IMD405      0.0000 
      5 C5         -5.5240   29.2560  -38.4560 C.2       1 IMD405      0.0000 
@<TRIPOS>BOND
     1    1    2 1    
     2    1    5 1    
     3    2    3 2    
     4    3    4 1    
     5    4    5 2    
@<TRIPOS>SUBSTRUCTURE
     1 IMD405      1 GROUP   
@<TRIPOS>SET

