#    Name: 5z68_24_ATP_CAVITY_N1_ALL
#    Modification time : Fri May 22 19:26:13 2020

@<TRIPOS>MOLECULE
5z68_24_ATP_CAVITY_N1_ALL
   99     0     6     0     0
SMALL
NO_CHARGES


@<TRIPOS>ATOM
      1 OG          7.4900   37.7700  -75.5300 O.3       1 SER1        0.0000 
      2 O           2.2500   31.5100  -74.5400 O.2       2 ALA2        0.0000 
      3 O           4.0600   32.0000  -75.5300 O.2       2 ALA2        0.0000 
      4 O           0.9000   34.6600  -73.2000 O.2       2 ALA2        0.0000 
      5 N           0.3500   33.4300  -72.5500 N.am      2 ALA2        0.0000 
      6 N           1.6000   32.6800  -72.8900 N.am      2 ALA2        0.0000 
      7 N           1.0500   31.4500  -72.2400 N.am      2 ALA2        0.0000 
      8 O           0.9500   33.8500  -71.2400 O.2       2 ALA2        0.0000 
      9 O           2.7600   34.3300  -72.2400 O.2       2 ALA2        0.0000 
     10 N           2.2100   33.1000  -71.5800 N.am      2 ALA2        0.0000 
     11 O           2.8100   33.5200  -70.2800 O.2       2 ALA2        0.0000 
     12 N           2.2600   32.2900  -69.6200 N.am      2 ALA2        0.0000 
     13 N           4.7700   30.7900  -70.3100 N.am      2 ALA2        0.0000 
     14 N           6.5800   31.2800  -71.3000 N.am      2 ALA2        0.0000 
     15 N           6.0200   30.0500  -70.6500 N.am      2 ALA2        0.0000 
     16 N           5.6400   38.8700  -71.5800 N.am      2 ALA2        0.0000 
     17 O           2.8600   32.7100  -68.3200 O.2       2 ALA2        0.0000 
     18 O           3.5600   30.7300  -68.0100 O.2       2 ALA2        0.0000 
     19 N           5.3700   31.2100  -69.0000 N.am      2 ALA2        0.0000 
     20 O           4.8200   29.9800  -68.3500 O.2       2 ALA2        0.0000 
     21 O           2.9100   31.8900  -66.3600 O.2       2 ALA2        0.0000 
     22 N           6.9400   37.3100  -69.9600 N.am      2 ALA2        0.0000 
     23 O           6.3900   36.0700  -69.3100 O.2       2 ALA2        0.0000 
     24 O           5.2800   33.6100  -68.0000 O.2       2 ALA2        0.0000 
     25 O           4.7200   32.3800  -67.3500 O.2       2 ALA2        0.0000 
     26 O           4.1700   31.1500  -66.7000 O.2       2 ALA2        0.0000 
     27 O           5.9800   31.6300  -67.6900 O.2       2 ALA2        0.0000 
     28 O           5.4200   30.4000  -67.0400 O.2       2 ALA2        0.0000 
     29 O           5.8800   34.0300  -66.7000 O.2       2 ALA2        0.0000 
     30 N           5.3300   32.8000  -66.0500 N.am      2 ALA2        0.0000 
     31 N           6.5800   32.0500  -66.3900 N.am      2 ALA2        0.0000 
     32 O           7.8400   31.3100  -66.7300 O.2       2 ALA2        0.0000 
     33 O           7.2800   30.0700  -66.0800 O.2       2 ALA2        0.0000 
     34 OD1         3.1700   38.7700  -73.8500 O.co2     3 ASP3        0.0000 
     35 OD1         2.6200   37.5400  -73.2000 O.co2     3 ASP3        0.0000 
     36 OD1         7.6900   34.5200  -67.6900 O.co2     3 ASP3        0.0000 
     37 OD1         7.1400   33.2800  -67.0400 O.co2     3 ASP3        0.0000 
     38 OD1         6.0300   30.8200  -65.7300 O.co2     3 ASP3        0.0000 
     39 OD1         7.1900   32.4700  -65.0800 O.co2     3 ASP3        0.0000 
     40 OD1         8.4400   31.7300  -65.4200 O.co2     3 ASP3        0.0000 
     41 CZ          6.4800   32.9100  -75.2200 C.ar      4 PHE5        0.0000 
     42 CZ          5.6800   37.2800  -74.5300 C.ar      4 PHE5        0.0000 
     43 CZ          5.1300   36.0500  -73.8800 C.ar      4 PHE5        0.0000 
     44 CZ          6.9400   36.5300  -74.8700 C.ar      4 PHE5        0.0000 
     45 CZ          6.3800   35.3000  -74.2200 C.ar      4 PHE5        0.0000 
     46 CZ          5.8300   34.0700  -73.5700 C.ar      4 PHE5        0.0000 
     47 CZ          6.2900   37.7000  -73.2300 C.ar      4 PHE5        0.0000 
     48 CZ          5.7300   36.4700  -72.5700 C.ar      4 PHE5        0.0000 
     49 CZ          5.8800   33.2600  -71.6100 C.ar      4 PHE5        0.0000 
     50 CZ          7.1300   32.5100  -71.9500 C.ar      4 PHE5        0.0000 
     51 CZ          6.8900   38.1200  -71.9200 C.ar      4 PHE5        0.0000 
     52 CZ          6.3400   36.8900  -71.2700 C.ar      4 PHE5        0.0000 
     53 CZ          6.4800   33.6800  -70.3000 C.ar      4 PHE5        0.0000 
     54 CZ          7.7400   32.9300  -70.6500 C.ar      4 PHE5        0.0000 
     55 CZ          8.2000   36.5600  -70.3000 C.ar      4 PHE5        0.0000 
     56 CZ          7.6400   35.3300  -69.6500 C.ar      4 PHE5        0.0000 
     57 CZ          7.0900   34.1000  -69.0000 C.ar      4 PHE5        0.0000 
     58 CZ          8.3400   33.3500  -69.3400 C.ar      4 PHE5        0.0000 
     59 CZ          9.5000   35.0000  -68.6800 C.ar      4 PHE5        0.0000 
     60 CZ          8.9500   33.7700  -68.0300 C.ar      4 PHE5        0.0000 
     61 CA          3.3200   35.5600  -72.8900 C.3       5 GLY6        0.0000 
     62 CA          2.9100   31.1200  -71.2700 C.3       5 GLY6        0.0000 
     63 CA          5.5900   39.6800  -73.5400 C.3       5 GLY6        0.0000 
     64 CA          4.4800   37.2100  -72.2300 C.3       5 GLY6        0.0000 
     65 CA          3.3700   34.7500  -70.9300 C.3       5 GLY6        0.0000 
     66 CA          6.8400   38.9300  -73.8800 C.3       5 GLY6        0.0000 
     67 CA          5.1800   35.2400  -71.9200 C.3       5 GLY6        0.0000 
     68 CA          4.6200   34.0000  -71.2700 C.3       5 GLY6        0.0000 
     69 CA          3.5100   31.5400  -69.9700 C.3       5 GLY6        0.0000 
     70 CA          2.9600   30.3100  -69.3100 C.3       5 GLY6        0.0000 
     71 CA          3.4200   33.9400  -68.9700 C.3       5 GLY6        0.0000 
     72 CA          2.3100   31.4700  -67.6700 C.3       5 GLY6        0.0000 
     73 CA          5.7800   35.6600  -70.6100 C.3       5 GLY6        0.0000 
     74 CA          5.2300   34.4200  -69.9600 C.3       5 GLY6        0.0000 
     75 CA          7.1800   31.7000  -69.9900 C.3       5 GLY6        0.0000 
     76 CA          6.6300   30.4700  -69.3400 C.3       5 GLY6        0.0000 
     77 CA          2.3600   30.6600  -65.7100 C.3       5 GLY6        0.0000 
     78 CA          5.8300   34.8400  -68.6600 C.3       5 GLY6        0.0000 
     79 CA          7.7900   32.1200  -68.6900 C.3       5 GLY6        0.0000 
     80 CA          6.4400   35.2600  -67.3500 C.3       5 GLY6        0.0000 
     81 CA          8.2500   35.7500  -68.3400 C.3       5 GLY6        0.0000 
     82 CA          8.3900   32.5400  -67.3800 C.3       5 GLY6        0.0000 
     83 DU          2.1600   33.9100  -73.5400 H         6 CUB7        0.0000 
     84 DU          3.4100   33.1700  -73.8800 H         6 CUB7        0.0000 
     85 DU          2.8600   31.9300  -73.2300 H         6 CUB7        0.0000 
     86 DU          4.4300   38.0300  -74.1900 H         6 CUB7        0.0000 
     87 DU          3.8700   36.7900  -73.5400 H         6 CUB7        0.0000 
     88 DU          6.2400   38.5100  -75.1800 H         6 CUB7        0.0000 
     89 DU          4.5700   34.8200  -73.2300 H         6 CUB7        0.0000 
     90 DU          4.0200   33.5900  -72.5800 H         6 CUB7        0.0000 
     91 DU          3.4600   32.3500  -71.9300 H         6 CUB7        0.0000 
     92 DU          5.2700   32.8400  -72.9200 H         6 CUB7        0.0000 
     93 DU          5.0300   38.4500  -72.8800 H         6 CUB7        0.0000 
     94 DU          4.0700   32.7700  -70.6200 H         6 CUB7        0.0000 
     95 DU          5.3200   32.0300  -70.9600 H         6 CUB7        0.0000 
     96 DU          4.6700   33.1900  -69.3100 H         6 CUB7        0.0000 
     97 DU          4.1200   31.9600  -68.6600 H         6 CUB7        0.0000 
     98 DU          5.9300   32.4500  -69.6500 H         6 CUB7        0.0000 
     99 DU          6.5300   32.8600  -68.3500 H         6 CUB7        0.0000 
@<TRIPOS>BOND
@<TRIPOS>SUBSTRUCTURE
     1 SER1        1 GROUP   
     2 ALA2        2 GROUP   
     3 ASP3       34 GROUP   
     4 PHE5       41 GROUP   
     5 GLY6       61 GROUP   
     6 CUB7       83 GROUP   
@<TRIPOS>SET

