#    Name: 5z68_25_ATP
#    Modification time : Fri May 22 19:26:30 2020

@<TRIPOS>MOLECULE
5z68_25_ATP
   31    33     1     0     1
SMALL
NO_CHARGES


@<TRIPOS>ATOM
      1 PG          1.0180    6.6850  -52.8300 P.3       1 ATP401      0.0000 
      2 O1G         1.4820    6.4420  -54.2570 O.co2     1 ATP401      0.0000 
      3 O2G        -0.3720    6.1960  -52.5030 O.co2     1 ATP401      0.0000 
      4 O3G         1.2410    8.0880  -52.3390 O.co2     1 ATP401      0.0000 
      5 PB          2.0400    4.1840  -51.9740 P.3       1 ATP401      0.0000 
      6 O1B         2.6430    3.8250  -53.2950 O.co2     1 ATP401      0.0000 
      7 O2B         0.6720    3.6400  -51.6440 O.co2     1 ATP401      0.0000 
      8 O3B         1.9840    5.7970  -51.8780 O.3       1 ATP401      0.0000 
      9 PA          4.6570    3.5490  -51.2560 P.3       1 ATP401      0.0000 
     10 O1A         4.8350    2.3390  -52.1460 O.co2     1 ATP401      0.0000 
     11 O2A         5.1980    4.8910  -51.6870 O.co2     1 ATP401      0.0000 
     12 O3A         3.1090    3.7490  -50.8620 O.3       1 ATP401      0.0000 
     13 O5'         5.2640    3.1340  -49.8490 O.3       1 ATP401      0.0000 
     14 C5'         4.2760    2.9440  -48.8530 C.3       1 ATP401      0.0000 
     15 C4'         5.0730    2.5900  -47.6390 C.3       1 ATP401      0.0000 
     16 O4'         6.3150    2.0380  -48.0580 O.3       1 ATP401      0.0000 
     17 C3'         5.4250    3.8630  -46.9060 C.3       1 ATP401      0.0000 
     18 O3'         4.6460    3.8960  -45.7090 O.3       1 ATP401      0.0000 
     19 C2'         6.9210    3.7450  -46.6650 C.3       1 ATP401      0.0000 
     20 O2'         7.2910    4.0890  -45.3330 O.3       1 ATP401      0.0000 
     21 C1'         7.1760    2.2820  -46.9640 C.3       1 ATP401      0.0000 
     22 N9          8.5900    1.9750  -47.2430 N.pl3     1 ATP401      0.0000 
     23 C8          9.3900    2.5300  -48.1630 C.2       1 ATP401      0.0000 
     24 N7         10.6390    1.9930  -48.1040 N.2       1 ATP401      0.0000 
     25 C5         10.6410    1.0760  -47.1270 C.ar      1 ATP401      0.0000 
     26 C6         11.6230    0.1440  -46.5440 C.ar      1 ATP401      0.0000 
     27 N6         12.8970    0.0720  -46.9980 N.pl3     1 ATP401      0.0000 
     28 N1         11.2000   -0.6350  -45.5290 N.ar      1 ATP401      0.0000 
     29 C2          9.9340   -0.5830  -45.0710 C.ar      1 ATP401      0.0000 
     30 N3          8.9900    0.2420  -45.5520 N.ar      1 ATP401      0.0000 
     31 C4          9.2880    1.0780  -46.5640 C.ar      1 ATP401      0.0000 
@<TRIPOS>BOND
     1    1    2 ar   
     2    1    3 ar   
     3    1    4 ar   
     4    1    8 1    
     5    5    6 ar   
     6    5    7 ar   
     7    5    8 1    
     8    5   12 1    
     9    9   10 ar   
    10    9   11 ar   
    11    9   12 1    
    12    9   13 1    
    13   13   14 1    
    14   14   15 1    
    15   15   16 1    
    16   15   17 1    
    17   16   21 1    
    18   17   18 1    
    19   17   19 1    
    20   19   20 1    
    21   19   21 1    
    22   21   22 1    
    23   22   23 1    
    24   22   31 1    
    25   23   24 2    
    26   24   25 1    
    27   25   26 ar   
    28   25   31 ar   
    29   26   27 1    
    30   26   28 ar   
    31   28   29 ar   
    32   29   30 ar   
    33   30   31 ar   
@<TRIPOS>SUBSTRUCTURE
     1 ATP401      1 GROUP   
@<TRIPOS>SET
ATOM$ORANGE STATIC     ATOMS   COLORGROUP SYSTEM 
20 14 14 15 15 17 17 19 19 21 21 23 23 25 25 26 26 29 \
29 31 31 

