#    Name: 5z68_17_IMD_CAVITY_N1_6
#    Modification time : Fri May 22 19:25:23 2020

@<TRIPOS>MOLECULE
5z68_17_IMD_CAVITY_N1_6
   19     0     5     0     0
SMALL
NO_CHARGES


@<TRIPOS>ATOM
      1 N          20.8100    0.9600  -64.7200 N.am      1 ALA2        0.0000 
      2 N          22.0700    0.2100  -65.0600 N.am      1 ALA2        0.0000 
      3 OD1        21.9700    2.6100  -64.0600 O.co2     2 ASP3        0.0000 
      4 OD1        23.7800    3.0900  -65.0600 O.co2     2 ASP3        0.0000 
      5 OD1        23.2300    1.8600  -64.4000 O.co2     2 ASP3        0.0000 
      6 CZ         24.4300    1.9300  -66.7000 C.ar      3 PHE5        0.0000 
      7 CZ         25.6900    1.1800  -67.0500 C.ar      3 PHE5        0.0000 
      8 CZ         25.1300   -0.0500  -66.3900 C.ar      3 PHE5        0.0000 
      9 CA         23.8800    0.7000  -66.0500 C.3       4 GLY6        0.0000 
     10 CA         23.3200   -0.5400  -65.4000 C.3       4 GLY6        0.0000 
     11 CA         22.6700    0.6300  -63.7500 C.3       4 GLY6        0.0000 
     12 CA         23.9300   -0.1200  -64.0900 C.3       4 GLY6        0.0000 
     13 CA         25.1800   -0.8600  -64.4300 C.3       4 GLY6        0.0000 
     14 DU         22.6200    1.4400  -65.7100 H         5 CUB7        0.0000 
     15 DU         25.5900    3.5800  -66.0500 H         5 CUB7        0.0000 
     16 DU         25.0400    2.3500  -65.4000 H         5 CUB7        0.0000 
     17 DU         24.4800    1.1100  -64.7400 H         5 CUB7        0.0000 
     18 DU         26.2900    1.6000  -65.7400 H         5 CUB7        0.0000 
     19 DU         25.7400    0.3700  -65.0900 H         5 CUB7        0.0000 
@<TRIPOS>BOND
@<TRIPOS>SUBSTRUCTURE
     1 ALA2        1 GROUP   
     2 ASP3        3 GROUP   
     3 PHE5        6 GROUP   
     4 GLY6        9 GROUP   
     5 CUB7       14 GROUP   
@<TRIPOS>SET

