#    Name: 5z68_21_IMD
#    Modification time : Fri May 22 19:25:33 2020

@<TRIPOS>MOLECULE
5z68_21_IMD
    5     5     1     0     0
SMALL
NO_CHARGES


@<TRIPOS>ATOM
      1 N1         -1.3460    4.5750  -77.1470 N.pl3     1 IMD407      0.0000 
      2 C2         -0.9870    4.6360  -78.4600 C.2       1 IMD407      0.0000 
      3 N3          0.1090    5.4340  -78.5780 N.2       1 IMD407      0.0000 
      4 C4          0.4360    5.8760  -77.3320 C.2       1 IMD407      0.0000 
      5 C5         -0.4820    5.3330  -76.4220 C.2       1 IMD407      0.0000 
@<TRIPOS>BOND
     1    1    2 1    
     2    1    5 1    
     3    2    3 2    
     4    3    4 1    
     5    4    5 2    
@<TRIPOS>SUBSTRUCTURE
     1 IMD407      1 GROUP   
@<TRIPOS>SET

