#    Name: 5z68_9_IMD_CAVITY_N1_12
#    Modification time : Fri May 22 19:24:46 2020

@<TRIPOS>MOLECULE
5z68_9_IMD_CAVITY_N1_12
   77     0     6     0     0
SMALL
NO_CHARGES


@<TRIPOS>ATOM
      1 N         -13.9900    7.5400   -9.4100 N.am      1 ALA2        0.0000 
      2 N         -13.3800    7.9600   -8.1000 N.am      1 ALA2        0.0000 
      3 N         -12.1300    7.2100   -8.4400 N.am      1 ALA2        0.0000 
      4 N         -12.6800    5.9800   -7.7900 N.am      1 ALA2        0.0000 
      5 N         -13.2400    4.7500   -7.1400 N.am      1 ALA2        0.0000 
      6 N         -13.8900    5.9100   -5.4900 N.am      1 ALA2        0.0000 
      7 N         -13.1900    3.9400   -5.1800 N.am      1 ALA2        0.0000 
      8 OD1       -10.2700    6.1100  -12.3900 O.co2     2 ASP3        0.0000 
      9 OD1       -10.3700    8.5100  -11.4000 O.co2     2 ASP3        0.0000 
     10 OD1       -10.9200    7.2800  -10.7400 O.co2     2 ASP3        0.0000 
     11 OD1       -11.4800    6.0500  -10.0900 O.co2     2 ASP3        0.0000 
     12 OD1       -12.0300    4.8100   -9.4400 O.co2     2 ASP3        0.0000 
     13 OD1        -9.1100    7.7600  -11.7400 O.co2     2 ASP3        0.0000 
     14 OD1        -9.6700    6.5300  -11.0900 O.co2     2 ASP3        0.0000 
     15 OD1       -10.2200    5.3000  -10.4300 O.co2     2 ASP3        0.0000 
     16 OD1        -8.4100    5.7900  -11.4300 O.co2     2 ASP3        0.0000 
     17 OD1       -12.8300    9.1900   -8.7500 O.co2     2 ASP3        0.0000 
     18 OD1       -11.0200    9.6800   -9.7500 O.co2     2 ASP3        0.0000 
     19 OD1       -11.5700    8.4400   -9.1000 O.co2     2 ASP3        0.0000 
     20 OD1       -11.4300    5.2300   -8.1300 O.co2     2 ASP3        0.0000 
     21 OD1       -11.9800    4.0000   -7.4800 O.co2     2 ASP3        0.0000 
     22 OD1       -10.1700    4.4900   -8.4800 O.co2     2 ASP3        0.0000 
     23 OD1       -10.9700    8.8600   -7.7900 O.co2     2 ASP3        0.0000 
     24 OD1       -11.5200    7.6300   -7.1400 O.co2     2 ASP3        0.0000 
     25 OD1       -12.0800    6.4000   -6.4900 O.co2     2 ASP3        0.0000 
     26 OD1       -12.6300    5.1700   -5.8300 O.co2     2 ASP3        0.0000 
     27 OD1        -9.7100    8.1200   -8.1300 O.co2     2 ASP3        0.0000 
     28 OD1       -10.2700    6.8800   -7.4800 O.co2     2 ASP3        0.0000 
     29 OD1       -10.8200    5.6500   -6.8300 O.co2     2 ASP3        0.0000 
     30 OD1       -10.9200    8.0500   -5.8300 O.co2     2 ASP3        0.0000 
     31 OD1       -11.4700    6.8200   -5.1800 O.co2     2 ASP3        0.0000 
     32 OD1       -12.0300    5.5900   -4.5300 O.co2     2 ASP3        0.0000 
     33 OD1       -12.5800    4.3500   -3.8700 O.co2     2 ASP3        0.0000 
     34 OD1        -9.6600    7.3000   -6.1700 O.co2     2 ASP3        0.0000 
     35 OD1       -10.2200    6.0700   -5.5200 O.co2     2 ASP3        0.0000 
     36 OD1       -10.3100    8.4700   -4.5200 O.co2     2 ASP3        0.0000 
     37 OD1       -11.4200    6.0100   -3.2200 O.co2     2 ASP3        0.0000 
     38 OD1       -11.9800    4.7700   -2.5700 O.co2     2 ASP3        0.0000 
     39 OD1        -9.6100    6.4900   -4.2100 O.co2     2 ASP3        0.0000 
     40 OD1        -8.3600    5.7500   -4.5500 O.co2     2 ASP3        0.0000 
     41 OD1       -11.5200    8.4000   -2.2200 O.co2     2 ASP3        0.0000 
     42 OD1       -10.8200    6.4300   -1.9100 O.co2     2 ASP3        0.0000 
     43 OD1        -9.5600    5.6800   -2.2500 O.co2     2 ASP3        0.0000 
     44 NZ        -14.0400    8.3500  -11.3700 N.4       3 LYS4        0.0000 
     45 NZ         -9.0200    5.3700  -12.7300 N.4       3 LYS4        0.0000 
     46 NZ         -7.7600    4.6200  -13.0800 N.4       3 LYS4        0.0000 
     47 NZ        -13.4300    8.7700  -10.0600 N.4       3 LYS4        0.0000 
     48 NZ        -11.6200    9.2600  -11.0500 N.4       3 LYS4        0.0000 
     49 NZ         -7.8600    7.0200  -12.0800 N.4       3 LYS4        0.0000 
     50 NZ         -6.6000    6.2700  -12.4200 N.4       3 LYS4        0.0000 
     51 NZ         -7.1600    5.0400  -11.7700 N.4       3 LYS4        0.0000 
     52 CZ         -9.7600    8.9300  -10.0900 C.ar      4 PHE5        0.0000 
     53 CZ        -10.3200    7.7000   -9.4400 C.ar      4 PHE5        0.0000 
     54 CZ         -9.0600    6.9500   -9.7800 C.ar      4 PHE5        0.0000 
     55 CZ         -7.2500    7.4400  -10.7700 C.ar      4 PHE5        0.0000 
     56 CA        -14.5900    7.1200  -10.7200 C.3       5 GLY6        0.0000 
     57 CA        -12.7800    7.6000  -11.7100 C.3       5 GLY6        0.0000 
     58 CA        -13.3400    6.3700  -11.0600 C.3       5 GLY6        0.0000 
     59 CA        -11.5300    6.8600  -12.0500 C.3       5 GLY6        0.0000 
     60 CA        -12.0800    5.6300  -11.4000 C.3       5 GLY6        0.0000 
     61 CA        -12.7300    6.7900   -9.7500 C.3       5 GLY6        0.0000 
     62 CA         -9.6200    5.7200   -9.1300 C.3       5 GLY6        0.0000 
     63 CA         -7.8100    6.2000  -10.1200 C.3       5 GLY6        0.0000 
     64 CA         -8.4600    7.3700   -8.4700 C.3       5 GLY6        0.0000 
     65 CA         -9.0100    6.1400   -7.8200 C.3       5 GLY6        0.0000 
     66 CA        -13.2800    6.3300   -4.1800 C.3       5 GLY6        0.0000 
     67 CA        -13.8400    5.1000   -3.5300 C.3       5 GLY6        0.0000 
     68 CA         -9.1100    8.5400   -6.8200 C.3       5 GLY6        0.0000 
     69 CA         -8.4100    6.5600   -6.5100 C.3       5 GLY6        0.0000 
     70 CA        -10.8700    7.2400   -3.8700 C.3       5 GLY6        0.0000 
     71 CA         -9.0600    7.7200   -4.8600 C.3       5 GLY6        0.0000 
     72 CA        -10.2600    7.6600   -2.5600 C.3       5 GLY6        0.0000 
     73 CA         -8.9600    6.1000   -0.9500 C.3       5 GLY6        0.0000 
     74 DU        -12.1800    8.0200  -10.4000 H         6 CUB7        0.0000 
     75 DU        -10.8700    6.4700   -8.7900 H         6 CUB7        0.0000 
     76 DU        -12.1200    7.9800   -3.5300 H         6 CUB7        0.0000 
     77 DU        -12.6800    6.7500   -2.8800 H         6 CUB7        0.0000 
@<TRIPOS>BOND
@<TRIPOS>SUBSTRUCTURE
     1 ALA2        1 GROUP   
     2 ASP3        8 GROUP   
     3 LYS4       44 GROUP   
     4 PHE5       52 GROUP   
     5 GLY6       56 GROUP   
     6 CUB7       74 GROUP   
@<TRIPOS>SET

