#    Name: 5z68_12_IMD_CAVITY_N1_8
#    Modification time : Fri May 22 19:24:55 2020

@<TRIPOS>MOLECULE
5z68_12_IMD_CAVITY_N1_8
   74     0     7     0     0
SMALL
NO_CHARGES


@<TRIPOS>ATOM
      1 OG          7.4900   27.6000  -53.3300 O.3       1 SER1        0.0000 
      2 N           8.6900   27.6600  -55.6300 N.am      2 ALA2        0.0000 
      3 N           9.9500   26.9200  -55.9700 N.am      2 ALA2        0.0000 
      4 N           8.0400   28.8300  -53.9800 N.am      2 ALA2        0.0000 
      5 N          10.5500   27.3400  -54.6600 N.am      2 ALA2        0.0000 
      6 N           8.6500   29.2500  -52.6700 N.am      2 ALA2        0.0000 
      7 N           9.9000   28.5000  -53.0100 N.am      2 ALA2        0.0000 
      8 N          11.6200   31.3800  -53.0100 N.am      2 ALA2        0.0000 
      9 N          11.0600   30.1500  -52.3600 N.am      2 ALA2        0.0000 
     10 N          10.5100   28.9200  -51.7100 N.am      2 ALA2        0.0000 
     11 N          13.4300   31.8700  -54.0000 N.am      2 ALA2        0.0000 
     12 N          12.8700   30.6400  -53.3500 N.am      2 ALA2        0.0000 
     13 N          12.3200   29.4100  -52.7000 N.am      2 ALA2        0.0000 
     14 N          16.4900   31.6100  -55.3400 N.am      2 ALA2        0.0000 
     15 N          14.7800   29.5000  -50.4300 N.am      2 ALA2        0.0000 
     16 OD1         8.7400   26.8500  -53.6700 O.co2     3 ASP3        0.0000 
     17 OD1         9.3500   27.2700  -52.3600 O.co2     3 ASP3        0.0000 
     18 OD1         7.4400   29.1800  -50.3700 O.co2     3 ASP3        0.0000 
     19 OD1         9.9500   27.6900  -51.0500 O.co2     3 ASP3        0.0000 
     20 OD1        11.7600   28.1700  -52.0500 O.co2     3 ASP3        0.0000 
     21 OD1         8.0500   29.6000  -49.0600 O.co2     3 ASP3        0.0000 
     22 OD1        10.4100   31.3200  -50.7100 O.co2     3 ASP3        0.0000 
     23 OD1        12.2200   31.8000  -51.7000 O.co2     3 ASP3        0.0000 
     24 OD1        14.0300   32.2900  -52.7000 O.co2     3 ASP3        0.0000 
     25 OD1        13.4800   31.0600  -52.0400 O.co2     3 ASP3        0.0000 
     26 OD1        12.3700   28.5900  -50.7400 O.co2     3 ASP3        0.0000 
     27 OD1        11.8100   27.3600  -50.0900 O.co2     3 ASP3        0.0000 
     28 OD1        15.8400   32.7800  -53.6900 O.co2     3 ASP3        0.0000 
     29 OD1        15.2900   31.5400  -53.0400 O.co2     3 ASP3        0.0000 
     30 OD1        14.7300   30.3100  -52.3900 O.co2     3 ASP3        0.0000 
     31 OD1        14.1800   29.0800  -51.7300 O.co2     3 ASP3        0.0000 
     32 OD1        13.6200   27.8500  -51.0800 O.co2     3 ASP3        0.0000 
     33 OD1        14.8800   27.1000  -51.4200 O.co2     3 ASP3        0.0000 
     34 OD1         9.2100   31.2500  -48.4100 O.co2     3 ASP3        0.0000 
     35 OD1         8.6500   30.0200  -47.7600 O.co2     3 ASP3        0.0000 
     36 OD1        11.0200   31.7400  -49.4000 O.co2     3 ASP3        0.0000 
     37 OD1        10.4600   30.5100  -48.7500 O.co2     3 ASP3        0.0000 
     38 OD1        13.5300   30.2500  -50.0900 O.co2     3 ASP3        0.0000 
     39 OD1        15.3400   30.7300  -51.0800 O.co2     3 ASP3        0.0000 
     40 OD1         9.8100   31.6700  -47.1000 O.co2     3 ASP3        0.0000 
     41 NZ          6.8400   28.7600  -51.6800 N.4       4 LYS4        0.0000 
     42 NZ          8.0900   28.0200  -52.0200 N.4       4 LYS4        0.0000 
     43 NZ          8.7000   28.4400  -50.7100 N.4       4 LYS4        0.0000 
     44 NZ          9.4000   26.4600  -50.4000 N.4       4 LYS4        0.0000 
     45 NZ          9.2600   30.4400  -46.4500 N.4       4 LYS4        0.0000 
     46 CZ          9.3000   28.8500  -49.4100 C.ar      5 PHE5        0.0000 
     47 CZ          8.7500   27.6200  -48.7500 C.ar      5 PHE5        0.0000 
     48 CZ         10.5600   28.1100  -49.7500 C.ar      5 PHE5        0.0000 
     49 CZ          9.9100   29.2700  -48.1000 C.ar      5 PHE5        0.0000 
     50 CZ         10.5100   29.6900  -46.7900 C.ar      5 PHE5        0.0000 
     51 CA          8.1400   26.4300  -54.9700 C.3       6 GLY6        0.0000 
     52 CA          7.3900   29.9900  -52.3300 C.3       6 GLY6        0.0000 
     53 CA          8.0000   30.4100  -51.0200 C.3       6 GLY6        0.0000 
     54 CA          9.8100   30.9000  -52.0200 C.3       6 GLY6        0.0000 
     55 CA          9.2500   29.6700  -51.3600 C.3       6 GLY6        0.0000 
     56 CA         14.6800   31.1200  -54.3400 C.3       6 GLY6        0.0000 
     57 CA         15.9400   30.3800  -54.6900 C.3       6 GLY6        0.0000 
     58 CA         15.9900   29.5700  -52.7300 C.3       6 GLY6        0.0000 
     59 CA         15.4300   28.3300  -52.0800 C.3       6 GLY6        0.0000 
     60 CA         16.6900   27.5900  -52.4200 C.3       6 GLY6        0.0000 
     61 CA         16.1400   26.3600  -51.7700 C.3       6 GLY6        0.0000 
     62 CA         12.2700   30.9900  -49.7400 C.3       6 GLY6        0.0000 
     63 CA         11.7200   29.7600  -49.0900 C.3       6 GLY6        0.0000 
     64 CA         12.9700   29.0100  -49.4300 C.3       6 GLY6        0.0000 
     65 CA         12.4200   27.7800  -48.7800 C.3       6 GLY6        0.0000 
     66 CA         14.2300   28.2700  -49.7700 C.3       6 GLY6        0.0000 
     67 CA         16.5900   29.9800  -51.4200 C.3       6 GLY6        0.0000 
     68 CA         11.0700   30.9300  -47.4400 C.3       6 GLY6        0.0000 
     69 DU         15.3800   29.1500  -54.0300 H         7 CUB7        0.0000 
     70 DU         16.0900   27.1700  -53.7200 H         7 CUB7        0.0000 
     71 DU          9.8600   30.0900  -50.0600 H         7 CUB7        0.0000 
     72 DU         11.6700   30.5700  -51.0500 H         7 CUB7        0.0000 
     73 DU         11.1100   29.3400  -50.4000 H         7 CUB7        0.0000 
     74 DU         12.9200   29.8300  -51.3900 H         7 CUB7        0.0000 
@<TRIPOS>BOND
@<TRIPOS>SUBSTRUCTURE
     1 SER1        1 GROUP   
     2 ALA2        2 GROUP   
     3 ASP3       16 GROUP   
     4 LYS4       41 GROUP   
     5 PHE5       46 GROUP   
     6 GLY6       51 GROUP   
     7 CUB7       69 GROUP   
@<TRIPOS>SET

