#    Name: 5z68_17_IMD
#    Modification time : Fri May 22 19:25:23 2020

@<TRIPOS>MOLECULE
5z68_17_IMD
    5     5     1     0     0
SMALL
NO_CHARGES


@<TRIPOS>ATOM
      1 N1         26.8430   -1.8560  -61.4770 N.pl3     1 IMD403      0.0000 
      2 C2         26.3630   -1.8200  -60.2090 C.2       1 IMD403      0.0000 
      3 N3         25.5760   -0.7190  -60.0670 N.2       1 IMD403      0.0000 
      4 C4         25.5460   -0.0530  -61.2440 C.2       1 IMD403      0.0000 
      5 C5         26.3450   -0.7740  -62.1280 C.2       1 IMD403      0.0000 
@<TRIPOS>BOND
     1    1    2 1    
     2    1    5 1    
     3    2    3 2    
     4    3    4 1    
     5    4    5 2    
@<TRIPOS>SUBSTRUCTURE
     1 IMD403      1 GROUP   
@<TRIPOS>SET

