#    Name: 5z68_23_ATP
#    Modification time : Fri May 22 19:25:51 2020

@<TRIPOS>MOLECULE
5z68_23_ATP
   31    33     1     0     1
SMALL
NO_CHARGES


@<TRIPOS>ATOM
      1 PG        -28.2720   10.6350  -14.4920 P.3       1 ATP401      0.0000 
      2 O1G       -28.3380   11.0400  -15.9480 O.co2     1 ATP401      0.0000 
      3 O2G       -29.1130   11.5350  -13.6150 O.co2     1 ATP401      0.0000 
      4 O3G       -26.8730   10.2410  -14.0440 O.co2     1 ATP401      0.0000 
      5 PB        -28.6790    7.7870  -13.9180 P.3       1 ATP401      0.0000 
      6 O1B       -27.3350    7.4400  -14.5070 O.co2     1 ATP401      0.0000 
      7 O2B       -29.8770    7.0850  -14.4790 O.co2     1 ATP401      0.0000 
      8 O3B       -29.1300    9.2860  -14.3120 O.3       1 ATP401      0.0000 
      9 PA        -28.2500    6.2320  -11.5250 P.3       1 ATP401      0.0000 
     10 O1A       -27.3560    5.4410  -12.4490 O.co2     1 ATP401      0.0000 
     11 O2A       -27.7940    6.3900  -10.0820 O.co2     1 ATP401      0.0000 
     12 O3A       -28.6870    7.6160  -12.2900 O.3       1 ATP401      0.0000 
     13 O5'       -29.6540    5.4780  -11.3430 O.3       1 ATP401      0.0000 
     14 C5'       -30.8650    6.1960  -11.1410 C.3       1 ATP401      0.0000 
     15 C4'       -31.5220    5.6140   -9.9020 C.3       1 ATP401      0.0000 
     16 O4'       -30.6390    4.7110   -9.2320 O.3       1 ATP401      0.0000 
     17 C3'       -31.8500    6.6950   -8.8770 C.3       1 ATP401      0.0000 
     18 O3'       -33.2530    7.0050   -8.8730 O.3       1 ATP401      0.0000 
     19 C2'       -31.3810    6.1040   -7.5510 C.3       1 ATP401      0.0000 
     20 O2'       -32.3130    6.3110   -6.4750 O.3       1 ATP401      0.0000 
     21 C1'       -31.1570    4.6400   -7.9140 C.3       1 ATP401      0.0000 
     22 N9        -30.3600    3.8550   -6.9320 N.pl3     1 ATP401      0.0000 
     23 C8        -29.1830    4.1400   -6.3410 C.2       1 ATP401      0.0000 
     24 N7        -28.8050    3.1660   -5.4630 N.2       1 ATP401      0.0000 
     25 C5        -29.7710    2.2320   -5.4920 C.ar      1 ATP401      0.0000 
     26 C6        -30.0220    0.9260   -4.8380 C.ar      1 ATP401      0.0000 
     27 N6        -29.1560    0.3960   -3.9440 N.pl3     1 ATP401      0.0000 
     28 N1        -31.1550    0.2740   -5.1660 N.ar      1 ATP401      0.0000 
     29 C2        -32.0320    0.7790   -6.0590 C.ar      1 ATP401      0.0000 
     30 N3        -31.8800    1.9490   -6.6910 N.ar      1 ATP401      0.0000 
     31 C4        -30.7840    2.7000   -6.4500 C.ar      1 ATP401      0.0000 
@<TRIPOS>BOND
     1    1    2 ar   
     2    1    3 ar   
     3    1    4 ar   
     4    1    8 1    
     5    5    6 ar   
     6    5    7 ar   
     7    5    8 1    
     8    5   12 1    
     9    9   10 ar   
    10    9   11 ar   
    11    9   12 1    
    12    9   13 1    
    13   13   14 1    
    14   14   15 1    
    15   15   16 1    
    16   15   17 1    
    17   16   21 1    
    18   17   18 1    
    19   17   19 1    
    20   19   20 1    
    21   19   21 1    
    22   21   22 1    
    23   22   23 1    
    24   22   31 1    
    25   23   24 2    
    26   24   25 1    
    27   25   26 ar   
    28   25   31 ar   
    29   26   27 1    
    30   26   28 ar   
    31   28   29 ar   
    32   29   30 ar   
    33   30   31 ar   
@<TRIPOS>SUBSTRUCTURE
     1 ATP401      1 GROUP   
@<TRIPOS>SET
ATOM$ORANGE STATIC     ATOMS   COLORGROUP SYSTEM 
20 14 14 15 15 17 17 19 19 21 21 23 23 25 25 26 26 29 \
29 31 31 

