#    Name: 5z68_25_ATP_CAVITY_N1_4
#    Modification time : Fri May 22 19:26:32 2020

@<TRIPOS>MOLECULE
5z68_25_ATP_CAVITY_N1_4
  135     0     7     0     0
SMALL
NO_CHARGES


@<TRIPOS>ATOM
      1 OG          2.3700    4.1000  -53.7500 O.3       1 SER1        0.0000 
      2 OG          1.7200    5.2700  -52.1000 O.3       1 SER1        0.0000 
      3 O           1.8200    2.8700  -53.1000 O.2       2 ALA2        0.0000 
      4 N           1.1700    4.0400  -51.4500 N.am      2 ALA2        0.0000 
      5 O           2.4200    3.2900  -51.7900 O.2       2 ALA2        0.0000 
      6 N           3.0300    3.7100  -50.4800 N.am      2 ALA2        0.0000 
      7 O           6.5000    7.8900  -53.4300 O.2       2 ALA2        0.0000 
      8 N           6.0900    3.4500  -51.8200 N.am      2 ALA2        0.0000 
      9 N           3.6300    4.1300  -49.1800 N.am      2 ALA2        0.0000 
     10 N           3.0800    2.9000  -48.5300 N.am      2 ALA2        0.0000 
     11 O           4.3300    2.1500  -48.8700 O.2       2 ALA2        0.0000 
     12 N           7.8100    6.3300  -51.8200 N.am      2 ALA2        0.0000 
     13 N           6.7000    3.8700  -50.5100 N.am      2 ALA2        0.0000 
     14 O           6.1400    2.6400  -49.8600 O.2       2 ALA2        0.0000 
     15 N           4.2400    4.5500  -47.8700 N.am      2 ALA2        0.0000 
     16 N           3.6800    3.3200  -47.2200 N.am      2 ALA2        0.0000 
     17 N           3.1300    2.0900  -46.5700 N.am      2 ALA2        0.0000 
     18 O           2.5700    0.8500  -45.9100 O.2       2 ALA2        0.0000 
     19 O           6.0500    5.0400  -48.8600 O.2       2 ALA2        0.0000 
     20 O           4.9400    2.5700  -47.5600 O.2       2 ALA2        0.0000 
     21 O           4.3800    1.3400  -46.9100 O.2       2 ALA2        0.0000 
     22 O           6.7500    3.0600  -48.5500 O.2       2 ALA2        0.0000 
     23 N           8.5600    3.5400  -49.5500 N.am      2 ALA2        0.0000 
     24 N           1.7700    5.2300  -45.2300 N.am      2 ALA2        0.0000 
     25 N           3.0300    4.4800  -45.5700 N.am      2 ALA2        0.0000 
     26 N           4.8400    4.9700  -46.5600 N.am      2 ALA2        0.0000 
     27 N           4.2900    3.7400  -45.9100 N.am      2 ALA2        0.0000 
     28 O           6.6500    5.4600  -47.5600 O.2       2 ALA2        0.0000 
     29 N           6.1000    4.2200  -46.9000 N.am      2 ALA2        0.0000 
     30 N           4.9900    1.7600  -45.6000 N.am      2 ALA2        0.0000 
     31 N           4.4300    0.5300  -44.9500 N.am      2 ALA2        0.0000 
     32 O           7.9100    4.7100  -47.9000 O.2       2 ALA2        0.0000 
     33 N           5.6900   -0.2200  -45.2900 N.am      2 ALA2        0.0000 
     34 O           9.7200    5.1900  -48.8900 O.2       2 ALA2        0.0000 
     35 O           9.1600    3.9600  -48.2400 O.2       2 ALA2        0.0000 
     36 O           8.6100    2.7300  -47.5900 O.2       2 ALA2        0.0000 
     37 O           8.0500    1.5000  -46.9400 O.2       2 ALA2        0.0000 
     38 N           6.3900   -2.2000  -44.9800 N.am      2 ALA2        0.0000 
     39 O           9.3100    0.7500  -47.2800 O.2       2 ALA2        0.0000 
     40 O           8.7500   -0.4800  -46.6300 O.2       2 ALA2        0.0000 
     41 O           3.6400    4.9000  -44.2600 O.2       2 ALA2        0.0000 
     42 O           4.8900    4.1600  -44.6000 O.2       2 ALA2        0.0000 
     43 N           6.7000    4.6400  -45.6000 N.am      2 ALA2        0.0000 
     44 N           6.2900    0.2000  -43.9800 N.am      2 ALA2        0.0000 
     45 N           6.9900   -1.7800  -43.6700 N.am      2 ALA2        0.0000 
     46 N           8.8000   -1.2900  -44.6700 N.am      2 ALA2        0.0000 
     47 N          10.6100   -0.8100  -45.6600 N.am      2 ALA2        0.0000 
     48 N          10.0600   -2.0400  -45.0100 N.am      2 ALA2        0.0000 
     49 O           4.2400    5.3200  -42.9600 O.2       2 ALA2        0.0000 
     50 O           5.5000    4.5800  -43.3000 O.2       2 ALA2        0.0000 
     51 N           7.3100    5.0600  -44.2900 N.am      2 ALA2        0.0000 
     52 O           7.2100    7.4600  -43.2900 O.2       2 ALA2        0.0000 
     53 O           6.6600    6.2300  -42.6400 O.2       2 ALA2        0.0000 
     54 O           6.1000    5.0000  -41.9900 O.2       2 ALA2        0.0000 
     55 N           8.4700    6.7100  -43.6400 N.am      2 ALA2        0.0000 
     56 OD1         1.1200    4.8500  -53.4100 O.co2     3 ASP3        0.0000 
     57 OD1         2.9800    4.5200  -52.4400 O.co2     3 ASP3        0.0000 
     58 OD1         4.1400    6.1800  -51.7900 O.co2     3 ASP3        0.0000 
     59 OD1         5.9500    6.6600  -52.7800 O.co2     3 ASP3        0.0000 
     60 OD1         5.3900    5.4300  -52.1300 O.co2     3 ASP3        0.0000 
     61 OD1         4.8400    4.2000  -51.4800 O.co2     3 ASP3        0.0000 
     62 OD1         7.2500    5.1000  -51.1600 O.co2     3 ASP3        0.0000 
     63 OD1         9.1100    4.7800  -50.2000 O.co2     3 ASP3        0.0000 
     64 OD1        10.3700    4.0300  -50.5400 O.co2     3 ASP3        0.0000 
     65 OD1        10.9700    4.4500  -49.2300 O.co2     3 ASP3        0.0000 
     66 OD1        10.4200    3.2200  -48.5800 O.co2     3 ASP3        0.0000 
     67 OD1        11.1200    1.2400  -48.2700 O.co2     3 ASP3        0.0000 
     68 NZ          1.8200    4.4200  -43.2700 N.4       4 LYS4        0.0000 
     69 NZ          3.6900    4.0900  -42.3000 N.4       4 LYS4        0.0000 
     70 CZ          8.6600    1.9200  -45.6300 C.ar      5 PHE5        0.0000 
     71 CZ          8.1000    0.6900  -44.9800 C.ar      5 PHE5        0.0000 
     72 CZ         11.0200    3.6400  -47.2700 C.ar      5 PHE5        0.0000 
     73 CZ         10.4700    2.4000  -46.6200 C.ar      5 PHE5        0.0000 
     74 CZ          9.9100    1.1700  -45.9700 C.ar      5 PHE5        0.0000 
     75 CZ          9.3600   -0.0600  -45.3200 C.ar      5 PHE5        0.0000 
     76 CZ         11.7200    1.6600  -46.9600 C.ar      5 PHE5        0.0000 
     77 CZ         11.1700    0.4300  -46.3100 C.ar      5 PHE5        0.0000 
     78 CZ          8.0100    3.0800  -43.9800 C.ar      5 PHE5        0.0000 
     79 CZ          7.4500    1.8500  -43.3300 C.ar      5 PHE5        0.0000 
     80 CZ          6.9000    0.6200  -42.6800 C.ar      5 PHE5        0.0000 
     81 CZ          9.8200    3.5700  -44.9700 C.ar      5 PHE5        0.0000 
     82 CZ          8.1500   -0.1300  -43.0200 C.ar      5 PHE5        0.0000 
     83 CZ          7.6000   -1.3600  -42.3700 C.ar      5 PHE5        0.0000 
     84 CZ          8.8500   -2.1000  -42.7100 C.ar      5 PHE5        0.0000 
     85 CZ          7.3600    4.2500  -42.3300 C.ar      5 PHE5        0.0000 
     86 CZ          8.6100    3.5000  -42.6700 C.ar      5 PHE5        0.0000 
     87 CZ          8.0600    2.2700  -42.0200 C.ar      5 PHE5        0.0000 
     88 CA          0.5600    3.6200  -52.7600 C.3       6 GLY6        0.0000 
     89 CA          4.2300    3.7800  -52.7800 C.3       6 GLY6        0.0000 
     90 CA          3.6800    2.5500  -52.1300 C.3       6 GLY6        0.0000 
     91 CA          3.5800    4.9400  -51.1400 C.3       6 GLY6        0.0000 
     92 CA          4.2800    2.9700  -50.8300 C.3       6 GLY6        0.0000 
     93 CA          6.0000    5.8500  -50.8200 C.3       6 GLY6        0.0000 
     94 CA          5.4400    4.6200  -50.1700 C.3       6 GLY6        0.0000 
     95 CA          7.8600    5.5200  -49.8600 C.3       6 GLY6        0.0000 
     96 CA          7.3000    4.2900  -49.2100 C.3       6 GLY6        0.0000 
     97 CA          6.1900    1.8300  -47.9000 C.3       6 GLY6        0.0000 
     98 CA          9.8100    2.8000  -49.8900 C.3       6 GLY6        0.0000 
     99 CA          1.2200    4.0000  -44.5800 C.3       6 GLY6        0.0000 
    100 CA          2.4800    3.2500  -44.9200 C.3       6 GLY6        0.0000 
    101 CA          1.9200    2.0200  -44.2700 C.3       6 GLY6        0.0000 
    102 CA          6.8000    2.2500  -46.5900 C.3       6 GLY6        0.0000 
    103 CA          6.2400    1.0100  -45.9400 C.3       6 GLY6        0.0000 
    104 CA          7.5000    0.2700  -46.2800 C.3       6 GLY6        0.0000 
    105 CA          6.9400   -0.9600  -45.6300 C.3       6 GLY6        0.0000 
    106 CA          9.8600    1.9800  -47.9300 C.3       6 GLY6        0.0000 
    107 CA         10.5600    0.0100  -47.6200 C.3       6 GLY6        0.0000 
    108 CA          7.2600    5.8700  -46.2500 C.3       6 GLY6        0.0000 
    109 CA          8.5100    5.1300  -46.5900 C.3       6 GLY6        0.0000 
    110 CA          9.7700    4.3800  -46.9300 C.3       6 GLY6        0.0000 
    111 CA          9.2100    3.1500  -46.2800 C.3       6 GLY6        0.0000 
    112 CA          7.5500   -0.5500  -44.3300 C.3       6 GLY6        0.0000 
    113 CA          8.2500   -2.5200  -44.0200 C.3       6 GLY6        0.0000 
    114 CA          8.5600    4.3200  -44.6300 C.3       6 GLY6        0.0000 
    115 CA          7.9100    5.4800  -42.9800 C.3       6 GLY6        0.0000 
    116 CA          9.1700    4.7400  -43.3300 C.3       6 GLY6        0.0000 
    117 DU          4.8900    3.3800  -49.5200 H         7 CUB7        0.0000 
    118 DU          5.4900    3.8000  -48.2100 H         7 CUB7        0.0000 
    119 DU          3.7300    2.5100  -45.2600 H         7 CUB7        0.0000 
    120 DU          3.1800    1.2700  -44.6100 H         7 CUB7        0.0000 
    121 DU          5.5400    2.9900  -46.2500 H         7 CUB7        0.0000 
    122 DU          7.3500    3.4800  -47.2500 H         7 CUB7        0.0000 
    123 DU          3.0800    3.6700  -43.6100 H         7 CUB7        0.0000 
    124 DU          2.5300    2.4400  -42.9600 H         7 CUB7        0.0000 
    125 DU          4.3400    2.9300  -43.9500 H         7 CUB7        0.0000 
    126 DU          6.1500    3.4100  -44.9500 H         7 CUB7        0.0000 
    127 DU          5.5900    2.1800  -44.2900 H         7 CUB7        0.0000 
    128 DU          5.0400    0.9500  -43.6400 H         7 CUB7        0.0000 
    129 DU          7.9600    3.9000  -45.9400 H         7 CUB7        0.0000 
    130 DU          7.4000    2.6600  -45.2900 H         7 CUB7        0.0000 
    131 DU          6.8500    1.4300  -44.6400 H         7 CUB7        0.0000 
    132 DU          4.9400    3.3400  -42.6500 H         7 CUB7        0.0000 
    133 DU          6.7500    3.8300  -43.6400 H         7 CUB7        0.0000 
    134 DU          6.2000    2.6000  -42.9900 H         7 CUB7        0.0000 
    135 DU          6.8000    3.0200  -41.6800 H         7 CUB7        0.0000 
@<TRIPOS>BOND
@<TRIPOS>SUBSTRUCTURE
     1 SER1        1 GROUP   
     2 ALA2        3 GROUP   
     3 ASP3       56 GROUP   
     4 LYS4       68 GROUP   
     5 PHE5       70 GROUP   
     6 GLY6       88 GROUP   
     7 CUB7      117 GROUP   
@<TRIPOS>SET

