#    Name: 5z68_15_IMD_CAVITY_N1_4
#    Modification time : Fri May 22 19:25:05 2020

@<TRIPOS>MOLECULE
5z68_15_IMD_CAVITY_N1_4
   37     0     5     0     0
SMALL
NO_CHARGES


@<TRIPOS>ATOM
      1 N          -5.3300   28.1800  -42.4200 N.am      1 ALA2        0.0000 
      2 N          -5.9800   29.3500  -40.7700 N.am      1 ALA2        0.0000 
      3 N          -6.5300   28.1100  -40.1200 N.am      1 ALA2        0.0000 
      4 NZ         -4.7700   30.1800  -38.1600 N.4       2 LYS4        0.0000 
      5 NZ         -4.1600   30.6000  -36.8500 N.4       2 LYS4        0.0000 
      6 NZ         -3.4600   28.6300  -36.5400 N.4       2 LYS4        0.0000 
      7 CZ         -6.6300   30.5100  -39.1200 C.ar      3 PHE5        0.0000 
      8 CZ         -5.3700   29.7600  -39.4600 C.ar      3 PHE5        0.0000 
      9 CZ         -3.9700   25.8100  -38.8400 C.ar      3 PHE5        0.0000 
     10 CZ         -4.5200   24.5800  -38.1900 C.ar      3 PHE5        0.0000 
     11 CZ         -6.0200   30.9300  -37.8100 C.ar      3 PHE5        0.0000 
     12 CZ         -2.8100   27.4600  -38.1900 C.ar      3 PHE5        0.0000 
     13 CZ         -3.3600   26.2300  -37.5400 C.ar      3 PHE5        0.0000 
     14 CA         -4.7700   29.4100  -43.0700 C.3       4 GLY6        0.0000 
     15 CA         -5.8800   26.9500  -41.7700 C.3       4 GLY6        0.0000 
     16 CA         -6.4300   25.7200  -41.1200 C.3       4 GLY6        0.0000 
     17 CA         -3.5200   28.6700  -43.4100 C.3       4 GLY6        0.0000 
     18 CA         -4.0700   27.4300  -42.7600 C.3       4 GLY6        0.0000 
     19 CA         -4.6200   26.2000  -42.1100 C.3       4 GLY6        0.0000 
     20 CA         -4.1700   29.8300  -41.7600 C.3       4 GLY6        0.0000 
     21 CA         -2.9100   29.0900  -42.1100 C.3       4 GLY6        0.0000 
     22 CA         -3.4700   27.8500  -41.4500 C.3       4 GLY6        0.0000 
     23 CA         -4.0200   26.6200  -40.8000 C.3       4 GLY6        0.0000 
     24 CA         -4.5700   25.3900  -40.1500 C.3       4 GLY6        0.0000 
     25 CA         -4.1200   29.0200  -39.8100 C.3       4 GLY6        0.0000 
     26 CA         -2.8600   28.2700  -40.1500 C.3       4 GLY6        0.0000 
     27 CA         -3.4100   27.0400  -39.4900 C.3       4 GLY6        0.0000 
     28 CA         -2.1600   26.2900  -39.8400 C.3       4 GLY6        0.0000 
     29 CA         -3.5100   29.4400  -38.5000 C.3       4 GLY6        0.0000 
     30 DU         -4.7200   28.6000  -41.1100 H         5 CUB7        0.0000 
     31 DU         -5.2800   27.3700  -40.4600 H         5 CUB7        0.0000 
     32 DU         -5.8300   26.1400  -39.8100 H         5 CUB7        0.0000 
     33 DU         -5.9300   28.5300  -38.8100 H         5 CUB7        0.0000 
     34 DU         -4.6700   27.7900  -39.1500 H         5 CUB7        0.0000 
     35 DU         -5.2300   26.5600  -38.5000 H         5 CUB7        0.0000 
     36 DU         -5.3200   28.9500  -37.5000 H         5 CUB7        0.0000 
     37 DU         -4.0700   28.2100  -37.8500 H         5 CUB7        0.0000 
@<TRIPOS>BOND
@<TRIPOS>SUBSTRUCTURE
     1 ALA2        1 GROUP   
     2 LYS4        4 GROUP   
     3 PHE5        7 GROUP   
     4 GLY6       14 GROUP   
     5 CUB7       30 GROUP   
@<TRIPOS>SET

