#    Name: 5z68_12_IMD_CAVITY_N1_6
#    Modification time : Fri May 22 19:24:55 2020

@<TRIPOS>MOLECULE
5z68_12_IMD_CAVITY_N1_6
   61     0     6     0     0
SMALL
NO_CHARGES


@<TRIPOS>ATOM
      1 N           8.0400   28.8300  -53.9800 N.am      1 ALA2        0.0000 
      2 N           8.6500   29.2500  -52.6700 N.am      1 ALA2        0.0000 
      3 N           9.9000   28.5000  -53.0100 N.am      1 ALA2        0.0000 
      4 N          11.6200   31.3800  -53.0100 N.am      1 ALA2        0.0000 
      5 N          11.0600   30.1500  -52.3600 N.am      1 ALA2        0.0000 
      6 N          10.5100   28.9200  -51.7100 N.am      1 ALA2        0.0000 
      7 N          13.4300   31.8700  -54.0000 N.am      1 ALA2        0.0000 
      8 N          12.8700   30.6400  -53.3500 N.am      1 ALA2        0.0000 
      9 N          12.3200   29.4100  -52.7000 N.am      1 ALA2        0.0000 
     10 N          14.7800   29.5000  -50.4300 N.am      1 ALA2        0.0000 
     11 OD1         9.3500   27.2700  -52.3600 O.co2     2 ASP3        0.0000 
     12 OD1         7.4400   29.1800  -50.3700 O.co2     2 ASP3        0.0000 
     13 OD1         9.9500   27.6900  -51.0500 O.co2     2 ASP3        0.0000 
     14 OD1        11.7600   28.1700  -52.0500 O.co2     2 ASP3        0.0000 
     15 OD1         8.0500   29.6000  -49.0600 O.co2     2 ASP3        0.0000 
     16 OD1        10.4100   31.3200  -50.7100 O.co2     2 ASP3        0.0000 
     17 OD1        12.2200   31.8000  -51.7000 O.co2     2 ASP3        0.0000 
     18 OD1        14.0300   32.2900  -52.7000 O.co2     2 ASP3        0.0000 
     19 OD1        13.4800   31.0600  -52.0400 O.co2     2 ASP3        0.0000 
     20 OD1        12.3700   28.5900  -50.7400 O.co2     2 ASP3        0.0000 
     21 OD1        11.8100   27.3600  -50.0900 O.co2     2 ASP3        0.0000 
     22 OD1        15.8400   32.7800  -53.6900 O.co2     2 ASP3        0.0000 
     23 OD1        15.2900   31.5400  -53.0400 O.co2     2 ASP3        0.0000 
     24 OD1        14.7300   30.3100  -52.3900 O.co2     2 ASP3        0.0000 
     25 OD1        14.1800   29.0800  -51.7300 O.co2     2 ASP3        0.0000 
     26 OD1        13.6200   27.8500  -51.0800 O.co2     2 ASP3        0.0000 
     27 OD1         9.2100   31.2500  -48.4100 O.co2     2 ASP3        0.0000 
     28 OD1         8.6500   30.0200  -47.7600 O.co2     2 ASP3        0.0000 
     29 OD1        11.0200   31.7400  -49.4000 O.co2     2 ASP3        0.0000 
     30 OD1        10.4600   30.5100  -48.7500 O.co2     2 ASP3        0.0000 
     31 OD1        13.5300   30.2500  -50.0900 O.co2     2 ASP3        0.0000 
     32 OD1        15.3400   30.7300  -51.0800 O.co2     2 ASP3        0.0000 
     33 OD1         9.8100   31.6700  -47.1000 O.co2     2 ASP3        0.0000 
     34 NZ          6.8400   28.7600  -51.6800 N.4       3 LYS4        0.0000 
     35 NZ          8.0900   28.0200  -52.0200 N.4       3 LYS4        0.0000 
     36 NZ          8.7000   28.4400  -50.7100 N.4       3 LYS4        0.0000 
     37 NZ          9.4000   26.4600  -50.4000 N.4       3 LYS4        0.0000 
     38 NZ          9.2600   30.4400  -46.4500 N.4       3 LYS4        0.0000 
     39 CZ          9.3000   28.8500  -49.4100 C.ar      4 PHE5        0.0000 
     40 CZ          8.7500   27.6200  -48.7500 C.ar      4 PHE5        0.0000 
     41 CZ         10.5600   28.1100  -49.7500 C.ar      4 PHE5        0.0000 
     42 CZ          9.9100   29.2700  -48.1000 C.ar      4 PHE5        0.0000 
     43 CZ         10.5100   29.6900  -46.7900 C.ar      4 PHE5        0.0000 
     44 CA          7.3900   29.9900  -52.3300 C.3       5 GLY6        0.0000 
     45 CA          8.0000   30.4100  -51.0200 C.3       5 GLY6        0.0000 
     46 CA          9.8100   30.9000  -52.0200 C.3       5 GLY6        0.0000 
     47 CA          9.2500   29.6700  -51.3600 C.3       5 GLY6        0.0000 
     48 CA         14.6800   31.1200  -54.3400 C.3       5 GLY6        0.0000 
     49 CA         15.9900   29.5700  -52.7300 C.3       5 GLY6        0.0000 
     50 CA         15.4300   28.3300  -52.0800 C.3       5 GLY6        0.0000 
     51 CA         12.2700   30.9900  -49.7400 C.3       5 GLY6        0.0000 
     52 CA         11.7200   29.7600  -49.0900 C.3       5 GLY6        0.0000 
     53 CA         12.9700   29.0100  -49.4300 C.3       5 GLY6        0.0000 
     54 CA         12.4200   27.7800  -48.7800 C.3       5 GLY6        0.0000 
     55 CA         14.2300   28.2700  -49.7700 C.3       5 GLY6        0.0000 
     56 CA         16.5900   29.9800  -51.4200 C.3       5 GLY6        0.0000 
     57 CA         11.0700   30.9300  -47.4400 C.3       5 GLY6        0.0000 
     58 DU          9.8600   30.0900  -50.0600 H         6 CUB7        0.0000 
     59 DU         11.6700   30.5700  -51.0500 H         6 CUB7        0.0000 
     60 DU         11.1100   29.3400  -50.4000 H         6 CUB7        0.0000 
     61 DU         12.9200   29.8300  -51.3900 H         6 CUB7        0.0000 
@<TRIPOS>BOND
@<TRIPOS>SUBSTRUCTURE
     1 ALA2        1 GROUP   
     2 ASP3       11 GROUP   
     3 LYS4       34 GROUP   
     4 PHE5       39 GROUP   
     5 GLY6       44 GROUP   
     6 CUB7       58 GROUP   
@<TRIPOS>SET

