#    Name: 5z68_2_IMD_CAVITY_N1_4
#    Modification time : Fri May 22 19:24:26 2020

@<TRIPOS>MOLECULE
5z68_2_IMD_CAVITY_N1_4
   39     0     5     0     0
SMALL
NO_CHARGES


@<TRIPOS>ATOM
      1 N         -22.2400   29.6100   -2.3400 N.am      1 ALA2        0.0000 
      2 N         -21.6400   30.0300   -1.0300 N.am      1 ALA2        0.0000 
      3 N         -21.0300   30.4500    0.2700 N.am      1 ALA2        0.0000 
      4 N         -19.7800   29.7000   -0.0700 N.am      1 ALA2        0.0000 
      5 N         -19.1700   30.1200    1.2400 N.am      1 ALA2        0.0000 
      6 N         -18.0100   31.7700    1.8900 N.am      1 ALA2        0.0000 
      7 OD1       -25.3600   30.6800   -2.9600 O.co2     2 ASP3        0.0000 
      8 OD1       -26.5600   30.6200   -0.6600 O.co2     2 ASP3        0.0000 
      9 OD1       -25.3100   29.8700   -1.0100 O.co2     2 ASP3        0.0000 
     10 OD1       -24.0500   29.1200   -1.3500 O.co2     2 ASP3        0.0000 
     11 OD1       -22.8000   28.3800   -1.6900 O.co2     2 ASP3        0.0000 
     12 OD1       -25.9600   31.0400    0.6400 O.co2     2 ASP3        0.0000 
     13 OD1       -24.1500   31.5200   -0.3500 O.co2     2 ASP3        0.0000 
     14 OD1       -24.7000   30.2900    0.3000 O.co2     2 ASP3        0.0000 
     15 OD1       -22.8900   30.7800   -0.6900 O.co2     2 ASP3        0.0000 
     16 OD1       -22.1900   28.8000   -0.3800 O.co2     2 ASP3        0.0000 
     17 OD1       -22.2900   31.1900    0.6100 O.co2     2 ASP3        0.0000 
     18 OD1       -22.8400   29.9600    1.2700 O.co2     2 ASP3        0.0000 
     19 OD1       -22.1400   27.9800    1.5800 O.co2     2 ASP3        0.0000 
     20 OD1       -19.8700   32.1000    0.9300 O.co2     2 ASP3        0.0000 
     21 OD1       -20.4300   30.8700    1.5800 O.co2     2 ASP3        0.0000 
     22 OD1       -20.9800   29.6400    2.2300 O.co2     2 ASP3        0.0000 
     23 OD1       -22.1900   29.5700    4.5300 O.co2     2 ASP3        0.0000 
     24 CZ        -26.5100   29.8000    1.2900 C.ar      3 PHE5        0.0000 
     25 CZ        -25.2600   29.0600    0.9500 C.ar      3 PHE5        0.0000 
     26 CZ        -24.0000   28.3100    0.6100 C.ar      3 PHE5        0.0000 
     27 CA        -24.1000   29.9400   -3.3100 C.3       4 GLY6        0.0000 
     28 CA        -24.7500   31.1000   -1.6600 C.3       4 GLY6        0.0000 
     29 CA        -22.9400   31.5900   -2.6500 C.3       4 GLY6        0.0000 
     30 CA        -23.5000   30.3600   -2.0000 C.3       4 GLY6        0.0000 
     31 CA        -22.3400   32.0100   -1.3400 C.3       4 GLY6        0.0000 
     32 CA        -24.1000   30.7100    1.6100 C.3       4 GLY6        0.0000 
     33 CA        -24.6500   29.4800    2.2600 C.3       4 GLY6        0.0000 
     34 CA        -21.7300   32.4300   -0.0400 C.3       4 GLY6        0.0000 
     35 CA        -23.4000   28.7300    1.9200 C.3       4 GLY6        0.0000 
     36 CA        -20.4800   31.6800   -0.3800 C.3       4 GLY6        0.0000 
     37 CA        -22.7900   29.1500    3.2300 C.3       4 GLY6        0.0000 
     38 DU        -23.4500   29.5400   -0.0400 H         5 CUB7        0.0000 
     39 DU        -21.5900   29.2200    0.9200 H         5 CUB7        0.0000 
@<TRIPOS>BOND
@<TRIPOS>SUBSTRUCTURE
     1 ALA2        1 GROUP   
     2 ASP3        7 GROUP   
     3 PHE5       24 GROUP   
     4 GLY6       27 GROUP   
     5 CUB7       38 GROUP   
@<TRIPOS>SET

