#    Name: 5z68_2_IMD_CAVITY_N1_6
#    Modification time : Fri May 22 19:24:26 2020

@<TRIPOS>MOLECULE
5z68_2_IMD_CAVITY_N1_6
   71     0     6     0     0
SMALL
NO_CHARGES


@<TRIPOS>ATOM
      1 N         -21.5900   28.4400   -3.9900 N.am      1 ALA2        0.0000 
      2 N         -22.2400   29.6100   -2.3400 N.am      1 ALA2        0.0000 
      3 N         -19.7300   28.1200   -3.0200 N.am      1 ALA2        0.0000 
      4 N         -21.6400   30.0300   -1.0300 N.am      1 ALA2        0.0000 
      5 N         -21.0300   30.4500    0.2700 N.am      1 ALA2        0.0000 
      6 N         -19.7800   29.7000   -0.0700 N.am      1 ALA2        0.0000 
      7 O         -22.0900   27.1700    3.5400 O.2       1 ALA2        0.0000 
      8 N         -19.1700   30.1200    1.2400 N.am      1 ALA2        0.0000 
      9 N         -18.0100   31.7700    1.8900 N.am      1 ALA2        0.0000 
     10 OD1       -25.3600   30.6800   -2.9600 O.co2     2 ASP3        0.0000 
     11 OD1       -22.1500   27.2100   -3.3400 O.co2     2 ASP3        0.0000 
     12 OD1       -26.5600   30.6200   -0.6600 O.co2     2 ASP3        0.0000 
     13 OD1       -25.3100   29.8700   -1.0100 O.co2     2 ASP3        0.0000 
     14 OD1       -24.0500   29.1200   -1.3500 O.co2     2 ASP3        0.0000 
     15 OD1       -22.8000   28.3800   -1.6900 O.co2     2 ASP3        0.0000 
     16 OD1       -23.3500   27.1500   -1.0400 O.co2     2 ASP3        0.0000 
     17 OD1       -21.5400   27.6300   -2.0300 O.co2     2 ASP3        0.0000 
     18 OD1       -25.9600   31.0400    0.6400 O.co2     2 ASP3        0.0000 
     19 OD1       -24.1500   31.5200   -0.3500 O.co2     2 ASP3        0.0000 
     20 OD1       -24.7000   30.2900    0.3000 O.co2     2 ASP3        0.0000 
     21 OD1       -22.8900   30.7800   -0.6900 O.co2     2 ASP3        0.0000 
     22 OD1       -22.1900   28.8000   -0.3800 O.co2     2 ASP3        0.0000 
     23 OD1       -22.7500   27.5700    0.2700 O.co2     2 ASP3        0.0000 
     24 OD1       -20.9400   28.0500   -0.7200 O.co2     2 ASP3        0.0000 
     25 OD1       -19.6800   27.3000   -1.0700 O.co2     2 ASP3        0.0000 
     26 OD1       -22.2900   31.1900    0.6100 O.co2     2 ASP3        0.0000 
     27 OD1       -22.8400   29.9600    1.2700 O.co2     2 ASP3        0.0000 
     28 OD1       -22.1400   27.9800    1.5800 O.co2     2 ASP3        0.0000 
     29 OD1       -22.7000   26.7500    2.2300 O.co2     2 ASP3        0.0000 
     30 OD1       -20.3300   28.4700    0.5800 O.co2     2 ASP3        0.0000 
     31 OD1       -20.8900   27.2400    1.2400 O.co2     2 ASP3        0.0000 
     32 OD1       -19.0800   27.7200    0.2400 O.co2     2 ASP3        0.0000 
     33 OD1       -19.8700   32.1000    0.9300 O.co2     2 ASP3        0.0000 
     34 OD1       -20.4300   30.8700    1.5800 O.co2     2 ASP3        0.0000 
     35 OD1       -20.9800   29.6400    2.2300 O.co2     2 ASP3        0.0000 
     36 OD1       -21.5400   28.4000    2.8800 O.co2     2 ASP3        0.0000 
     37 OD1       -20.2800   27.6600    2.5400 O.co2     2 ASP3        0.0000 
     38 OD1       -22.1900   29.5700    4.5300 O.co2     2 ASP3        0.0000 
     39 OD1       -20.9300   28.8200    4.1900 O.co2     2 ASP3        0.0000 
     40 OD1       -18.5700   30.5400    2.5500 O.co2     2 ASP3        0.0000 
     41 OD1       -19.1200   29.3100    3.2000 O.co2     2 ASP3        0.0000 
     42 OD1       -21.5800   29.9900    5.8400 O.co2     2 ASP3        0.0000 
     43 OD1       -20.3300   29.2400    5.5000 O.co2     2 ASP3        0.0000 
     44 OD1       -17.9600   30.9600    3.8500 O.co2     2 ASP3        0.0000 
     45 OD1       -18.5200   29.7300    4.5000 O.co2     2 ASP3        0.0000 
     46 NZ        -24.6600   28.7000   -2.6500 N.4       3 LYS4        0.0000 
     47 NZ        -22.8500   29.1900   -3.6500 N.4       3 LYS4        0.0000 
     48 NZ        -23.4000   27.9600   -3.0000 N.4       3 LYS4        0.0000 
     49 CZ        -24.6100   27.8900   -0.7000 C.ar      4 PHE5        0.0000 
     50 CZ        -26.5100   29.8000    1.2900 C.ar      4 PHE5        0.0000 
     51 CZ        -25.2600   29.0600    0.9500 C.ar      4 PHE5        0.0000 
     52 CZ        -24.0000   28.3100    0.6100 C.ar      4 PHE5        0.0000 
     53 CA        -24.1000   29.9400   -3.3100 C.3       5 GLY6        0.0000 
     54 CA        -24.7500   31.1000   -1.6600 C.3       5 GLY6        0.0000 
     55 CA        -22.9400   31.5900   -2.6500 C.3       5 GLY6        0.0000 
     56 CA        -23.5000   30.3600   -2.0000 C.3       5 GLY6        0.0000 
     57 CA        -22.3400   32.0100   -1.3400 C.3       5 GLY6        0.0000 
     58 CA        -24.1000   30.7100    1.6100 C.3       5 GLY6        0.0000 
     59 CA        -24.6500   29.4800    2.2600 C.3       5 GLY6        0.0000 
     60 CA        -21.7300   32.4300   -0.0400 C.3       5 GLY6        0.0000 
     61 CA        -23.4000   28.7300    1.9200 C.3       5 GLY6        0.0000 
     62 CA        -20.4800   31.6800   -0.3800 C.3       5 GLY6        0.0000 
     63 CA        -22.7900   29.1500    3.2300 C.3       5 GLY6        0.0000 
     64 CA        -17.9200   29.3800    0.9000 C.3       5 GLY6        0.0000 
     65 CA        -19.6800   28.0800    3.8500 C.3       5 GLY6        0.0000 
     66 CA        -17.3100   29.7900    2.2000 C.3       5 GLY6        0.0000 
     67 DU        -23.4500   29.5400   -0.0400 H         6 CUB7        0.0000 
     68 DU        -21.5900   29.2200    0.9200 H         6 CUB7        0.0000 
     69 DU        -19.7300   28.8900    1.8900 H         6 CUB7        0.0000 
     70 DU        -18.4700   28.1400    1.5500 H         6 CUB7        0.0000 
     71 DU        -17.8700   28.5600    2.8600 H         6 CUB7        0.0000 
@<TRIPOS>BOND
@<TRIPOS>SUBSTRUCTURE
     1 ALA2        1 GROUP   
     2 ASP3       10 GROUP   
     3 LYS4       46 GROUP   
     4 PHE5       49 GROUP   
     5 GLY6       53 GROUP   
     6 CUB7       67 GROUP   
@<TRIPOS>SET

