#    Name: 5z68_4_IMD
#    Modification time : Fri May 22 19:24:34 2020

@<TRIPOS>MOLECULE
5z68_4_IMD
    5     5     1     0     0
SMALL
NO_CHARGES


@<TRIPOS>ATOM
      1 N1        -38.3020   19.7130   10.4100 N.pl3     1 IMD405      0.0000 
      2 C2        -38.6620   20.0790    9.1550 C.2       1 IMD405      0.0000 
      3 N3        -39.3540   19.0720    8.5690 N.2       1 IMD405      0.0000 
      4 C4        -39.4320   18.0590    9.4650 C.2       1 IMD405      0.0000 
      5 C5        -38.7680   18.4590   10.6220 C.2       1 IMD405      0.0000 
@<TRIPOS>BOND
     1    1    2 1    
     2    1    5 1    
     3    2    3 2    
     4    3    4 1    
     5    4    5 2    
@<TRIPOS>SUBSTRUCTURE
     1 IMD405      1 GROUP   
@<TRIPOS>SET

