#    Name: 5z68_17_IMD_CAVITY_N1_4
#    Modification time : Fri May 22 19:25:23 2020

@<TRIPOS>MOLECULE
5z68_17_IMD_CAVITY_N1_4
    5     0     2     0     0
SMALL
NO_CHARGES


@<TRIPOS>ATOM
      1 CA         22.6700    0.6300  -63.7500 C.3       1 GLY6        0.0000 
      2 CA         23.9300   -0.1200  -64.0900 C.3       1 GLY6        0.0000 
      3 CA         25.1800   -0.8600  -64.4300 C.3       1 GLY6        0.0000 
      4 DU         24.4800    1.1100  -64.7400 H         2 CUB7        0.0000 
      5 DU         25.7400    0.3700  -65.0900 H         2 CUB7        0.0000 
@<TRIPOS>BOND
@<TRIPOS>SUBSTRUCTURE
     1 GLY6        1 GROUP   
     2 CUB7        4 GROUP   
@<TRIPOS>SET

