#    Name: 5z68_24_ATP
#    Modification time : Fri May 22 19:26:11 2020

@<TRIPOS>MOLECULE
5z68_24_ATP
   31    33     1     0     1
SMALL
NO_CHARGES


@<TRIPOS>ATOM
      1 PG         -0.6310   27.3680  -64.6410 P.3       1 ATP401      0.0000 
      2 O1G        -0.0660   26.3890  -65.6290 O.co2     1 ATP401      0.0000 
      3 O2G         0.1580   27.4630  -63.3480 O.co2     1 ATP401      0.0000 
      4 O3G        -2.1300   27.2770  -64.4890 O.co2     1 ATP401      0.0000 
      5 PB         -0.0140   30.1980  -64.7870 P.3       1 ATP401      0.0000 
      6 O1B        -0.4650   31.1920  -65.7980 O.co2     1 ATP401      0.0000 
      7 O2B        -0.4550   30.2150  -63.3500 O.co2     1 ATP401      0.0000 
      8 O3B        -0.3520   28.7530  -65.4340 O.3       1 ATP401      0.0000 
      9 PA          2.4930   31.4960  -64.8680 P.3       1 ATP401      0.0000 
     10 O1A         3.9430   31.0880  -64.8040 O.co2     1 ATP401      0.0000 
     11 O2A         2.0000   32.5570  -63.9170 O.co2     1 ATP401      0.0000 
     12 O3A         1.5840   30.2010  -64.7120 O.3       1 ATP401      0.0000 
     13 O5'         2.2560   31.9820  -66.3680 O.3       1 ATP401      0.0000 
     14 C5'         3.4400   31.9130  -67.1340 C.3       1 ATP401      0.0000 
     15 C4'         3.2340   32.3430  -68.5650 C.3       1 ATP401      0.0000 
     16 O4'         4.0050   33.5310  -68.6870 O.3       1 ATP401      0.0000 
     17 C3'         3.9510   31.3410  -69.4280 C.3       1 ATP401      0.0000 
     18 O3'         3.6040   31.5820  -70.7870 O.3       1 ATP401      0.0000 
     19 C2'         5.3840   31.7330  -69.1960 C.3       1 ATP401      0.0000 
     20 O2'         6.2760   31.1300  -70.1390 O.3       1 ATP401      0.0000 
     21 C1'         5.2220   33.2370  -69.3600 C.3       1 ATP401      0.0000 
     22 N9          6.3900   33.9800  -68.8370 N.pl3     1 ATP401      0.0000 
     23 C8          7.1990   33.6170  -67.8390 C.2       1 ATP401      0.0000 
     24 N7          8.2120   34.4920  -67.6640 N.2       1 ATP401      0.0000 
     25 C5          8.0500   35.4420  -68.5960 C.ar      1 ATP401      0.0000 
     26 C6          8.7410   36.7010  -68.9800 C.ar      1 ATP401      0.0000 
     27 N6          9.8450   37.1370  -68.3290 N.pl3     1 ATP401      0.0000 
     28 N1          8.2310   37.4010  -70.0120 N.ar      1 ATP401      0.0000 
     29 C2          7.1240   37.0000  -70.6680 C.ar      1 ATP401      0.0000 
     30 N3          6.4450   35.8720  -70.3800 N.ar      1 ATP401      0.0000 
     31 C4          6.8570   35.0790  -69.3690 C.ar      1 ATP401      0.0000 
@<TRIPOS>BOND
     1    1    2 ar   
     2    1    3 ar   
     3    1    4 ar   
     4    1    8 1    
     5    5    6 ar   
     6    5    7 ar   
     7    5    8 1    
     8    5   12 1    
     9    9   10 ar   
    10    9   11 ar   
    11    9   12 1    
    12    9   13 1    
    13   13   14 1    
    14   14   15 1    
    15   15   16 1    
    16   15   17 1    
    17   16   21 1    
    18   17   18 1    
    19   17   19 1    
    20   19   20 1    
    21   19   21 1    
    22   21   22 1    
    23   22   23 1    
    24   22   31 1    
    25   23   24 2    
    26   24   25 1    
    27   25   26 ar   
    28   25   31 ar   
    29   26   27 1    
    30   26   28 ar   
    31   28   29 ar   
    32   29   30 ar   
    33   30   31 ar   
@<TRIPOS>SUBSTRUCTURE
     1 ATP401      1 GROUP   
@<TRIPOS>SET
ATOM$ORANGE STATIC     ATOMS   COLORGROUP SYSTEM 
20 14 14 15 15 17 17 19 19 21 21 23 23 25 25 26 26 29 \
29 31 31 

