#    Name: 5z68_2_IMD
#    Modification time : Fri May 22 19:24:25 2020

@<TRIPOS>MOLECULE
5z68_2_IMD
    5     5     1     0     0
SMALL
NO_CHARGES


@<TRIPOS>ATOM
      1 N1        -22.5950   32.1150   -0.6250 N.pl3     1 IMD403      0.0000 
      2 C2        -23.2450   31.6180    0.4480 C.2       1 IMD403      0.0000 
      3 N3        -22.6550   32.0830    1.5790 N.2       1 IMD403      0.0000 
      4 C4        -21.6240   32.8680    1.2380 C.2       1 IMD403      0.0000 
      5 C5        -21.5990   32.8910   -0.1460 C.2       1 IMD403      0.0000 
@<TRIPOS>BOND
     1    1    2 1    
     2    1    5 1    
     3    2    3 2    
     4    3    4 1    
     5    4    5 2    
@<TRIPOS>SUBSTRUCTURE
     1 IMD403      1 GROUP   
@<TRIPOS>SET

