#    Name: 5z68_17_IMD_CAVITY_N1_8
#    Modification time : Fri May 22 19:25:23 2020

@<TRIPOS>MOLECULE
5z68_17_IMD_CAVITY_N1_8
   41     0     5     0     0
SMALL
NO_CHARGES


@<TRIPOS>ATOM
      1 N          20.2100    0.5400  -66.0200 N.am      1 ALA2        0.0000 
      2 N          20.8100    0.9600  -64.7200 N.am      1 ALA2        0.0000 
      3 N          22.0700    0.2100  -65.0600 N.am      1 ALA2        0.0000 
      4 OD1        20.7600    1.7700  -66.6800 O.co2     2 ASP3        0.0000 
      5 OD1        22.4800    4.6500  -66.6700 O.co2     2 ASP3        0.0000 
      6 OD1        21.9200    3.4200  -66.0200 O.co2     2 ASP3        0.0000 
      7 OD1        21.3700    2.1900  -65.3700 O.co2     2 ASP3        0.0000 
      8 OD1        23.1800    2.6700  -66.3600 O.co2     2 ASP3        0.0000 
      9 OD1        23.0800    5.0700  -65.3700 O.co2     2 ASP3        0.0000 
     10 OD1        21.9700    2.6100  -64.0600 O.co2     2 ASP3        0.0000 
     11 OD1        23.7800    3.0900  -65.0600 O.co2     2 ASP3        0.0000 
     12 OD1        23.2300    1.8600  -64.4000 O.co2     2 ASP3        0.0000 
     13 CZ         24.3800    2.7400  -68.6600 C.ar      3 PHE5        0.0000 
     14 CZ         23.8300    1.5100  -68.0100 C.ar      3 PHE5        0.0000 
     15 CZ         24.9900    3.1600  -67.3600 C.ar      3 PHE5        0.0000 
     16 CZ         24.4300    1.9300  -66.7000 C.ar      3 PHE5        0.0000 
     17 CZ         26.2400    2.4100  -67.7000 C.ar      3 PHE5        0.0000 
     18 CZ         25.6900    1.1800  -67.0500 C.ar      3 PHE5        0.0000 
     19 CZ         25.1300   -0.0500  -66.3900 C.ar      3 PHE5        0.0000 
     20 CA         22.0200    1.0200  -67.0200 C.3       4 GLY6        0.0000 
     21 CA         21.4600   -0.2100  -66.3700 C.3       4 GLY6        0.0000 
     22 CA         23.2700    0.2800  -67.3600 C.3       4 GLY6        0.0000 
     23 CA         23.8800    0.7000  -66.0500 C.3       4 GLY6        0.0000 
     24 CA         23.3200   -0.5400  -65.4000 C.3       4 GLY6        0.0000 
     25 CA         26.8000    3.6400  -68.3500 C.3       4 GLY6        0.0000 
     26 CA         22.6700    0.6300  -63.7500 C.3       4 GLY6        0.0000 
     27 CA         23.9300   -0.1200  -64.0900 C.3       4 GLY6        0.0000 
     28 CA         27.4000    4.0600  -67.0400 C.3       4 GLY6        0.0000 
     29 CA         25.1800   -0.8600  -64.4300 C.3       4 GLY6        0.0000 
     30 DU         22.5700    2.2500  -67.6700 H         5 CUB7        0.0000 
     31 DU         23.7300    3.9100  -67.0100 H         5 CUB7        0.0000 
     32 DU         22.6200    1.4400  -65.7100 H         5 CUB7        0.0000 
     33 DU         25.5400    4.3900  -68.0100 H         5 CUB7        0.0000 
     34 DU         24.8900    5.5600  -66.3600 H         5 CUB7        0.0000 
     35 DU         24.3400    4.3200  -65.7100 H         5 CUB7        0.0000 
     36 DU         26.1500    4.8100  -66.7000 H         5 CUB7        0.0000 
     37 DU         25.5900    3.5800  -66.0500 H         5 CUB7        0.0000 
     38 DU         25.0400    2.3500  -65.4000 H         5 CUB7        0.0000 
     39 DU         24.4800    1.1100  -64.7400 H         5 CUB7        0.0000 
     40 DU         26.2900    1.6000  -65.7400 H         5 CUB7        0.0000 
     41 DU         25.7400    0.3700  -65.0900 H         5 CUB7        0.0000 
@<TRIPOS>BOND
@<TRIPOS>SUBSTRUCTURE
     1 ALA2        1 GROUP   
     2 ASP3        4 GROUP   
     3 PHE5       13 GROUP   
     4 GLY6       20 GROUP   
     5 CUB7       30 GROUP   
@<TRIPOS>SET

