#    Name: 5z68_16_IMD
#    Modification time : Fri May 22 19:25:14 2020

@<TRIPOS>MOLECULE
5z68_16_IMD
    5     5     1     0     0
SMALL
NO_CHARGES


@<TRIPOS>ATOM
      1 N1         15.5340    4.5540  -64.4470 N.pl3     1 IMD402      0.0000 
      2 C2         15.5000    5.5400  -65.3700 C.2       1 IMD402      0.0000 
      3 N3         14.2390    6.0240  -65.4590 N.2       1 IMD402      0.0000 
      4 C4         13.4740    5.3380  -64.5850 C.2       1 IMD402      0.0000 
      5 C5         14.2910    4.4090  -63.9510 C.2       1 IMD402      0.0000 
@<TRIPOS>BOND
     1    1    2 1    
     2    1    5 1    
     3    2    3 2    
     4    3    4 1    
     5    4    5 2    
@<TRIPOS>SUBSTRUCTURE
     1 IMD402      1 GROUP   
@<TRIPOS>SET

