#    Name: 5z68_4_IMD_CAVITY_N1_4
#    Modification time : Fri May 22 19:24:35 2020

@<TRIPOS>MOLECULE
5z68_4_IMD_CAVITY_N1_4
   54     0     4     0     0
SMALL
NO_CHARGES


@<TRIPOS>ATOM
      1 N         -39.9600   15.9400    8.5200 N.am      1 ALA2        0.0000 
      2 N         -38.9400   20.8000    8.2100 N.am      1 ALA2        0.0000 
      3 N         -40.0500   18.3300    9.5200 N.am      1 ALA2        0.0000 
      4 N         -38.2400   18.8200    8.5200 N.am      1 ALA2        0.0000 
      5 N         -39.3500   16.3600    9.8300 N.am      1 ALA2        0.0000 
      6 O         -38.3400   21.2200    9.5200 O.2       1 ALA2        0.0000 
      7 N         -38.8900   19.9900   10.1700 N.am      1 ALA2        0.0000 
      8 N         -37.6400   19.2400    9.8300 N.am      1 ALA2        0.0000 
      9 N         -38.1900   18.0100   10.4800 N.am      1 ALA2        0.0000 
     10 N         -38.7500   16.7800   11.1400 N.am      1 ALA2        0.0000 
     11 O         -36.3800   18.4900    9.4900 O.2       1 ALA2        0.0000 
     12 O         -36.9400   17.2600   10.1400 O.2       1 ALA2        0.0000 
     13 O         -37.4900   16.0300   10.7900 O.2       1 ALA2        0.0000 
     14 N         -40.1000   19.9200   12.4700 N.am      1 ALA2        0.0000 
     15 N         -38.8400   19.1700   12.1300 N.am      1 ALA2        0.0000 
     16 O         -38.1400   17.1900   12.4400 O.2       1 ALA2        0.0000 
     17 O         -38.7000   15.9600   13.0900 O.2       1 ALA2        0.0000 
     18 O         -36.8900   16.4500   12.1000 O.2       1 ALA2        0.0000 
     19 O         -38.7900   18.3600   14.0900 O.2       1 ALA2        0.0000 
     20 N         -36.9800   18.8500   13.1000 N.am      1 ALA2        0.0000 
     21 O         -37.5400   17.6100   13.7500 O.2       1 ALA2        0.0000 
     22 NZ        -41.9600   20.2500   11.5100 N.4       2 LYS4        0.0000 
     23 NZ        -40.8000   21.9000   12.1600 N.4       2 LYS4        0.0000 
     24 CA        -42.6200   20.6400    8.2400 C.3       3 GLY6        0.0000 
     25 CA        -41.9100   18.6600    8.5500 C.3       3 GLY6        0.0000 
     26 CA        -40.6600   17.9100    8.2100 C.3       3 GLY6        0.0000 
     27 CA        -41.2100   16.6800    8.8600 C.3       3 GLY6        0.0000 
     28 CA        -42.0100   21.0600    9.5500 C.3       3 GLY6        0.0000 
     29 CA        -42.5600   19.8300   10.2000 C.3       3 GLY6        0.0000 
     30 CA        -40.7500   20.3100    9.2100 C.3       3 GLY6        0.0000 
     31 CA        -39.5000   19.5700    8.8700 C.3       3 GLY6        0.0000 
     32 CA        -37.6900   20.0500    7.8700 C.3       3 GLY6        0.0000 
     33 CA        -41.4100   21.4800   10.8600 C.3       3 GLY6        0.0000 
     34 CA        -40.1500   20.7300   10.5200 C.3       3 GLY6        0.0000 
     35 CA        -41.8100   17.0400   12.4700 C.3       3 GLY6        0.0000 
     36 CA        -40.5600   16.2900   12.1300 C.3       3 GLY6        0.0000 
     37 CA        -37.0800   20.4700    9.1800 C.3       3 GLY6        0.0000 
     38 CA        -35.8300   19.7200    8.8400 C.3       3 GLY6        0.0000 
     39 CA        -38.0500   14.8000   11.4500 C.3       3 GLY6        0.0000 
     40 CA        -40.6500   18.6900   13.1300 C.3       3 GLY6        0.0000 
     41 CA        -39.4000   17.9400   12.7800 C.3       3 GLY6        0.0000 
     42 CA        -39.9500   16.7100   13.4400 C.3       3 GLY6        0.0000 
     43 CA        -37.0300   19.6600   11.1400 C.3       3 GLY6        0.0000 
     44 CA        -37.5900   18.4300   11.7900 C.3       3 GLY6        0.0000 
     45 DU        -41.3100   19.0800    9.8600 H         4 CUB7        0.0000 
     46 DU        -41.8600   17.8500   10.5100 H         4 CUB7        0.0000 
     47 DU        -40.6100   17.1000   10.1700 H         4 CUB7        0.0000 
     48 DU        -41.1600   15.8700   10.8200 H         4 CUB7        0.0000 
     49 DU        -39.9100   15.1200   10.4800 H         4 CUB7        0.0000 
     50 DU        -40.7000   19.5000   11.1700 H         4 CUB7        0.0000 
     51 DU        -41.2600   18.2700   11.8200 H         4 CUB7        0.0000 
     52 DU        -39.4500   18.7500   10.8300 H         4 CUB7        0.0000 
     53 DU        -40.0000   17.5200   11.4800 H         4 CUB7        0.0000 
     54 DU        -39.3000   15.5400   11.7900 H         4 CUB7        0.0000 
@<TRIPOS>BOND
@<TRIPOS>SUBSTRUCTURE
     1 ALA2        1 GROUP   
     2 LYS4       22 GROUP   
     3 GLY6       24 GROUP   
     4 CUB7       45 GROUP   
@<TRIPOS>SET

