#    Name: 5z68_16_IMD_CAVITY_N1_4
#    Modification time : Fri May 22 19:25:14 2020

@<TRIPOS>MOLECULE
5z68_16_IMD_CAVITY_N1_4
   48     0     6     0     0
SMALL
NO_CHARGES


@<TRIPOS>ATOM
      1 N          12.5800    7.4100  -62.9800 N.am      1 ALA2        0.0000 
      2 N          13.8300    6.6700  -63.3200 N.am      1 ALA2        0.0000 
      3 N          14.9900    8.3200  -62.6600 N.am      1 ALA2        0.0000 
      4 N          14.4400    7.0800  -62.0100 N.am      1 ALA2        0.0000 
      5 N          15.6900    6.3400  -62.3500 N.am      1 ALA2        0.0000 
      6 N          17.5500    6.0100  -61.3900 N.am      1 ALA2        0.0000 
      7 OD1        12.5700    6.6400  -67.8900 O.co2     2 ASP3        0.0000 
      8 OD1        13.8300    5.8900  -68.2300 O.co2     2 ASP3        0.0000 
      9 OD1        12.4800    9.0400  -66.9000 O.co2     2 ASP3        0.0000 
     10 OD1        11.9200    7.8000  -66.2400 O.co2     2 ASP3        0.0000 
     11 OD1        11.3700    6.5700  -65.5900 O.co2     2 ASP3        0.0000 
     12 OD1        13.1800    7.0600  -66.5800 O.co2     2 ASP3        0.0000 
     13 OD1        14.4300    6.3100  -66.9300 O.co2     2 ASP3        0.0000 
     14 OD1        13.0800    9.4600  -65.5900 O.co2     2 ASP3        0.0000 
     15 OD1        12.5300    8.2200  -64.9400 O.co2     2 ASP3        0.0000 
     16 OD1        14.3400    8.7100  -65.9300 O.co2     2 ASP3        0.0000 
     17 OD1        13.2300    6.2500  -64.6300 O.co2     2 ASP3        0.0000 
     18 OD1        15.0400    6.7300  -65.6200 O.co2     2 ASP3        0.0000 
     19 OD1        14.4800    5.5000  -64.9700 O.co2     2 ASP3        0.0000 
     20 OD1        13.9300    4.2700  -64.3200 O.co2     2 ASP3        0.0000 
     21 OD1        16.2900    5.9900  -65.9600 O.co2     2 ASP3        0.0000 
     22 OD1        15.7400    4.7500  -65.3100 O.co2     2 ASP3        0.0000 
     23 OD1        15.1900    3.5200  -64.6600 O.co2     2 ASP3        0.0000 
     24 OD1        13.1300    8.6400  -63.6300 O.co2     2 ASP3        0.0000 
     25 OD1        14.9400    9.1300  -64.6200 O.co2     2 ASP3        0.0000 
     26 OD1        16.2000    8.3800  -64.9600 O.co2     2 ASP3        0.0000 
     27 OD1        15.6400    7.1500  -64.3100 O.co2     2 ASP3        0.0000 
     28 OD1        15.0900    5.9200  -63.6600 O.co2     2 ASP3        0.0000 
     29 OD1        17.4500    7.6400  -65.3100 O.co2     2 ASP3        0.0000 
     30 OD1        15.7900    3.9400  -63.3500 O.co2     2 ASP3        0.0000 
     31 OD1        16.8000    8.8000  -63.6600 O.co2     2 ASP3        0.0000 
     32 OD1        18.0600    8.0600  -64.0000 O.co2     2 ASP3        0.0000 
     33 OD1        17.5000    6.8200  -63.3500 O.co2     2 ASP3        0.0000 
     34 OD1        16.9500    5.5900  -62.7000 O.co2     2 ASP3        0.0000 
     35 NZ         10.7200    7.7400  -63.9400 N.4       3 LYS4        0.0000 
     36 CZ         14.3800    7.1200  -68.8900 C.ar      4 PHE5        0.0000 
     37 CZ         13.7300    8.2900  -67.2400 C.ar      4 PHE5        0.0000 
     38 CZ         14.9900    7.5400  -67.5800 C.ar      4 PHE5        0.0000 
     39 CZ         15.5900    7.9600  -66.2700 C.ar      4 PHE5        0.0000 
     40 CA         15.6900    5.5700  -67.2700 C.3       5 GLY6        0.0000 
     41 CA         11.9700    6.9900  -64.2800 C.3       5 GLY6        0.0000 
     42 CA         12.6700    5.0100  -63.9700 C.3       5 GLY6        0.0000 
     43 CA         16.1500    9.2000  -66.9200 C.3       5 GLY6        0.0000 
     44 CA         16.8500    7.2200  -66.6100 C.3       5 GLY6        0.0000 
     45 CA         14.5300    4.6900  -63.0100 C.3       5 GLY6        0.0000 
     46 DU         13.7800    7.4800  -65.2800 H         6 CUB7        0.0000 
     47 DU         14.3900    7.9000  -63.9700 H         6 CUB7        0.0000 
     48 DU         16.2500    7.5700  -63.0100 H         6 CUB7        0.0000 
@<TRIPOS>BOND
@<TRIPOS>SUBSTRUCTURE
     1 ALA2        1 GROUP   
     2 ASP3        7 GROUP   
     3 LYS4       35 GROUP   
     4 PHE5       36 GROUP   
     5 GLY6       40 GROUP   
     6 CUB7       46 GROUP   
@<TRIPOS>SET

