#    Name: 5ncl_2_ANP
#    Modification time : Fri May 22 19:15:03 2020

@<TRIPOS>MOLECULE
5ncl_2_ANP
   31    33     1     0     1
SMALL
NO_CHARGES


@<TRIPOS>ATOM
      1 PG        -34.5740  -25.4080   18.1750 P.3       1 ANP801      0.0000 
      2 O1G       -35.1430  -24.4490   17.1750 O.co2     1 ANP801      0.0000 
      3 O2G       -35.4060  -25.2900   19.5180 O.co2     1 ANP801      0.0000 
      4 O3G       -34.4860  -26.9050   17.6590 O.co2     1 ANP801      0.0000 
      5 PB        -33.1340  -24.4850   20.0910 P.3       1 ANP801      0.0000 
      6 O1B       -31.7690  -24.0300   20.4720 O.co2     1 ANP801      0.0000 
      7 O2B       -33.6440  -25.6230   21.0310 O.co2     1 ANP801      0.0000 
      8 N3B       -32.9920  -25.0070   18.5230 N.3       1 ANP801      0.0000 
      9 PA        -34.0250  -22.0280   19.0590 P.3       1 ANP801      0.0000 
     10 O1A       -33.8870  -22.5350   17.6160 O.co2     1 ANP801      0.0000 
     11 O2A       -32.9740  -21.0840   19.4830 O.co2     1 ANP801      0.0000 
     12 O3A       -34.1670  -23.3030   20.0740 O.3       1 ANP801      0.0000 
     13 O5'       -35.3370  -21.1800   19.2010 O.3       1 ANP801      0.0000 
     14 C5'       -36.0460  -20.8080   18.0130 C.3       1 ANP801      0.0000 
     15 C4'       -37.3550  -20.1850   18.4180 C.3       1 ANP801      0.0000 
     16 O4'       -37.0940  -19.1090   19.3490 O.3       1 ANP801      0.0000 
     17 C3'       -38.1720  -19.5880   17.2700 C.3       1 ANP801      0.0000 
     18 O3'       -39.1860  -20.4840   16.8290 O.3       1 ANP801      0.0000 
     19 C2'       -38.7420  -18.3010   17.8790 C.3       1 ANP801      0.0000 
     20 O2'       -40.0030  -18.4950   18.5310 O.3       1 ANP801      0.0000 
     21 C1'       -37.6110  -17.8990   18.8350 C.3       1 ANP801      0.0000 
     22 N9        -36.4930  -17.1290   18.2160 N.pl3     1 ANP801      0.0000 
     23 C8        -35.2270  -17.5970   18.0010 C.2       1 ANP801      0.0000 
     24 N7        -34.4340  -16.6980   17.4460 N.2       1 ANP801      0.0000 
     25 C5        -35.2400  -15.5850   17.2820 C.ar      1 ANP801      0.0000 
     26 C6        -35.0030  -14.3200   16.7330 C.ar      1 ANP801      0.0000 
     27 N6        -33.8280  -13.9380   16.2380 N.pl3     1 ANP801      0.0000 
     28 N1        -36.0270  -13.4350   16.7340 N.ar      1 ANP801      0.0000 
     29 C2        -37.2050  -13.8080   17.2400 C.ar      1 ANP801      0.0000 
     30 N3        -37.5530  -14.9790   17.7700 N.ar      1 ANP801      0.0000 
     31 C4        -36.5310  -15.8400   17.7690 C.ar      1 ANP801      0.0000 
@<TRIPOS>BOND
     1    1    2 ar   
     2    1    3 ar   
     3    1    4 ar   
     4    1    8 1    
     5    5    6 ar   
     6    5    7 ar   
     7    5    8 1    
     8    5   12 1    
     9    9   10 ar   
    10    9   11 ar   
    11    9   12 1    
    12    9   13 1    
    13   13   14 1    
    14   14   15 1    
    15   15   16 1    
    16   15   17 1    
    17   16   21 1    
    18   17   18 1    
    19   17   19 1    
    20   19   20 1    
    21   19   21 1    
    22   21   22 1    
    23   22   23 1    
    24   22   31 1    
    25   23   24 2    
    26   24   25 1    
    27   25   26 ar   
    28   25   31 ar   
    29   26   27 1    
    30   26   28 ar   
    31   28   29 ar   
    32   29   30 ar   
    33   30   31 ar   
@<TRIPOS>SUBSTRUCTURE
     1 ANP801      1 GROUP   
@<TRIPOS>SET
ATOM$ORANGE STATIC     ATOMS   COLORGROUP SYSTEM 
20 14 14 15 15 17 17 19 19 21 21 23 23 25 25 26 26 29 \
29 31 31 

