#    Name: 6ppz_1_MN9_CAVITY_N1_12
#    Modification time : Fri May 22 19:33:16 2020

@<TRIPOS>MOLECULE
6ppz_1_MN9_CAVITY_N1_12
   87     0     6     0     0
SMALL
NO_CHARGES


@<TRIPOS>ATOM
      1 OG        -21.0900   23.0800  -15.0400 O.3       1 SER1        0.0000 
      2 OG        -22.5200   23.5000  -15.2300 O.3       1 SER1        0.0000 
      3 OG        -21.3500   22.8600  -13.5800 O.3       1 SER1        0.0000 
      4 OG        -21.6200   22.6300  -12.1200 O.3       1 SER1        0.0000 
      5 OG        -22.1400   24.9200  -14.9500 O.3       1 SER1        0.0000 
      6 OG        -23.5700   25.3400  -15.1400 O.3       1 SER1        0.0000 
      7 OG        -20.9700   24.2800  -13.2900 O.3       1 SER1        0.0000 
      8 OG        -22.4000   24.7000  -13.4900 O.3       1 SER1        0.0000 
      9 OG        -23.8300   25.1200  -13.6800 O.3       1 SER1        0.0000 
     10 OG        -21.2400   24.0500  -11.8300 O.3       1 SER1        0.0000 
     11 OG        -22.6600   24.4700  -12.0300 O.3       1 SER1        0.0000 
     12 O         -22.2600   23.7200  -16.6900 O.2       2 ALA2        0.0000 
     13 O         -23.9500   23.9200  -15.4200 O.2       2 ALA2        0.0000 
     14 O         -19.9300   22.4400  -13.3900 O.2       2 ALA2        0.0000 
     15 O         -20.1900   22.2100  -11.9300 O.2       2 ALA2        0.0000 
     16 O         -21.8800   25.1500  -16.4100 O.2       2 ALA2        0.0000 
     17 O         -19.5500   23.8600  -13.1000 O.2       2 ALA2        0.0000 
     18 O         -19.8100   23.6300  -11.6400 O.2       2 ALA2        0.0000 
     19 O         -20.0700   23.4100  -10.1800 O.2       2 ALA2        0.0000 
     20 N         -25.7800   25.0900  -10.9500 N.am      2 ALA2        0.0000 
     21 N         -19.6900   24.8300   -9.9000 N.am      2 ALA2        0.0000 
     22 N         -23.9700   26.0900  -10.4700 N.am      2 ALA2        0.0000 
     23 O         -24.2400   25.8700   -9.0100 O.2       2 ALA2        0.0000 
     24 N         -23.8600   27.2900   -8.7300 N.am      2 ALA2        0.0000 
     25 NZ        -21.5000   23.8300  -10.3700 N.4       3 LYS4        0.0000 
     26 NZ        -22.9300   24.2500  -10.5700 N.4       3 LYS4        0.0000 
     27 NZ        -21.1200   25.2500  -10.0900 N.4       3 LYS4        0.0000 
     28 NZ        -21.3800   25.0300   -8.6300 N.4       3 LYS4        0.0000 
     29 NZ        -22.8100   25.4500   -8.8200 N.4       3 LYS4        0.0000 
     30 NZ        -20.5900   28.4400  -18.7500 N.4       3 LYS4        0.0000 
     31 NZ        -20.8500   28.2100  -17.2900 N.4       3 LYS4        0.0000 
     32 NZ        -19.6900   27.5700  -15.6400 N.4       3 LYS4        0.0000 
     33 NZ        -19.0500   29.2200  -16.8100 N.4       3 LYS4        0.0000 
     34 NZ        -20.4700   29.6400  -17.0100 N.4       3 LYS4        0.0000 
     35 NZ        -18.6700   30.6400  -16.5300 N.4       3 LYS4        0.0000 
     36 CZ        -25.2600   25.5400  -13.8700 C.ar      4 PHE5        0.0000 
     37 CZ        -26.6800   25.9600  -14.0600 C.ar      4 PHE5        0.0000 
     38 CZ        -24.0900   24.8900  -12.2200 C.ar      4 PHE5        0.0000 
     39 CZ        -25.5200   25.3200  -12.4100 C.ar      4 PHE5        0.0000 
     40 CZ        -26.9400   25.7400  -12.6000 C.ar      4 PHE5        0.0000 
     41 CZ        -24.3500   24.6700  -10.7600 C.ar      4 PHE5        0.0000 
     42 CZ        -20.0700   26.1500  -15.9300 C.ar      4 PHE5        0.0000 
     43 CZ        -19.3100   28.9900  -15.3500 C.ar      4 PHE5        0.0000 
     44 CA        -23.6800   24.1400  -16.8800 C.3       5 GLY6        0.0000 
     45 CA        -23.0400   25.7900  -18.0600 C.3       5 GLY6        0.0000 
     46 CA        -23.3000   25.5700  -16.6000 C.3       5 GLY6        0.0000 
     47 CA        -21.2300   26.7900  -17.5800 C.3       5 GLY6        0.0000 
     48 CA        -25.1400   26.7400  -12.1200 C.3       5 GLY6        0.0000 
     49 CA        -21.6400   27.5400  -12.9100 C.3       5 GLY6        0.0000 
     50 CA        -23.0700   27.9600  -13.1100 C.3       5 GLY6        0.0000 
     51 CA        -24.4900   28.3800  -13.3000 C.3       5 GLY6        0.0000 
     52 CA        -21.9000   27.3200  -11.4500 C.3       5 GLY6        0.0000 
     53 CA        -23.3300   27.7400  -11.6500 C.3       5 GLY6        0.0000 
     54 CA        -20.7400   26.6800   -9.8000 C.3       5 GLY6        0.0000 
     55 CA        -22.1700   27.1000   -9.9900 C.3       5 GLY6        0.0000 
     56 CA        -23.5900   27.5200  -10.1900 C.3       5 GLY6        0.0000 
     57 CA        -21.0000   26.4500   -8.3400 C.3       5 GLY6        0.0000 
     58 CA        -22.6900   26.6500   -7.0700 C.3       5 GLY6        0.0000 
     59 CA        -21.0000   29.1900  -14.0900 C.3       5 GLY6        0.0000 
     60 CA        -22.4200   29.6100  -14.2800 C.3       5 GLY6        0.0000 
     61 CA        -21.2600   28.9700  -12.6300 C.3       5 GLY6        0.0000 
     62 CA        -22.6900   29.3900  -12.8200 C.3       5 GLY6        0.0000 
     63 CA        -24.1100   29.8100  -13.0100 C.3       5 GLY6        0.0000 
     64 CA        -21.7900   28.5200   -9.7100 C.3       5 GLY6        0.0000 
     65 CA        -23.2100   28.9400   -9.9000 C.3       5 GLY6        0.0000 
     66 CA        -22.0500   28.3000   -8.2500 C.3       5 GLY6        0.0000 
     67 CA        -20.3500   30.8400  -15.2600 C.3       5 GLY6        0.0000 
     68 CA        -20.6200   30.6100  -13.8000 C.3       5 GLY6        0.0000 
     69 CA        -22.0400   31.0300  -13.9900 C.3       5 GLY6        0.0000 
     70 DU        -20.7100   24.5000  -14.7500 H         6 CUB7        0.0000 
     71 DU        -24.9900   25.7600  -15.3300 H         6 CUB7        0.0000 
     72 DU        -21.5000   26.5700  -16.1200 H         6 CUB7        0.0000 
     73 DU        -22.9200   26.9900  -16.3100 H         6 CUB7        0.0000 
     74 DU        -22.0200   26.1200  -13.2000 H         6 CUB7        0.0000 
     75 DU        -23.4500   26.5400  -13.3900 H         6 CUB7        0.0000 
     76 DU        -24.8700   26.9600  -13.5800 H         6 CUB7        0.0000 
     77 DU        -20.8600   25.4800  -11.5500 H         6 CUB7        0.0000 
     78 DU        -22.2800   25.9000  -11.7400 H         6 CUB7        0.0000 
     79 DU        -23.7100   26.3200  -11.9300 H         6 CUB7        0.0000 
     80 DU        -22.5500   25.6700  -10.2800 H         6 CUB7        0.0000 
     81 DU        -21.1200   27.9900  -15.8300 H         6 CUB7        0.0000 
     82 DU        -21.3800   27.7700  -14.3700 H         6 CUB7        0.0000 
     83 DU        -22.8000   28.1900  -14.5700 H         6 CUB7        0.0000 
     84 DU        -24.2300   28.6100  -14.7600 H         6 CUB7        0.0000 
     85 DU        -22.4300   26.8700   -8.5300 H         6 CUB7        0.0000 
     86 DU        -20.7300   29.4100  -15.5500 H         6 CUB7        0.0000 
     87 DU        -22.1600   29.8300  -15.7400 H         6 CUB7        0.0000 
@<TRIPOS>BOND
@<TRIPOS>SUBSTRUCTURE
     1 SER1        1 GROUP   
     2 ALA2       12 GROUP   
     3 LYS4       25 GROUP   
     4 PHE5       36 GROUP   
     5 GLY6       44 GROUP   
     6 CUB7       70 GROUP   
@<TRIPOS>SET

