#    Name: 6ppz_1_MN9
#    Modification time : Fri May 22 19:33:15 2020

@<TRIPOS>MOLECULE
6ppz_1_MN9
   15    14     1     0     0
SMALL
NO_CHARGES


@<TRIPOS>ATOM
      1 O1        -19.9570   21.4100  -13.2990 O.2       1 MN9401      0.0000 
      2 C2        -20.9100   23.4390  -12.5190 C.3       1 MN9401      0.0000 
      3 N2        -21.8060   23.9270  -13.5690 N.am      1 MN9401      0.0000 
      4 C7        -21.3500   24.7280  -14.5400 C.2       1 MN9401      0.0000 
      5 C         -20.7660   21.9270  -12.5540 C.2       1 MN9401      0.0000 
      6 O7        -20.1860   25.1090  -14.5680 O.2       1 MN9401      0.0000 
      7 C8        -22.3420   25.1440  -15.5920 C.3       1 MN9401      0.0000 
      8 C3        -21.5100   23.7790  -11.1650 C.3       1 MN9401      0.0000 
      9 O3        -20.6070   23.2030  -10.2090 O.3       1 MN9401      0.0000 
     10 C4        -21.6480   25.2740  -10.9060 C.3       1 MN9401      0.0000 
     11 O4        -20.3280   25.8230  -10.7800 O.3       1 MN9401      0.0000 
     12 C5        -22.4490   25.5580   -9.6260 C.3       1 MN9401      0.0000 
     13 C6        -22.8590   27.0350   -9.5200 C.3       1 MN9401      0.0000 
     14 O6        -23.8490   27.2440   -8.4940 O.3       1 MN9401      0.0000 
     15 O5        -23.6100   24.7190   -9.5540 O.3       1 MN9401      0.0000 
@<TRIPOS>BOND
     1    1    5 2    
     2    2    3 1    
     3    2    5 1    
     4    2    8 1    
     5    3    4 am   
     6    4    6 2    
     7    4    7 1    
     8    8    9 1    
     9    8   10 1    
    10   10   11 1    
    11   10   12 1    
    12   12   13 1    
    13   12   15 1    
    14   13   14 1    
@<TRIPOS>SUBSTRUCTURE
     1 MN9401      1 GROUP   
@<TRIPOS>SET

