#    Name: 6bs2_3_GTP_CAVITY_N1_6
#    Modification time : Fri May 22 19:33:48 2020

@<TRIPOS>MOLECULE
6bs2_3_GTP_CAVITY_N1_6
    8     0     3     0     0
SMALL
NO_CHARGES


@<TRIPOS>ATOM
      1 OG          7.6900  -16.9900   16.2200 O.3       1 SER1        0.0000 
      2 OG          9.9200  -16.5300   17.4600 O.3       1 SER1        0.0000 
      3 O           6.5500  -17.8100   16.7500 O.2       2 ALA2        0.0000 
      4 N           6.7100  -15.9300   15.7700 N.am      2 ALA2        0.0000 
      5 N           7.9800  -14.4300   16.5700 N.am      2 ALA2        0.0000 
      6 CA          6.8700  -14.0600   14.8000 C.3       3 GLY6        0.0000 
      7 CA          8.7900  -17.3600   17.9900 C.3       3 GLY6        0.0000 
      8 CA          8.9500  -15.4800   17.0100 C.3       3 GLY6        0.0000 
@<TRIPOS>BOND
@<TRIPOS>SUBSTRUCTURE
     1 SER1        1 GROUP   
     2 ALA2        3 GROUP   
     3 GLY6        6 GROUP   
@<TRIPOS>SET

