#    Name: 6bs2_5_ACP
#    Modification time : Fri May 22 19:33:52 2020

@<TRIPOS>MOLECULE
6bs2_5_ACP
   45    47     1     0     1
SMALL
NO_CHARGES


@<TRIPOS>ATOM
      1 PG          8.2710  -50.3430  -94.6290 P.3       1 ACP402      0.0000 
      2 O1G         7.8450  -51.0210  -95.9320 O.co2     1 ACP402      0.0000 
      3 O2G         7.1540  -49.5990  -93.8780 O.co2     1 ACP402      0.0000 
      4 O3G         9.0830  -51.2330  -93.6750 O.co2     1 ACP402      0.0000 
      5 PB         10.8750  -49.5420  -96.1270 P.3       1 ACP402      0.0000 
      6 O1B        11.3280  -48.8570  -97.3900 O.co2     1 ACP402      0.0000 
      7 O2B        11.9530  -50.2210  -95.3090 O.co2     1 ACP402      0.0000 
      8 C3B         9.5400  -48.9890  -95.2440 C.3       1 ACP402      0.0000 
      9 PA         10.8260  -51.5900  -98.4760 P.3       1 ACP402      0.0000 
     10 O1A        10.1480  -52.7580  -99.1330 O.co2     1 ACP402      0.0000 
     11 O2A        12.2970  -51.3420  -98.7560 O.co2     1 ACP402      0.0000 
     12 O3A        10.2430  -50.9430  -97.2160 O.3       1 ACP402      0.0000 
     13 O5'        10.2350  -50.4910  -99.9310 O.3       1 ACP402      0.0000 
     14 C5'         9.8900  -49.2160  -99.8560 C.3       1 ACP402      0.0000 
     15 C4'         8.9480  -48.9010 -101.1520 C.3       1 ACP402      0.0000 
     16 O4'         9.5530  -49.4650 -102.3300 O.3       1 ACP402      0.0000 
     17 C3'         7.5840  -49.5790 -101.0530 C.3       1 ACP402      0.0000 
     18 O3'         6.6310  -48.7380 -100.5520 O.3       1 ACP402      0.0000 
     19 C2'         7.2290  -49.9490 -102.5410 C.3       1 ACP402      0.0000 
     20 O2'         6.4570  -48.9530 -103.1260 O.3       1 ACP402      0.0000 
     21 C1'         8.5890  -49.8810 -103.2520 C.3       1 ACP402      0.0000 
     22 N9          9.0380  -51.2300 -103.6560 N.pl3     1 ACP402      0.0000 
     23 C8          9.9670  -52.0330 -102.9450 C.2       1 ACP402      0.0000 
     24 N7         10.2060  -53.2140 -103.5950 N.2       1 ACP402      0.0000 
     25 C5          9.4160  -53.1490 -104.7470 C.ar      1 ACP402      0.0000 
     26 C6          9.2250  -54.0570 -105.8120 C.ar      1 ACP402      0.0000 
     27 N6          9.8660  -55.2760 -105.8690 N.pl3     1 ACP402      0.0000 
     28 N1          8.3690  -53.7330 -106.8480 N.ar      1 ACP402      0.0000 
     29 C2          7.7460  -52.4960 -106.7420 C.ar      1 ACP402      0.0000 
     30 N3          7.8300  -51.5480 -105.7870 N.ar      1 ACP402      0.0000 
     31 C4          8.6910  -51.9180 -104.7960 C.ar      1 ACP402      0.0000 
     32 H3B1        8.9840  -48.3460  -95.7130 H         1 ACP402      0.0000 
     33 H3B2        9.7640  -48.4980  -94.4380 H         1 ACP402      0.0000 
     34 H5'1        9.3260  -48.9620  -99.1080 H         1 ACP402      0.0000 
     35 H5'2       10.6030  -48.5610  -99.9060 H         1 ACP402      0.0000 
     36 H4'         8.8980  -47.9740 -101.2960 H         1 ACP402      0.0000 
     37 H3'         7.6980  -50.3860 -100.5860 H         1 ACP402      0.0000 
     38 HO3'        5.8990  -48.9790 -100.9100 H         1 ACP402      0.0000 
     39 H2'         6.8010  -50.7840 -102.5980 H         1 ACP402      0.0000 
     40 HO2'        6.9730  -48.2890 -103.2480 H         1 ACP402      0.0000 
     41 H1'         8.6000  -49.3480 -104.0250 H         1 ACP402      0.0000 
     42 H8         10.3340  -51.7440 -102.1420 H         1 ACP402      0.0000 
     43 HN61        9.8880  -55.7390 -106.6030 H         1 ACP402      0.0000 
     44 HN62       10.2590  -55.5950 -105.1640 H         1 ACP402      0.0000 
     45 H2          7.1730  -52.3000 -107.4470 H         1 ACP402      0.0000 
@<TRIPOS>BOND
     1    1    2 ar   
     2    1    3 ar   
     3    1    4 ar   
     4    1    8 1    
     5    5    6 ar   
     6    5    7 ar   
     7    5    8 1    
     8    5   12 1    
     9    8   32 1    
    10    8   33 1    
    11    9   10 ar   
    12    9   11 ar   
    13    9   12 1    
    14    9   13 1    
    15   13   14 1    
    16   14   15 1    
    17   14   34 1    
    18   14   35 1    
    19   15   16 1    
    20   15   17 1    
    21   16   21 1    
    22   15   36 1    
    23   17   18 1    
    24   17   19 1    
    25   19   20 1    
    26   17   37 1    
    27   18   38 1    
    28   19   21 1    
    29   21   22 1    
    30   19   39 1    
    31   20   40 1    
    32   22   23 1    
    33   21   41 1    
    34   22   31 1    
    35   23   24 2    
    36   24   25 1    
    37   23   42 1    
    38   25   26 ar   
    39   25   31 ar   
    40   26   27 1    
    41   26   28 ar   
    42   28   29 ar   
    43   27   43 1    
    44   27   44 1    
    45   29   30 ar   
    46   30   31 ar   
    47   29   45 1    
@<TRIPOS>SUBSTRUCTURE
     1 ACP402      1 GROUP   
@<TRIPOS>SET
ATOM$ORANGE STATIC     ATOMS   COLORGROUP SYSTEM 
22 8 8 14 14 15 15 17 17 19 19 21 21 23 23 25 25 26 \
26 29 29 31 31 

