#    Name: 6bs2_3_GTP
#    Modification time : Fri May 22 19:33:47 2020

@<TRIPOS>MOLECULE
6bs2_3_GTP
   32    34     1     0     1
SMALL
NO_CHARGES


@<TRIPOS>ATOM
      1 PG         20.4160  -18.6010   16.9280 P.3       1 GTP501      0.0000 
      2 O1G        20.5730  -17.1820   16.4300 O.co2     1 GTP501      0.0000 
      3 O2G        21.7370  -19.0510   17.5310 O.co2     1 GTP501      0.0000 
      4 O3G        19.2820  -18.7270   17.9180 O.co2     1 GTP501      0.0000 
      5 O3B        20.1320  -19.5050   15.6250 O.3       1 GTP501      0.0000 
      6 PB         18.8240  -20.4480   15.5140 P.3       1 GTP501      0.0000 
      7 O1B        19.1900  -21.3650   14.3880 O.co2     1 GTP501      0.0000 
      8 O2B        18.4200  -21.1200   16.8300 O.co2     1 GTP501      0.0000 
      9 O3A        17.6400  -19.4420   15.1160 O.3       1 GTP501      0.0000 
     10 PA         16.2170  -19.9410   14.5880 P.3       1 GTP501      0.0000 
     11 O1A        16.3320  -21.3490   14.0860 O.co2     1 GTP501      0.0000 
     12 O2A        15.1700  -19.7840   15.6410 O.co2     1 GTP501      0.0000 
     13 O5'        16.0060  -18.9440   13.3340 O.3       1 GTP501      0.0000 
     14 C5'        15.1050  -17.8690   13.2950 C.3       1 GTP501      0.0000 
     15 C4'        14.1840  -18.0510   12.0900 C.3       1 GTP501      0.0000 
     16 O4'        13.6980  -19.3870   12.0540 O.3       1 GTP501      0.0000 
     17 C3'        12.9720  -17.1340   12.1560 C.3       1 GTP501      0.0000 
     18 O3'        12.6530  -16.8090   10.8300 O.3       1 GTP501      0.0000 
     19 C2'        11.9200  -18.0580   12.7300 C.3       1 GTP501      0.0000 
     20 O2'        10.5970  -17.7130   12.4170 O.3       1 GTP501      0.0000 
     21 C1'        12.2910  -19.3920   12.1160 C.3       1 GTP501      0.0000 
     22 N9         11.8420  -20.4720   13.0150 N.pl3     1 GTP501      0.0000 
     23 C8         12.2320  -20.6680   14.3100 C.2       1 GTP501      0.0000 
     24 N7         11.6010  -21.7660   14.7790 N.2       1 GTP501      0.0000 
     25 C5         10.8160  -22.2750   13.8030 C.2       1 GTP501      0.0000 
     26 C6          9.9780  -23.3870   13.7510 C.2       1 GTP501      0.0000 
     27 O6          9.8220  -24.1250   14.7380 O.2       1 GTP501      0.0000 
     28 N1          9.3060  -23.6540   12.5730 N.am      1 GTP501      0.0000 
     29 C2          9.4540  -22.8250   11.4780 C.2       1 GTP501      0.0000 
     30 N2          8.7890  -23.0830   10.3520 N.pl3     1 GTP501      0.0000 
     31 N3         10.2970  -21.7360   11.5440 N.2       1 GTP501      0.0000 
     32 C4         10.9630  -21.4730   12.6880 C.2       1 GTP501      0.0000 
@<TRIPOS>BOND
     1    1    2 ar   
     2    1    3 ar   
     3    1    4 ar   
     4    1    5 1    
     5    5    6 1    
     6    6    7 ar   
     7    6    8 ar   
     8    6    9 1    
     9    9   10 1    
    10   10   11 ar   
    11   10   12 ar   
    12   10   13 1    
    13   13   14 1    
    14   14   15 1    
    15   15   16 1    
    16   15   17 1    
    17   16   21 1    
    18   17   18 1    
    19   17   19 1    
    20   19   20 1    
    21   19   21 1    
    22   21   22 1    
    23   22   23 1    
    24   22   32 1    
    25   23   24 2    
    26   24   25 1    
    27   25   26 1    
    28   25   32 2    
    29   26   27 2    
    30   26   28 am   
    31   28   29 1    
    32   29   30 1    
    33   29   31 2    
    34   31   32 1    
@<TRIPOS>SUBSTRUCTURE
     1 GTP501      1 GROUP   
@<TRIPOS>SET
ATOM$ORANGE STATIC     ATOMS   COLORGROUP SYSTEM 
20 14 14 15 15 17 17 19 19 21 21 23 23 25 25 26 26 29 \
29 32 32 

