#    Name: 6bs2_3_GTP_CAVITY_N1_8
#    Modification time : Fri May 22 19:33:48 2020

@<TRIPOS>MOLECULE
6bs2_3_GTP_CAVITY_N1_8
   30     0     5     0     0
SMALL
NO_CHARGES


@<TRIPOS>ATOM
      1 OG          7.6900  -16.9900   16.2200 O.3       1 SER1        0.0000 
      2 OG          9.9200  -16.5300   17.4600 O.3       1 SER1        0.0000 
      3 O           6.5500  -17.8100   16.7500 O.2       2 ALA2        0.0000 
      4 N           6.7100  -15.9300   15.7700 N.am      2 ALA2        0.0000 
      5 O           6.6800  -17.1300   18.0800 O.2       2 ALA2        0.0000 
      6 O           5.7100  -16.0800   17.6400 O.2       2 ALA2        0.0000 
      7 N           7.9800  -14.4300   16.5700 N.am      2 ALA2        0.0000 
      8 N           7.0100  -13.3800   16.1300 N.am      2 ALA2        0.0000 
      9 N           6.0300  -12.3200   15.6800 N.am      2 ALA2        0.0000 
     10 N           7.1700  -11.5000   15.1500 N.am      2 ALA2        0.0000 
     11 N           8.1100  -13.7500   17.9000 N.am      2 ALA2        0.0000 
     12 N           9.2400  -12.9200   17.3700 N.am      2 ALA2        0.0000 
     13 N          10.3800  -12.1000   16.8300 N.am      2 ALA2        0.0000 
     14 N           7.1400  -12.6900   17.4600 N.am      2 ALA2        0.0000 
     15 N           8.2700  -11.8700   16.9200 N.am      2 ALA2        0.0000 
     16 N           9.4000  -11.0500   16.3900 N.am      2 ALA2        0.0000 
     17 OD1         4.4400  -17.5800   16.8400 O.co2     3 ASP3        0.0000 
     18 OD1         5.5800  -16.7600   16.3100 O.co2     3 ASP3        0.0000 
     19 OD1         5.7400  -14.8800   15.3300 O.co2     3 ASP3        0.0000 
     20 OD1         5.8700  -14.2000   16.6600 O.co2     3 ASP3        0.0000 
     21 CA          6.8700  -14.0600   14.8000 C.3       4 GLY6        0.0000 
     22 CA          8.7900  -17.3600   17.9900 C.3       4 GLY6        0.0000 
     23 CA          7.8200  -16.3000   17.5500 C.3       4 GLY6        0.0000 
     24 CA          8.9500  -15.4800   17.0100 C.3       4 GLY6        0.0000 
     25 CA         10.0500  -15.8500   18.7900 C.3       4 GLY6        0.0000 
     26 CA          7.9500  -15.6200   18.8800 C.3       4 GLY6        0.0000 
     27 CA          9.0800  -14.8000   18.3400 C.3       4 GLY6        0.0000 
     28 CA         10.2200  -13.9700   17.8100 C.3       4 GLY6        0.0000 
     29 DU          6.8400  -15.2500   17.1000 H         5 CUB7        0.0000 
     30 DU          6.9700  -14.5700   18.4300 H         5 CUB7        0.0000 
@<TRIPOS>BOND
@<TRIPOS>SUBSTRUCTURE
     1 SER1        1 GROUP   
     2 ALA2        3 GROUP   
     3 ASP3       17 GROUP   
     4 GLY6       21 GROUP   
     5 CUB7       29 GROUP   
@<TRIPOS>SET

