#    Name: 6nki_1_NDP
#    Modification time : Fri May 22 19:27:01 2020

@<TRIPOS>MOLECULE
6nki_1_NDP
   74    78     1     0     1
SMALL
NO_CHARGES


@<TRIPOS>ATOM
      1 PA         21.6380   31.4030   71.9900 P.3       1 NDP2501     0.0000 
      2 O1A        22.5460   30.2110   71.8970 O.co2     1 NDP2501     0.0000 
      3 O2A        22.2330   32.7650   72.2340 O.co2     1 NDP2501     0.0000 
      4 O5B        20.3350   31.1640   73.0320 O.3       1 NDP2501     0.0000 
      5 C5B        20.8070   30.5840   74.1970 C.3       1 NDP2501     0.0000 
      6 C4B        20.2260   31.3280   75.4020 C.3       1 NDP2501     0.0000 
      7 O4B        20.9490   30.8900   76.5850 O.3       1 NDP2501     0.0000 
      8 C3B        20.3730   32.8310   75.2280 C.3       1 NDP2501     0.0000 
      9 O3B        19.2670   33.4520   75.7920 O.3       1 NDP2501     0.0000 
     10 C2B        21.6250   33.2090   76.0990 C.3       1 NDP2501     0.0000 
     11 O2B        21.5800   34.4500   76.6550 O.3       1 NDP2501     0.0000 
     12 C1B        21.5020   32.0630   77.2170 C.3       1 NDP2501     0.0000 
     13 N9A        22.8320   31.7150   77.8360 N.pl3     1 NDP2501     0.0000 
     14 C8A        23.9720   31.1360   77.2320 C.2       1 NDP2501     0.0000 
     15 N7A        25.0050   30.9600   78.0960 N.2       1 NDP2501     0.0000 
     16 C5A        24.5070   31.4540   79.3220 C.ar      1 NDP2501     0.0000 
     17 C6A        25.0780   31.5600   80.6090 C.ar      1 NDP2501     0.0000 
     18 N6A        26.3680   31.1370   80.8530 N.pl3     1 NDP2501     0.0000 
     19 N1A        24.3780   32.0900   81.6570 N.ar      1 NDP2501     0.0000 
     20 C2A        23.1060   32.5000   81.3570 C.ar      1 NDP2501     0.0000 
     21 N3A        22.4260   32.4630   80.2110 N.ar      1 NDP2501     0.0000 
     22 C4A        23.1610   31.9250   79.1760 C.ar      1 NDP2501     0.0000 
     23 O3         20.8910   31.4990   70.4870 O.3       1 NDP2501     0.0000 
     24 PN         20.5290   30.0300   69.9170 P.3       1 NDP2501     0.0000 
     25 O1N        19.6640   30.1650   68.7250 O.co2     1 NDP2501     0.0000 
     26 O2N        21.7470   29.1300   69.8930 O.co2     1 NDP2501     0.0000 
     27 O5D        19.4270   29.0900   71.0680 O.3       1 NDP2501     0.0000 
     28 C5D        18.1980   29.7570   71.3720 C.3       1 NDP2501     0.0000 
     29 C4D        16.9570   28.7410   71.4610 C.3       1 NDP2501     0.0000 
     30 O4D        16.6930   28.1400   70.1850 O.3       1 NDP2501     0.0000 
     31 C3D        17.2180   27.5680   72.4510 C.3       1 NDP2501     0.0000 
     32 O3D        16.2340   27.5960   73.4670 O.3       1 NDP2501     0.0000 
     33 C2D        17.1080   26.2490   71.6350 C.3       1 NDP2501     0.0000 
     34 O2D        16.2190   25.3050   72.2050 O.3       1 NDP2501     0.0000 
     35 C1D        16.4920   26.6990   70.3370 C.3       1 NDP2501     0.0000 
     36 N1N        17.1320   26.1060   69.0680 N.pl3     1 NDP2501     0.0000 
     37 C2N        17.0230   26.8980   67.9650 C.2       1 NDP2501     0.0000 
     38 C3N        17.5520   26.5670   66.7780 C.2       1 NDP2501     0.0000 
     39 C7N        17.2120   27.5470   65.7730 C.2       1 NDP2501     0.0000 
     40 O7N        17.2030   28.7650   65.9230 O.2       1 NDP2501     0.0000 
     41 N7N        16.7410   27.0100   64.6190 N.am      1 NDP2501     0.0000 
     42 C4N        18.3630   25.2830   66.5450 C.3       1 NDP2501     0.0000 
     43 C5N        18.3130   24.3870   67.7500 C.2       1 NDP2501     0.0000 
     44 C6N        17.7350   24.7850   68.9230 C.2       1 NDP2501     0.0000 
     45 P2B        22.6430   35.7240   75.7840 P.3       1 NDP2501     0.0000 
     46 O1X        22.2210   36.9450   76.5410 O.co2     1 NDP2501     0.0000 
     47 O2X        24.0680   35.2120   76.0200 O.co2     1 NDP2501     0.0000 
     48 O3X        22.0700   35.5330   74.4150 O.co2     1 NDP2501     0.0000 
     49 H51A       20.5610   29.6460   74.2280 H         1 NDP2501     0.0000 
     50 H52A       21.7760   30.6110   74.2170 H         1 NDP2501     0.0000 
     51 H4B        19.2870   31.1040   75.4900 H         1 NDP2501     0.0000 
     52 H3B        20.5450   33.0790   74.3060 H         1 NDP2501     0.0000 
     53 HO3A       18.9310   33.9270   75.1730 H         1 NDP2501     0.0000 
     54 H2B        22.4250   33.0290   75.5800 H         1 NDP2501     0.0000 
     55 H1B        20.9140   32.3400   77.9380 H         1 NDP2501     0.0000 
     56 H8A        23.9820   30.9110   76.3300 H         1 NDP2501     0.0000 
     57 H61A       27.0100   31.7080   80.8260 H         1 NDP2501     0.0000 
     58 H62A       26.5110   30.3070   81.0300 H         1 NDP2501     0.0000 
     59 H2A        22.6520   32.8630   82.0830 H         1 NDP2501     0.0000 
     60 H51N       17.9900   30.4340   70.7090 H         1 NDP2501     0.0000 
     61 H52N       18.2560   30.2400   72.2120 H         1 NDP2501     0.0000 
     62 H4D        16.1930   29.2570   71.7620 H         1 NDP2501     0.0000 
     63 H3D        18.1280   27.6680   72.7730 H         1 NDP2501     0.0000 
     64 HO3N       16.6490   27.4420   74.1930 H         1 NDP2501     0.0000 
     65 H2D        17.9900   25.8710   71.4950 H         1 NDP2501     0.0000 
     66 HO2N       16.7130   24.6920   72.5250 H         1 NDP2501     0.0000 
     67 H1D        15.5550   26.4560   70.3920 H         1 NDP2501     0.0000 
     68 H2N        16.5580   27.6970   68.0650 H         1 NDP2501     0.0000 
     69 H71N       16.4780   27.5280   63.9850 H         1 NDP2501     0.0000 
     70 H72N       16.7090   26.1560   64.5280 H         1 NDP2501     0.0000 
     71 H41N       18.0260   24.8000   65.7750 H         1 NDP2501     0.0000 
     72 H42N       19.2890   25.4960   66.3460 H         1 NDP2501     0.0000 
     73 H5N        18.6880   23.5380   67.6900 H         1 NDP2501     0.0000 
     74 H6N        17.7020   24.2320   69.6700 H         1 NDP2501     0.0000 
@<TRIPOS>BOND
     1    1    2 ar   
     2    1    3 ar   
     3    1    4 1    
     4    1   23 1    
     5    4    5 1    
     6    5    6 1    
     7    5   49 1    
     8    5   50 1    
     9    6    7 1    
    10    6    8 1    
    11    6   51 1    
    12    7   12 1    
    13    8    9 1    
    14    8   10 1    
    15    8   52 1    
    16    9   53 1    
    17   10   11 1    
    18   10   12 1    
    19   10   54 1    
    20   11   45 1    
    21   12   13 1    
    22   12   55 1    
    23   13   14 1    
    24   13   22 1    
    25   14   15 2    
    26   15   16 1    
    27   14   56 1    
    28   16   17 ar   
    29   16   22 ar   
    30   17   18 1    
    31   17   19 ar   
    32   19   20 ar   
    33   18   57 1    
    34   18   58 1    
    35   20   21 ar   
    36   21   22 ar   
    37   20   59 1    
    38   23   24 1    
    39   24   25 ar   
    40   24   26 ar   
    41   24   27 1    
    42   27   28 1    
    43   28   29 1    
    44   28   60 1    
    45   28   61 1    
    46   29   30 1    
    47   29   31 1    
    48   29   62 1    
    49   30   35 1    
    50   31   32 1    
    51   31   33 1    
    52   31   63 1    
    53   32   64 1    
    54   34   66 1    
    55   33   34 1    
    56   33   35 1    
    57   33   65 1    
    58   35   36 1    
    59   35   67 1    
    60   36   37 1    
    61   36   44 1    
    62   37   38 2    
    63   38   39 1    
    64   37   68 1    
    65   38   42 1    
    66   39   40 2    
    67   39   41 am   
    68   42   43 1    
    69   41   69 1    
    70   41   70 1    
    71   42   71 1    
    72   42   72 1    
    73   43   44 2    
    74   45   46 ar   
    75   43   73 1    
    76   44   74 1    
    77   45   47 ar   
    78   45   48 ar   
@<TRIPOS>SUBSTRUCTURE
     1 NDP2501     1 GROUP   
@<TRIPOS>SET
ATOM$ORANGE STATIC     ATOMS   COLORGROUP SYSTEM 
42 5 5 6 6 8 8 10 10 12 12 14 14 16 16 17 17 20 \
20 22 22 28 28 29 29 31 31 33 33 35 35 37 37 38 38 39 \
39 42 42 43 43 44 44 

