#    Name: 6rgx_1_DXT
#    Modification time : Fri May 22 19:24:32 2020

@<TRIPOS>MOLECULE
6rgx_1_DXT
   32    35     1     0     0
SMALL
NO_CHARGES


@<TRIPOS>ATOM
      1 C1          2.3990   17.3740   55.5580 C.2       1 DXT301      0.0000 
      2 O1          1.9170   16.8790   56.5900 O.2       1 DXT301      0.0000 
      3 C2          1.7810   18.3660   54.6980 C.2       1 DXT301      0.0000 
      4 O21         0.0130   19.8960   54.2620 O.2       1 DXT301      0.0000 
      5 C21         0.5150   19.0830   55.0440 C.2       1 DXT301      0.0000 
      6 N21        -0.0690   18.7230   56.3060 N.am      1 DXT301      0.0000 
      7 C3          2.4700   18.7060   53.5150 C.2       1 DXT301      0.0000 
      8 O3          2.3670   19.8500   52.9140 O.co2     1 DXT301      0.0000 
      9 C4          3.3520   17.7580   52.7480 C.3       1 DXT301      0.0000 
     10 N4          4.4430   18.4600   52.0050 N.4       1 DXT301      0.0000 
     11 C41         4.1190   18.9150   50.6440 C.3       1 DXT301      0.0000 
     12 C42         5.2220   19.4590   52.7430 C.3       1 DXT301      0.0000 
     13 C4A         3.8870   16.6070   53.6290 C.3       1 DXT301      0.0000 
     14 C5          3.0670   15.3440   53.3500 C.3       1 DXT301      0.0000 
     15 O5          2.9270   15.2600   51.9650 O.3       1 DXT301      0.0000 
     16 C5A         3.7330   14.1250   53.9740 C.3       1 DXT301      0.0000 
     17 C6          2.7960   12.8980   53.9380 C.3       1 DXT301      0.0000 
     18 C61         2.2170   12.5640   52.5530 C.3       1 DXT301      0.0000 
     19 C6A         3.5490   11.7390   54.5880 C.ar      1 DXT301      0.0000 
     20 C7          3.3700   10.4250   54.1550 C.ar      1 DXT301      0.0000 
     21 C8          4.0480    9.3840   54.7710 C.ar      1 DXT301      0.0000 
     22 C9          4.9090    9.6010   55.8230 C.ar      1 DXT301      0.0000 
     23 C10         5.1300   10.8990   56.2830 C.ar      1 DXT301      0.0000 
     24 O10         5.9940   11.0740   57.3140 O.co2     1 DXT301      0.0000 
     25 C6B         4.4430   11.9830   55.6730 C.ar      1 DXT301      0.0000 
     26 C11         4.6680   13.3250   56.1930 C.2       1 DXT301      0.0000 
     27 O11         5.2670   13.5030   57.3110 O.2       1 DXT301      0.0000 
     28 C5B         4.2260   14.4360   55.3830 C.2       1 DXT301      0.0000 
     29 C12         4.2860   15.7020   55.8880 C.2       1 DXT301      0.0000 
     30 O12         4.7590   16.0080   57.0980 O.co2     1 DXT301      0.0000 
     31 C4B         3.8210   16.9110   55.1170 C.3       1 DXT301      0.0000 
     32 O13         4.6400   18.0290   55.4210 O.3       1 DXT301      0.0000 
@<TRIPOS>BOND
     1    1    2 2    
     2    1    3 1    
     3    1   31 1    
     4    3    5 1    
     5    3    7 2    
     6    4    5 2    
     7    5    6 am   
     8    7    8 ar   
     9    7    9 1    
    10    9   10 1    
    11    9   13 1    
    12   10   11 1    
    13   10   12 1    
    14   13   14 1    
    15   13   31 1    
    16   14   15 1    
    17   14   16 1    
    18   16   17 1    
    19   16   28 1    
    20   17   18 1    
    21   17   19 1    
    22   19   20 ar   
    23   19   25 ar   
    24   20   21 ar   
    25   21   22 ar   
    26   22   23 ar   
    27   23   24 ar   
    28   23   25 ar   
    29   25   26 1    
    30   26   27 2    
    31   26   28 1    
    32   28   29 2    
    33   29   30 ar   
    34   29   31 1    
    35   31   32 1    
@<TRIPOS>SUBSTRUCTURE
     1 DXT301      1 GROUP   
@<TRIPOS>SET

