#    Name: 6czp_8_FMN
#    Modification time : Fri May 22 19:29:16 2020

@<TRIPOS>MOLECULE
6czp_8_FMN
   31    33     1     0     1
SMALL
NO_CHARGES


@<TRIPOS>ATOM
      1 N1         -5.7730   53.1760   -7.6230 N.2       1 FMN301      0.0000 
      2 C2         -6.8990   53.1130   -6.8620 C.2       1 FMN301      0.0000 
      3 O2         -7.1670   54.0840   -6.1140 O.2       1 FMN301      0.0000 
      4 N3         -7.7330   52.0500   -6.8750 N.am      1 FMN301      0.0000 
      5 C4         -7.5040   50.9710   -7.6360 C.2       1 FMN301      0.0000 
      6 O4         -8.2960   50.0020   -7.6170 O.2       1 FMN301      0.0000 
      7 C4A        -6.2950   50.9690   -8.4930 C.2       1 FMN301      0.0000 
      8 N5         -5.9940   49.9270   -9.2920 N.2       1 FMN301      0.0000 
      9 C5A        -4.8950   49.9460  -10.0790 C.ar      1 FMN301      0.0000 
     10 C6         -4.6410   48.8530  -10.8900 C.ar      1 FMN301      0.0000 
     11 C7         -3.5310   48.8230  -11.7190 C.ar      1 FMN301      0.0000 
     12 C7M        -3.2610   47.6300  -12.6000 C.3       1 FMN301      0.0000 
     13 C8         -2.6090   49.9680  -11.7200 C.ar      1 FMN301      0.0000 
     14 C8M        -1.4090   49.9420  -12.6210 C.3       1 FMN301      0.0000 
     15 C9         -2.8460   51.0680  -10.9050 C.ar      1 FMN301      0.0000 
     16 C9A        -3.9640   51.1080  -10.0780 C.ar      1 FMN301      0.0000 
     17 N10        -4.2420   52.2120   -9.2330 N.pl3     1 FMN301      0.0000 
     18 C10        -5.4190   52.1660   -8.4440 C.2       1 FMN301      0.0000 
     19 C1'        -3.3710   53.4020   -9.2040 C.3       1 FMN301      0.0000 
     20 C2'        -1.9910   53.1660   -8.5580 C.3       1 FMN301      0.0000 
     21 O2'        -2.0530   53.3770   -7.1420 O.3       1 FMN301      0.0000 
     22 C3'        -0.9730   54.1330   -9.1800 C.3       1 FMN301      0.0000 
     23 O3'        -0.8230   53.8190  -10.5690 O.3       1 FMN301      0.0000 
     24 C4'         0.4200   54.1380   -8.5450 C.3       1 FMN301      0.0000 
     25 O4'         0.3390   54.5560   -7.1790 O.3       1 FMN301      0.0000 
     26 C5'         1.3660   55.0830   -9.2880 C.3       1 FMN301      0.0000 
     27 O5'         0.9150   56.4370   -9.1740 O.3       1 FMN301      0.0000 
     28 P           0.2580   57.2480  -10.4240 P.3       1 FMN301      0.0000 
     29 O1P        -0.4720   58.3590   -9.7040 O.co2     1 FMN301      0.0000 
     30 O2P         1.4110   57.7080  -11.2850 O.co2     1 FMN301      0.0000 
     31 O3P        -0.6280   56.2560  -11.1470 O.co2     1 FMN301      0.0000 
@<TRIPOS>BOND
     1    1    2 1    
     2    1   18 2    
     3    2    3 2    
     4    2    4 am   
     5    4    5 am   
     6    5    6 2    
     7    5    7 1    
     8    7    8 2    
     9    7   18 1    
    10    8    9 1    
    11    9   10 ar   
    12    9   16 ar   
    13   10   11 ar   
    14   11   12 1    
    15   11   13 ar   
    16   13   14 1    
    17   13   15 ar   
    18   15   16 ar   
    19   16   17 1    
    20   17   18 1    
    21   17   19 1    
    22   19   20 1    
    23   20   21 1    
    24   20   22 1    
    25   22   23 1    
    26   22   24 1    
    27   24   25 1    
    28   24   26 1    
    29   26   27 1    
    30   27   28 1    
    31   28   29 ar   
    32   28   30 ar   
    33   28   31 ar   
@<TRIPOS>SUBSTRUCTURE
     1 FMN301      1 GROUP   
@<TRIPOS>SET
ATOM$ORANGE STATIC     ATOMS   COLORGROUP SYSTEM 
34 2 2 5 5 7 7 9 9 10 10 11 11 12 12 13 13 14 \
14 15 15 16 16 18 18 19 19 20 20 22 22 24 24 26 26 

