#    Name: 6czp_6_FMN_CAVITY_N1_6
#    Modification time : Fri May 22 19:28:54 2020

@<TRIPOS>MOLECULE
6czp_6_FMN_CAVITY_N1_6
  114     0     6     0     0
SMALL
NO_CHARGES


@<TRIPOS>ATOM
      1 OG         10.0300    9.1700   -6.9000 O.3       1 SER1        0.0000 
      2 OG         10.4600    9.5900   -5.5300 O.3       1 SER1        0.0000 
      3 OG          9.0200    9.6900   -5.1100 O.3       1 SER1        0.0000 
      4 OG         10.9200    8.5600   -3.7200 O.3       1 SER1        0.0000 
      5 OG         10.8900   10.0000   -4.1500 O.3       1 SER1        0.0000 
      6 OG          9.4800    8.6600   -3.3100 O.3       1 SER1        0.0000 
      7 OG         11.3700    7.5400   -1.9200 O.3       1 SER1        0.0000 
      8 OG         11.3400    8.9800   -2.3500 O.3       1 SER1        0.0000 
      9 OG          9.9300    7.6400   -1.5100 O.3       1 SER1        0.0000 
     10 OG          9.9100    9.0700   -1.9300 O.3       1 SER1        0.0000 
     11 N          12.0500    8.1500  -10.4900 N.am      2 ALA2        0.0000 
     12 N          12.0300    9.5900  -10.9200 N.am      2 ALA2        0.0000 
     13 O          12.0000   11.0300  -11.3400 O.2       2 ALA2        0.0000 
     14 N          10.5900    9.6900  -10.5000 N.am      2 ALA2        0.0000 
     15 O          10.5600   11.1300  -10.9200 O.2       2 ALA2        0.0000 
     16 O          10.5400   12.5700  -11.3500 O.2       2 ALA2        0.0000 
     17 O           9.1300   11.2200  -10.5000 O.2       2 ALA2        0.0000 
     18 N          11.0200   10.1000   -9.1200 N.am      2 ALA2        0.0000 
     19 N           9.5800   10.2000   -8.7000 N.am      2 ALA2        0.0000 
     20 N           9.5500   11.6400   -9.1300 N.am      2 ALA2        0.0000 
     21 N           8.1200   11.7400   -8.7100 N.am      2 ALA2        0.0000 
     22 N           6.6800   11.8300   -8.2900 N.am      2 ALA2        0.0000 
     23 N          10.0100   10.6100   -7.3300 N.am      2 ALA2        0.0000 
     24 N           8.6000    9.2700   -6.4800 N.am      2 ALA2        0.0000 
     25 N           8.5700   10.7100   -6.9100 N.am      2 ALA2        0.0000 
     26 O           5.6700   12.3500   -6.5000 O.2       2 ALA2        0.0000 
     27 O          10.4400   11.0300   -5.9500 O.2       2 ALA2        0.0000 
     28 N           9.0000   11.1200   -5.5300 N.am      2 ALA2        0.0000 
     29 N           7.5600   11.2200   -5.1100 N.am      2 ALA2        0.0000 
     30 O          10.8600   11.4400   -4.5700 O.2       2 ALA2        0.0000 
     31 N           9.4500   10.1000   -3.7300 N.am      2 ALA2        0.0000 
     32 N           8.0200   10.2000   -3.3100 N.am      2 ALA2        0.0000 
     33 O          12.8100    7.4400   -2.3400 O.2       2 ALA2        0.0000 
     34 O          12.7300   11.7600   -3.6100 O.2       2 ALA2        0.0000 
     35 O          11.3200   10.4200   -2.7700 O.2       2 ALA2        0.0000 
     36 N           9.8800   10.5100   -2.3500 N.am      2 ALA2        0.0000 
     37 OD1        13.9200    8.4700   -9.5300 O.co2     3 ASP3        0.0000 
     38 OD1        12.4800    8.5700   -9.1100 O.co2     3 ASP3        0.0000 
     39 OD1        12.4500   10.0000   -9.5400 O.co2     3 ASP3        0.0000 
     40 OD1        11.0400    8.6600   -8.7000 O.co2     3 ASP3        0.0000 
     41 OD1        15.7800    8.7800   -8.5700 O.co2     3 ASP3        0.0000 
     42 OD1        14.3200   10.3200   -8.5800 O.co2     3 ASP3        0.0000 
     43 OD1        11.4700    9.0800   -7.3200 O.co2     3 ASP3        0.0000 
     44 OD1        16.2100    9.2000   -7.2000 O.co2     3 ASP3        0.0000 
     45 OD1        14.7500   10.7300   -7.2000 O.co2     3 ASP3        0.0000 
     46 OD1        11.9000    9.4900   -5.9400 O.co2     3 ASP3        0.0000 
     47 OD1        15.2300    8.2700   -4.9800 O.co2     3 ASP3        0.0000 
     48 OD1        15.2000    9.7100   -5.4000 O.co2     3 ASP3        0.0000 
     49 OD1        13.7900    8.3700   -4.5600 O.co2     3 ASP3        0.0000 
     50 OD1        13.7600    9.8100   -4.9800 O.co2     3 ASP3        0.0000 
     51 OD1        12.3500    8.4700   -4.1400 O.co2     3 ASP3        0.0000 
     52 OD1        12.3300    9.9000   -4.5700 O.co2     3 ASP3        0.0000 
     53 OD1        17.0900    8.5800   -4.0200 O.co2     3 ASP3        0.0000 
     54 OD1        15.6600    8.6800   -3.6000 O.co2     3 ASP3        0.0000 
     55 OD1        14.2400    7.3400   -2.7600 O.co2     3 ASP3        0.0000 
     56 OD1        14.2200    8.7800   -3.1800 O.co2     3 ASP3        0.0000 
     57 OD1        12.7800    8.8800   -2.7600 O.co2     3 ASP3        0.0000 
     58 OD1        17.5200    9.0000   -2.6400 O.co2     3 ASP3        0.0000 
     59 OD1        10.3300    9.4900   -0.5500 O.co2     3 ASP3        0.0000 
     60 CZ         16.7900    8.2700  -10.3700 C.ar      4 PHE5        0.0000 
     61 CZ         15.3500    8.3700   -9.9500 C.ar      4 PHE5        0.0000 
     62 CZ         15.2500   14.1200  -11.6500 C.ar      4 PHE5        0.0000 
     63 CZ         13.8900    9.9100   -9.9600 C.ar      4 PHE5        0.0000 
     64 CZ         13.8400   12.7800  -10.8000 C.ar      4 PHE5        0.0000 
     65 CZ         12.4300   11.4400   -9.9600 C.ar      4 PHE5        0.0000 
     66 CZ         12.4000   12.8800  -10.3900 C.ar      4 PHE5        0.0000 
     67 CZ         10.9700   12.9800   -9.9700 C.ar      4 PHE5        0.0000 
     68 CZ         17.2000   10.1200   -9.4100 C.ar      4 PHE5        0.0000 
     69 CZ         17.1700   11.5600   -9.8400 C.ar      4 PHE5        0.0000 
     70 CZ         17.1400   13.0000  -10.2600 C.ar      4 PHE5        0.0000 
     71 CZ         15.7600   10.2200   -9.0000 C.ar      4 PHE5        0.0000 
     72 CZ         15.7300   11.6600   -9.4200 C.ar      4 PHE5        0.0000 
     73 CZ         15.7100   13.1000   -9.8500 C.ar      4 PHE5        0.0000 
     74 CZ         15.6800   14.5400  -10.2700 C.ar      4 PHE5        0.0000 
     75 CZ         14.3000   11.7600   -9.0000 C.ar      4 PHE5        0.0000 
     76 CZ         14.2700   13.2000   -9.4300 C.ar      4 PHE5        0.0000 
     77 CZ         18.1000    8.0700   -5.8100 C.ar      4 PHE5        0.0000 
     78 CA          9.5300   13.0800   -9.5500 C.3       5 GLY6        0.0000 
     79 CA          5.2400   11.9300   -7.8700 C.3       5 GLY6        0.0000 
     80 CA          8.5500   12.1500   -7.3300 C.3       5 GLY6        0.0000 
     81 CA          7.1300   10.8100   -6.4900 C.3       5 GLY6        0.0000 
     82 CA          7.1100   12.2500   -6.9200 C.3       5 GLY6        0.0000 
     83 CA         17.6700    7.6600   -7.1900 C.3       5 GLY6        0.0000 
     84 CA         14.7200   12.1700   -7.6300 C.3       5 GLY6        0.0000 
     85 CA         14.7000   13.6100   -8.0500 C.3       5 GLY6        0.0000 
     86 CA          7.5900    9.7800   -4.6900 C.3       5 GLY6        0.0000 
     87 CA         18.0500   10.9500   -6.6600 C.3       5 GLY6        0.0000 
     88 CA         16.6900    6.7300   -4.9700 C.3       5 GLY6        0.0000 
     89 CA         16.6600    8.1700   -5.3900 C.3       5 GLY6        0.0000 
     90 CA         16.6400    9.6100   -5.8200 C.3       5 GLY6        0.0000 
     91 CA         16.6100   11.0500   -6.2400 C.3       5 GLY6        0.0000 
     92 CA         16.5900   12.4900   -6.6700 C.3       5 GLY6        0.0000 
     93 CA         15.1800   11.1500   -5.8300 C.3       5 GLY6        0.0000 
     94 CA         15.1500   12.5800   -6.2500 C.3       5 GLY6        0.0000 
     95 CA         15.1300   14.0200   -6.6700 C.3       5 GLY6        0.0000 
     96 CA         13.7400   11.2400   -5.4100 C.3       5 GLY6        0.0000 
     97 CA         12.3800    7.0300   -3.7200 C.3       5 GLY6        0.0000 
     98 CA         12.3000   11.3400   -4.9900 C.3       5 GLY6        0.0000 
     99 CA          8.0400    8.7600   -2.8900 C.3       5 GLY6        0.0000 
    100 CA         17.0700   10.0200   -4.4400 C.3       5 GLY6        0.0000 
    101 CA         15.6300   10.1200   -4.0200 C.3       5 GLY6        0.0000 
    102 CA         14.1900   10.2200   -3.6100 C.3       5 GLY6        0.0000 
    103 CA         14.1700   11.6600   -4.0300 C.3       5 GLY6        0.0000 
    104 CA         12.7600   10.3200   -3.1900 C.3       5 GLY6        0.0000 
    105 CA          8.4700    9.1700   -1.5100 C.3       5 GLY6        0.0000 
    106 DU         10.9900   11.5400   -9.5400 H         6 CUB7        0.0000 
    107 DU         17.2200    8.6800   -8.9900 H         6 CUB7        0.0000 
    108 DU         17.6500    9.1000   -7.6100 H         6 CUB7        0.0000 
    109 DU         17.6200   10.5400   -8.0400 H         6 CUB7        0.0000 
    110 DU         17.6000   11.9800   -8.4600 H         6 CUB7        0.0000 
    111 DU         16.1900   10.6300   -7.6200 H         6 CUB7        0.0000 
    112 DU         16.1600   12.0700   -8.0400 H         6 CUB7        0.0000 
    113 DU         16.1400   13.5100   -8.4700 H         6 CUB7        0.0000 
    114 DU         18.0800    9.5100   -6.2400 H         6 CUB7        0.0000 
@<TRIPOS>BOND
@<TRIPOS>SUBSTRUCTURE
     1 SER1        1 GROUP   
     2 ALA2       11 GROUP   
     3 ASP3       37 GROUP   
     4 PHE5       60 GROUP   
     5 GLY6       78 GROUP   
     6 CUB7      106 GROUP   
@<TRIPOS>SET

