#    Name: 6czp_2_FMN_CAVITY_N1_4
#    Modification time : Fri May 22 19:28:14 2020

@<TRIPOS>MOLECULE
6czp_2_FMN_CAVITY_N1_4
   83     0     7     0     0
SMALL
NO_CHARGES


@<TRIPOS>ATOM
      1 OG         21.8700   22.0900   36.2000 O.3       1 SER1        0.0000 
      2 OG         22.3200   21.0700   38.0000 O.3       1 SER1        0.0000 
      3 OG         20.8900   21.1600   38.4200 O.3       1 SER1        0.0000 
      4 OG         20.8600   22.6000   37.9900 O.3       1 SER1        0.0000 
      5 OG         20.8400   24.0400   37.5700 O.3       1 SER1        0.0000 
      6 OG         21.3200   21.5800   39.7900 O.3       1 SER1        0.0000 
      7 OG         21.2900   23.0200   39.3700 O.3       1 SER1        0.0000 
      8 OG         21.7200   23.4300   40.7400 O.3       1 SER1        0.0000 
      9 N          20.4300   22.1900   36.6100 N.am      2 ALA2        0.0000 
     10 N          20.4100   23.6300   36.1900 N.am      2 ALA2        0.0000 
     11 O          19.0200   20.8500   37.4600 O.2       2 ALA2        0.0000 
     12 N          19.0000   22.2900   37.0300 N.am      2 ALA2        0.0000 
     13 O          19.4500   21.2600   38.8300 O.2       2 ALA2        0.0000 
     14 N          19.4200   22.7000   38.4100 N.am      2 ALA2        0.0000 
     15 N          19.8500   23.1100   39.7900 N.am      2 ALA2        0.0000 
     16 O          18.3700   26.0900   39.3500 O.2       2 ALA2        0.0000 
     17 O          18.3400   27.5300   38.9300 O.2       2 ALA2        0.0000 
     18 N          16.9000   27.6300   39.3500 N.am      2 ALA2        0.0000 
     19 N          20.3100   22.0900   41.5900 N.am      2 ALA2        0.0000 
     20 N          20.2800   23.5300   41.1600 N.am      2 ALA2        0.0000 
     21 N          18.8400   23.6300   41.5800 N.am      2 ALA2        0.0000 
     22 N          18.8200   25.0600   41.1600 N.am      2 ALA2        0.0000 
     23 N          20.7300   22.5000   42.9600 N.am      2 ALA2        0.0000 
     24 N          19.3000   22.6000   43.3800 N.am      2 ALA2        0.0000 
     25 O          17.8600   22.7000   43.8000 O.2       2 ALA2        0.0000 
     26 O          19.7500   21.5800   45.1800 O.2       2 ALA2        0.0000 
     27 O          18.3100   21.6700   45.6000 O.2       2 ALA2        0.0000 
     28 OD1        21.4400   21.6800   34.8200 O.co2     3 ASP3        0.0000 
     29 OD1        21.9500   17.7800   37.4700 O.co2     3 ASP3        0.0000 
     30 OD1        20.9400   18.2900   39.2600 O.co2     3 ASP3        0.0000 
     31 OD1        20.9100   19.7300   38.8400 O.co2     3 ASP3        0.0000 
     32 OD1        21.3900   17.2600   41.0700 O.co2     3 ASP3        0.0000 
     33 OD1        19.9500   17.3600   41.4800 O.co2     3 ASP3        0.0000 
     34 OD1        19.9300   18.8000   41.0600 O.co2     3 ASP3        0.0000 
     35 OD1        19.9000   20.2400   40.6300 O.co2     3 ASP3        0.0000 
     36 OD1        21.8400   16.2400   42.8700 O.co2     3 ASP3        0.0000 
     37 OD1        21.7400   21.9900   41.1700 O.co2     3 ASP3        0.0000 
     38 OD1        20.3800   17.7700   42.8600 O.co2     3 ASP3        0.0000 
     39 OD1        20.3600   19.2100   42.4400 O.co2     3 ASP3        0.0000 
     40 OD1        20.3300   20.6500   42.0100 O.co2     3 ASP3        0.0000 
     41 OD1        22.2500   18.0900   43.8200 O.co2     3 ASP3        0.0000 
     42 OD1        20.7600   21.0600   43.3900 O.co2     3 ASP3        0.0000 
     43 OD1        22.7000   17.0600   45.6200 O.co2     3 ASP3        0.0000 
     44 NZ         17.3300   28.0400   40.7300 N.4       4 LYS4        0.0000 
     45 CZ         20.4100   16.3400   43.2800 C.ar      5 PHE5        0.0000 
     46 CZ         18.9700   16.4300   43.7000 C.ar      5 PHE5        0.0000 
     47 CZ         18.9400   17.8700   43.2800 C.ar      5 PHE5        0.0000 
     48 CZ         18.9200   19.3100   42.8500 C.ar      5 PHE5        0.0000 
     49 CZ         17.5100   17.9700   43.6900 C.ar      5 PHE5        0.0000 
     50 CZ         17.4800   19.4100   43.2700 C.ar      5 PHE5        0.0000 
     51 CZ         22.2700   16.6500   44.2400 C.ar      5 PHE5        0.0000 
     52 CZ         20.8100   18.1900   44.2400 C.ar      5 PHE5        0.0000 
     53 CZ         20.7900   19.6300   43.8100 C.ar      5 PHE5        0.0000 
     54 CZ         19.3500   19.7200   44.2300 C.ar      5 PHE5        0.0000 
     55 CZ         19.3200   21.1600   43.8100 C.ar      5 PHE5        0.0000 
     56 CZ         17.9100   19.8200   44.6500 C.ar      5 PHE5        0.0000 
     57 CZ         17.8900   21.2600   44.2200 C.ar      5 PHE5        0.0000 
     58 CA         20.0800   17.4600   36.5100 C.3       6 GLY6        0.0000 
     59 CA         20.0300   20.3400   35.6600 C.3       6 GLY6        0.0000 
     60 CA         20.0100   21.7800   35.2400 C.3       6 GLY6        0.0000 
     61 CA         18.6400   17.5600   36.9300 C.3       6 GLY6        0.0000 
     62 CA         18.6200   19.0000   36.5000 C.3       6 GLY6        0.0000 
     63 CA         20.5100   17.8700   37.8900 C.3       6 GLY6        0.0000 
     64 CA         19.0700   17.9700   38.3000 C.3       6 GLY6        0.0000 
     65 CA         19.0500   19.4100   37.8800 C.3       6 GLY6        0.0000 
     66 CA         17.6300   18.0700   38.7200 C.3       6 GLY6        0.0000 
     67 CA         18.0600   18.4800   40.1000 C.3       6 GLY6        0.0000 
     68 CA         19.8300   24.5500   39.3600 C.3       6 GLY6        0.0000 
     69 CA         18.3900   24.6500   39.7800 C.3       6 GLY6        0.0000 
     70 CA         18.7900   26.5000   40.7300 C.3       6 GLY6        0.0000 
     71 CA         18.7700   27.9400   40.3100 C.3       6 GLY6        0.0000 
     72 CA         18.7400   29.3800   39.8800 C.3       6 GLY6        0.0000 
     73 CA         17.3600   26.6000   41.1500 C.3       6 GLY6        0.0000 
     74 CA         17.3100   29.4800   40.3000 C.3       6 GLY6        0.0000 
     75 CA         22.1700   22.4100   42.5500 C.3       6 GLY6        0.0000 
     76 CA         19.7300   23.0100   44.7600 C.3       6 GLY6        0.0000 
     77 DU         20.4800   19.3100   37.4600 H         7 CUB7        0.0000 
     78 DU         20.4600   20.7500   37.0400 H         7 CUB7        0.0000 
     79 DU         19.5000   18.3900   39.6800 H         7 CUB7        0.0000 
     80 DU         19.4800   19.8200   39.2600 H         7 CUB7        0.0000 
     81 DU         19.8800   21.6800   40.2100 H         7 CUB7        0.0000 
     82 DU         18.5200   17.4600   41.9000 H         7 CUB7        0.0000 
     83 DU         18.4900   18.9000   41.4800 H         7 CUB7        0.0000 
@<TRIPOS>BOND
@<TRIPOS>SUBSTRUCTURE
     1 SER1        1 GROUP   
     2 ALA2        9 GROUP   
     3 ASP3       28 GROUP   
     4 LYS4       44 GROUP   
     5 PHE5       45 GROUP   
     6 GLY6       58 GROUP   
     7 CUB7       77 GROUP   
@<TRIPOS>SET

