#    Name: 6czp_5_FMN
#    Modification time : Fri May 22 19:28:43 2020

@<TRIPOS>MOLECULE
6czp_5_FMN
   31    33     1     0     1
SMALL
NO_CHARGES


@<TRIPOS>ATOM
      1 N1        -17.8250   17.0540    0.3590 N.2       1 FMN301      0.0000 
      2 C2        -18.5040   18.0300    1.0080 C.2       1 FMN301      0.0000 
      3 O2        -19.6600   17.7730    1.4040 O.2       1 FMN301      0.0000 
      4 N3        -17.9950   19.2600    1.2390 N.am      1 FMN301      0.0000 
      5 C4        -16.7760   19.6090    0.8280 C.2       1 FMN301      0.0000 
      6 O4        -16.3550   20.7640    1.0420 O.2       1 FMN301      0.0000 
      7 C4A       -15.9670   18.5920    0.1000 C.2       1 FMN301      0.0000 
      8 N5        -14.7160   18.8480   -0.3550 N.2       1 FMN301      0.0000 
      9 C5A       -13.9900   17.9050   -0.9970 C.ar      1 FMN301      0.0000 
     10 C6        -12.7120   18.2180   -1.4160 C.ar      1 FMN301      0.0000 
     11 C7        -11.9320   17.2760   -2.0720 C.ar      1 FMN301      0.0000 
     12 C7M       -10.5380   17.6270   -2.5260 C.3       1 FMN301      0.0000 
     13 C8        -12.4870   15.9250   -2.3260 C.ar      1 FMN301      0.0000 
     14 C8M       -11.6600   14.8900   -3.0340 C.3       1 FMN301      0.0000 
     15 C9        -13.7700   15.6050   -1.9090 C.ar      1 FMN301      0.0000 
     16 C9A       -14.5560   16.5430   -1.2470 C.ar      1 FMN301      0.0000 
     17 N10       -15.8730   16.2540   -0.7950 N.pl3     1 FMN301      0.0000 
     18 C10       -16.5840   17.2650   -0.1110 C.2       1 FMN301      0.0000 
     19 C1'       -16.5030   14.9440   -0.9900 C.3       1 FMN301      0.0000 
     20 C2'       -16.8500   14.7050   -2.4750 C.3       1 FMN301      0.0000 
     21 O2'       -18.1470   15.2070   -2.8390 O.3       1 FMN301      0.0000 
     22 C3'       -16.7880   13.2040   -2.7310 C.3       1 FMN301      0.0000 
     23 O3'       -15.4300   12.8180   -2.5490 O.3       1 FMN301      0.0000 
     24 C4'       -17.2290   12.7690   -4.1200 C.3       1 FMN301      0.0000 
     25 O4'       -18.5930   13.1570   -4.3780 O.3       1 FMN301      0.0000 
     26 C5'       -17.0510   11.2570   -4.2750 C.3       1 FMN301      0.0000 
     27 O5'       -17.8920   10.5640   -3.3520 O.3       1 FMN301      0.0000 
     28 P         -17.2990    9.6360   -2.1690 P.3       1 FMN301      0.0000 
     29 O1P       -18.5640    9.3220   -1.3900 O.co2     1 FMN301      0.0000 
     30 O2P       -16.2840   10.4940   -1.4480 O.co2     1 FMN301      0.0000 
     31 O3P       -16.6680    8.4480   -2.8600 O.co2     1 FMN301      0.0000 
@<TRIPOS>BOND
     1    1    2 1    
     2    1   18 2    
     3    2    3 2    
     4    2    4 am   
     5    4    5 am   
     6    5    6 2    
     7    5    7 1    
     8    7    8 2    
     9    7   18 1    
    10    8    9 1    
    11    9   10 ar   
    12    9   16 ar   
    13   10   11 ar   
    14   11   12 1    
    15   11   13 ar   
    16   13   14 1    
    17   13   15 ar   
    18   15   16 ar   
    19   16   17 1    
    20   17   18 1    
    21   17   19 1    
    22   19   20 1    
    23   20   21 1    
    24   20   22 1    
    25   22   23 1    
    26   22   24 1    
    27   24   25 1    
    28   24   26 1    
    29   26   27 1    
    30   27   28 1    
    31   28   29 ar   
    32   28   30 ar   
    33   28   31 ar   
@<TRIPOS>SUBSTRUCTURE
     1 FMN301      1 GROUP   
@<TRIPOS>SET
ATOM$ORANGE STATIC     ATOMS   COLORGROUP SYSTEM 
34 2 2 5 5 7 7 9 9 10 10 11 11 12 12 13 13 14 \
14 15 15 16 16 18 18 19 19 20 20 22 22 24 24 26 26 

