#    Name: 6czp_1_FMN
#    Modification time : Fri May 22 19:28:02 2020

@<TRIPOS>MOLECULE
6czp_1_FMN
   31    33     1     0     1
SMALL
NO_CHARGES


@<TRIPOS>ATOM
      1 N1         13.2170   50.0540   31.4040 N.2       1 FMN301      0.0000 
      2 C2         12.3180   50.6890   30.6200 C.2       1 FMN301      0.0000 
      3 O2         12.6280   51.8100   30.1770 O.2       1 FMN301      0.0000 
      4 N3         11.1100   50.1640   30.3140 N.am      1 FMN301      0.0000 
      5 C4         10.7080   48.9700   30.7740 C.2       1 FMN301      0.0000 
      6 O4          9.5900   48.5230   30.4680 O.2       1 FMN301      0.0000 
      7 C4A        11.6300   48.2060   31.6440 C.2       1 FMN301      0.0000 
      8 N5         11.3150   46.9860   32.1470 N.2       1 FMN301      0.0000 
      9 C5A        12.2060   46.3180   32.9320 C.ar      1 FMN301      0.0000 
     10 C6         11.8870   45.0650   33.4370 C.ar      1 FMN301      0.0000 
     11 C7         12.7900   44.3660   34.2330 C.ar      1 FMN301      0.0000 
     12 C7M        12.4320   43.0060   34.7650 C.3       1 FMN301      0.0000 
     13 C8         14.1030   44.9710   34.5530 C.ar      1 FMN301      0.0000 
     14 C8M        15.1180   44.2580   35.3970 C.3       1 FMN301      0.0000 
     15 C9         14.4240   46.2120   34.0580 C.ar      1 FMN301      0.0000 
     16 C9A        13.5330   46.9150   33.2610 C.ar      1 FMN301      0.0000 
     17 N10        13.8700   48.1920   32.7520 N.pl3     1 FMN301      0.0000 
     18 C10        12.9370   48.8480   31.9350 C.2       1 FMN301      0.0000 
     19 C1'        15.1570   48.8280   33.0430 C.3       1 FMN301      0.0000 
     20 C2'        15.2180   49.2120   34.5390 C.3       1 FMN301      0.0000 
     21 O2'        14.5230   50.4460   34.8350 O.3       1 FMN301      0.0000 
     22 C3'        16.6890   49.2560   34.9410 C.3       1 FMN301      0.0000 
     23 O3'        17.1790   47.9170   34.8940 O.3       1 FMN301      0.0000 
     24 C4'        16.9890   49.8350   36.3260 C.3       1 FMN301      0.0000 
     25 O4'        16.6240   51.2190   36.3680 O.3       1 FMN301      0.0000 
     26 C5'        18.4730   49.7140   36.6620 C.3       1 FMN301      0.0000 
     27 O5'        19.2430   50.5110   35.7590 O.3       1 FMN301      0.0000 
     28 P          20.2100   49.8580   34.6260 P.3       1 FMN301      0.0000 
     29 O1P        20.5390   51.0410   33.7390 O.co2     1 FMN301      0.0000 
     30 O2P        19.3870   48.7810   33.9330 O.co2     1 FMN301      0.0000 
     31 O3P        21.3900   49.3200   35.4010 O.co2     1 FMN301      0.0000 
@<TRIPOS>BOND
     1    1    2 1    
     2    1   18 2    
     3    2    3 2    
     4    2    4 am   
     5    4    5 am   
     6    5    6 2    
     7    5    7 1    
     8    7    8 2    
     9    7   18 1    
    10    8    9 1    
    11    9   10 ar   
    12    9   16 ar   
    13   10   11 ar   
    14   11   12 1    
    15   11   13 ar   
    16   13   14 1    
    17   13   15 ar   
    18   15   16 ar   
    19   16   17 1    
    20   17   18 1    
    21   17   19 1    
    22   19   20 1    
    23   20   21 1    
    24   20   22 1    
    25   22   23 1    
    26   22   24 1    
    27   24   25 1    
    28   24   26 1    
    29   26   27 1    
    30   27   28 1    
    31   28   29 ar   
    32   28   30 ar   
    33   28   31 ar   
@<TRIPOS>SUBSTRUCTURE
     1 FMN301      1 GROUP   
@<TRIPOS>SET
ATOM$ORANGE STATIC     ATOMS   COLORGROUP SYSTEM 
34 2 2 5 5 7 7 9 9 10 10 11 11 12 12 13 13 14 \
14 15 15 16 16 18 18 19 19 20 20 22 22 24 24 26 26 

