#    Name: 6czp_3_FMN_CAVITY_N1_4
#    Modification time : Fri May 22 19:28:25 2020

@<TRIPOS>MOLECULE
6czp_3_FMN_CAVITY_N1_4
   79     0     7     0     0
SMALL
NO_CHARGES


@<TRIPOS>ATOM
      1 OG        -24.0200   34.0600   37.0700 O.3       1 SER1        0.0000 
      2 OG        -25.4300   32.7200   37.9100 O.3       1 SER1        0.0000 
      3 OG        -23.5900   34.4700   38.4500 O.3       1 SER1        0.0000 
      4 OG        -23.6200   35.9100   38.0200 O.3       1 SER1        0.0000 
      5 OG        -18.9000   37.4700   37.7200 O.3       1 SER1        0.0000 
      6 OG        -18.4500   36.4400   39.5200 O.3       1 SER1        0.0000 
      7 O         -22.9900   32.1100   35.7000 O.2       2 ALA2        0.0000 
      8 O         -22.5600   32.5200   37.0800 O.2       2 ALA2        0.0000 
      9 O         -22.5800   33.9600   36.6500 O.2       2 ALA2        0.0000 
     10 N         -24.0000   32.6200   37.5000 N.am      2 ALA2        0.0000 
     11 O         -20.8200   40.0300   35.9200 O.2       2 ALA2        0.0000 
     12 N         -22.1500   34.3700   38.0300 N.am      2 ALA2        0.0000 
     13 O         -22.1800   35.8100   37.6100 O.2       2 ALA2        0.0000 
     14 N         -22.2100   37.2500   37.1800 N.am      2 ALA2        0.0000 
     15 N         -22.2300   38.6900   36.7600 N.am      2 ALA2        0.0000 
     16 N         -22.2600   40.1300   36.3300 N.am      2 ALA2        0.0000 
     17 N         -23.5400   31.6000   39.3000 N.am      2 ALA2        0.0000 
     18 N         -23.5700   33.0300   38.8700 N.am      2 ALA2        0.0000 
     19 N         -23.6400   37.3500   37.6000 N.am      2 ALA2        0.0000 
     20 O         -18.9300   38.9100   37.3000 O.2       2 ALA2        0.0000 
     21 N         -20.3400   37.5700   38.1400 N.am      2 ALA2        0.0000 
     22 O         -20.3600   39.0100   37.7200 O.2       2 ALA2        0.0000 
     23 N         -21.7300   34.7900   39.4100 N.am      2 ALA2        0.0000 
     24 N         -21.7500   36.2300   38.9800 N.am      2 ALA2        0.0000 
     25 N         -23.1400   33.4500   40.2500 N.am      2 ALA2        0.0000 
     26 N         -23.1900   36.3200   39.4000 N.am      2 ALA2        0.0000 
     27 N         -19.8900   36.5400   39.9400 N.am      2 ALA2        0.0000 
     28 N         -19.9100   37.9800   39.5200 N.am      2 ALA2        0.0000 
     29 O         -19.4100   34.0800   42.1700 O.2       2 ALA2        0.0000 
     30 O         -19.4300   35.5200   41.7400 O.2       2 ALA2        0.0000 
     31 O         -19.4800   38.3900   40.8900 O.2       2 ALA2        0.0000 
     32 OD1       -23.4900   36.0100   33.0500 O.co2     3 ASP3        0.0000 
     33 OD1       -23.5100   37.4500   32.6300 O.co2     3 ASP3        0.0000 
     34 OD1       -24.9000   34.6700   33.8900 O.co2     3 ASP3        0.0000 
     35 OD1       -24.9800   38.9900   32.6200 O.co2     3 ASP3        0.0000 
     36 OD1       -26.3400   34.7700   34.3100 O.co2     3 ASP3        0.0000 
     37 OD1       -23.0600   36.4200   34.4300 O.co2     3 ASP3        0.0000 
     38 OD1       -23.0900   37.8600   34.0000 O.co2     3 ASP3        0.0000 
     39 OD1       -24.4700   35.0800   35.2700 O.co2     3 ASP3        0.0000 
     40 OD1       -22.6600   38.2800   35.3800 O.co2     3 ASP3        0.0000 
     41 OD1       -22.6800   39.7100   34.9600 O.co2     3 ASP3        0.0000 
     42 OD1       -24.0500   35.5000   36.6500 O.co2     3 ASP3        0.0000 
     43 OD1       -25.4100   31.2800   38.3400 O.co2     3 ASP3        0.0000 
     44 NZ        -17.5700   35.8300   42.7000 N.4       4 LYS4        0.0000 
     45 CZ        -22.1000   38.7900   31.7900 C.ar      5 PHE5        0.0000 
     46 CZ        -23.5400   38.8900   32.2000 C.ar      5 PHE5        0.0000 
     47 CZ        -20.2100   37.6700   33.1700 C.ar      5 PHE5        0.0000 
     48 CZ        -20.2400   39.1100   32.7400 C.ar      5 PHE5        0.0000 
     49 CZ        -21.6500   37.7600   33.5900 C.ar      5 PHE5        0.0000 
     50 CZ        -23.1100   39.3000   33.5800 C.ar      5 PHE5        0.0000 
     51 CZ        -21.2500   39.6200   34.5400 C.ar      5 PHE5        0.0000 
     52 CZ        -19.3600   38.4900   35.9200 C.ar      5 PHE5        0.0000 
     53 CA        -25.3000   32.8200   32.9400 C.3       6 GLY6        0.0000 
     54 CA        -22.0300   34.4700   33.0600 C.3       6 GLY6        0.0000 
     55 CA        -23.4400   33.1300   33.9000 C.3       6 GLY6        0.0000 
     56 CA        -23.4600   34.5700   33.4800 C.3       6 GLY6        0.0000 
     57 CA        -23.0100   33.5500   35.2800 C.3       6 GLY6        0.0000 
     58 CA        -24.4200   32.2100   36.1200 C.3       6 GLY6        0.0000 
     59 CA        -25.8900   33.7400   36.1100 C.3       6 GLY6        0.0000 
     60 CA        -23.9700   31.1800   37.9200 C.3       6 GLY6        0.0000 
     61 CA        -24.9800   31.6900   39.7100 C.3       6 GLY6        0.0000 
     62 CA        -20.3100   36.1300   38.5700 C.3       6 GLY6        0.0000 
     63 CA        -23.1600   34.8900   39.8200 C.3       6 GLY6        0.0000 
     64 CA        -18.4700   37.8800   39.1000 C.3       6 GLY6        0.0000 
     65 CA        -19.8600   35.1000   40.3700 C.3       6 GLY6        0.0000 
     66 CA        -21.2700   33.7600   41.2100 C.3       6 GLY6        0.0000 
     67 CA        -21.3000   35.2000   40.7800 C.3       6 GLY6        0.0000 
     68 CA        -18.0000   35.4200   41.3300 C.3       6 GLY6        0.0000 
     69 CA        -18.0200   36.8600   40.9000 C.3       6 GLY6        0.0000 
     70 CA        -19.4600   36.9600   41.3200 C.3       6 GLY6        0.0000 
     71 CA        -17.5900   37.2700   42.2800 C.3       6 GLY6        0.0000 
     72 CA        -19.0000   35.9300   43.1200 C.3       6 GLY6        0.0000 
     73 CA        -19.0300   37.3700   42.7000 C.3       6 GLY6        0.0000 
     74 DU        -22.0800   37.3500   32.2100 H         7 CUB7        0.0000 
     75 DU        -24.8800   33.2300   34.3200 H         7 CUB7        0.0000 
     76 DU        -23.0400   34.9900   34.8500 H         7 CUB7        0.0000 
     77 DU        -24.4500   33.6500   35.6900 H         7 CUB7        0.0000 
     78 DU        -21.2000   36.7400   35.3900 H         7 CUB7        0.0000 
     79 DU        -20.7900   38.5900   36.3400 H         7 CUB7        0.0000 
@<TRIPOS>BOND
@<TRIPOS>SUBSTRUCTURE
     1 SER1        1 GROUP   
     2 ALA2        7 GROUP   
     3 ASP3       32 GROUP   
     4 LYS4       44 GROUP   
     5 PHE5       45 GROUP   
     6 GLY6       53 GROUP   
     7 CUB7       74 GROUP   
@<TRIPOS>SET

