#    Name: 6czp_4_FMN_CAVITY_N1_4
#    Modification time : Fri May 22 19:28:35 2020

@<TRIPOS>MOLECULE
6czp_4_FMN_CAVITY_N1_4
   69     0     6     0     0
SMALL
NO_CHARGES


@<TRIPOS>ATOM
      1 OG        -13.6600   29.3800   63.0400 O.3       1 SER1        0.0000 
      2 OG        -15.1300   30.9200   63.0300 O.3       1 SER1        0.0000 
      3 OG        -16.5600   31.0200   63.4500 O.3       1 SER1        0.0000 
      4 OG        -14.6700   29.9000   64.8300 O.3       1 SER1        0.0000 
      5 OG        -16.1100   29.9900   65.2500 O.3       1 SER1        0.0000 
      6 OG        -16.1400   31.4300   64.8200 O.3       1 SER1        0.0000 
      7 O          -8.2900   25.7000   60.8400 O.2       2 ALA2        0.0000 
      8 O          -9.7000   24.3600   61.6800 O.2       2 ALA2        0.0000 
      9 O          -9.7300   25.8000   61.2500 O.2       2 ALA2        0.0000 
     10 O          -9.7600   27.2400   60.8300 O.2       2 ALA2        0.0000 
     11 N         -11.1400   24.4600   62.1000 N.am      2 ALA2        0.0000 
     12 N         -11.1700   25.9000   61.6700 N.am      2 ALA2        0.0000 
     13 N         -10.7100   24.8700   63.4700 N.am      2 ALA2        0.0000 
     14 N         -13.6900   30.8200   62.6100 N.am      2 ALA2        0.0000 
     15 N         -15.1500   32.3600   62.6000 N.am      2 ALA2        0.0000 
     16 O         -13.2600   31.2400   63.9900 O.2       2 ALA2        0.0000 
     17 O         -17.5500   30.0900   65.6700 O.2       2 ALA2        0.0000 
     18 O         -15.6800   30.4100   66.6200 O.2       2 ALA2        0.0000 
     19 O         -17.1200   30.5100   67.0400 O.2       2 ALA2        0.0000 
     20 OD1       -12.1500   24.9700   63.8900 O.co2     3 ASP3        0.0000 
     21 OD1       -12.1800   26.4100   63.4700 O.co2     3 ASP3        0.0000 
     22 OD1       -16.5900   32.4600   63.0200 O.co2     3 ASP3        0.0000 
     23 OD1       -18.0000   31.1200   63.8600 O.co2     3 ASP3        0.0000 
     24 OD1       -10.2900   25.2900   64.8500 O.co2     3 ASP3        0.0000 
     25 OD1       -10.3100   26.7200   64.4300 O.co2     3 ASP3        0.0000 
     26 OD1       -11.7700   28.2600   64.4200 O.co2     3 ASP3        0.0000 
     27 OD1       -13.2100   28.3600   64.8400 O.co2     3 ASP3        0.0000 
     28 OD1       -16.1600   32.8700   64.4000 O.co2     3 ASP3        0.0000 
     29 OD1       -17.5700   31.5300   65.2400 O.co2     3 ASP3        0.0000 
     30 OD1       -17.6000   32.9700   64.8200 O.co2     3 ASP3        0.0000 
     31 OD1        -9.8600   25.7000   66.2300 O.co2     3 ASP3        0.0000 
     32 OD1        -9.8800   27.1400   65.8000 O.co2     3 ASP3        0.0000 
     33 OD1       -11.3500   28.6700   65.8000 O.co2     3 ASP3        0.0000 
     34 OD1       -12.7800   28.7700   66.2100 O.co2     3 ASP3        0.0000 
     35 OD1       -14.2200   28.8700   66.6300 O.co2     3 ASP3        0.0000 
     36 OD1       -15.7100   31.8500   66.2000 O.co2     3 ASP3        0.0000 
     37 OD1        -9.4300   26.1100   67.6000 O.co2     3 ASP3        0.0000 
     38 OD1        -9.4500   27.5500   67.1800 O.co2     3 ASP3        0.0000 
     39 OD1       -10.9200   29.0900   67.1700 O.co2     3 ASP3        0.0000 
     40 OD1       -12.3500   29.1900   67.5900 O.co2     3 ASP3        0.0000 
     41 OD1       -13.8200   30.7200   67.5800 O.co2     3 ASP3        0.0000 
     42 OD1       -13.8400   32.1600   67.1600 O.co2     3 ASP3        0.0000 
     43 OD1       -15.2800   32.2600   67.5800 O.co2     3 ASP3        0.0000 
     44 OD1       -13.4100   32.5700   68.5400 O.co2     3 ASP3        0.0000 
     45 CZ         -7.8600   26.1200   62.2100 C.ar      4 PHE5        0.0000 
     46 CZ         -9.2800   24.7700   63.0600 C.ar      4 PHE5        0.0000 
     47 CZ         -8.8700   26.6300   64.0100 C.ar      4 PHE5        0.0000 
     48 CZ         -8.4500   27.0400   65.3800 C.ar      4 PHE5        0.0000 
     49 CZ         -7.9900   26.0200   67.1900 C.ar      4 PHE5        0.0000 
     50 CA        -11.8200   31.1400   63.5700 C.3       5 GLY6        0.0000 
     51 CA        -14.7200   32.7700   63.9800 C.3       5 GLY6        0.0000 
     52 CA         -9.9300   30.0200   64.9500 C.3       5 GLY6        0.0000 
     53 CA        -11.3700   30.1100   65.3700 C.3       5 GLY6        0.0000 
     54 CA        -11.4000   31.5500   64.9500 C.3       5 GLY6        0.0000 
     55 CA        -12.8300   31.6500   65.3600 C.3       5 GLY6        0.0000 
     56 CA        -14.2700   31.7500   65.7800 C.3       5 GLY6        0.0000 
     57 CA        -14.3000   33.1900   65.3600 C.3       5 GLY6        0.0000 
     58 CA         -9.5000   30.4300   66.3300 C.3       5 GLY6        0.0000 
     59 CA        -10.9400   30.5300   66.7500 C.3       5 GLY6        0.0000 
     60 CA        -12.3800   30.6200   67.1700 C.3       5 GLY6        0.0000 
     61 CA        -12.4000   32.0600   66.7400 C.3       5 GLY6        0.0000 
     62 CA        -13.8700   33.6000   66.7300 C.3       5 GLY6        0.0000 
     63 DU         -9.3000   26.2100   62.6300 H         6 CUB7        0.0000 
     64 DU        -10.7400   26.3100   63.0500 H         6 CUB7        0.0000 
     65 DU        -13.2400   29.8000   64.4100 H         6 CUB7        0.0000 
     66 DU        -14.7000   31.3300   64.4100 H         6 CUB7        0.0000 
     67 DU         -9.9100   28.5800   65.3800 H         6 CUB7        0.0000 
     68 DU        -12.8100   30.2100   65.7900 H         6 CUB7        0.0000 
     69 DU        -14.2500   30.3100   66.2100 H         6 CUB7        0.0000 
@<TRIPOS>BOND
@<TRIPOS>SUBSTRUCTURE
     1 SER1        1 GROUP   
     2 ALA2        7 GROUP   
     3 ASP3       20 GROUP   
     4 PHE5       45 GROUP   
     5 GLY6       50 GROUP   
     6 CUB7       63 GROUP   
@<TRIPOS>SET

