#    Name: 6czp_6_FMN
#    Modification time : Fri May 22 19:28:52 2020

@<TRIPOS>MOLECULE
6czp_6_FMN
   31    33     1     0     1
SMALL
NO_CHARGES


@<TRIPOS>ATOM
      1 N1         11.4460    9.4950   -8.2440 N.2       1 FMN301      0.0000 
      2 C2         12.2710    9.4840   -9.3190 C.2       1 FMN301      0.0000 
      3 O2         13.3340    8.8310   -9.2420 O.2       1 FMN301      0.0000 
      4 N3         11.9850   10.1500  -10.4570 N.am      1 FMN301      0.0000 
      5 C4         10.8660   10.8690  -10.6030 C.2       1 FMN301      0.0000 
      6 O4         10.6500   11.4670  -11.6750 O.2       1 FMN301      0.0000 
      7 C4A         9.9070   10.9340   -9.4710 C.2       1 FMN301      0.0000 
      8 N5          8.7480   11.6380   -9.5300 N.2       1 FMN301      0.0000 
      9 C5A         7.8950   11.6700   -8.4730 C.ar      1 FMN301      0.0000 
     10 C6          6.7090   12.3950   -8.5620 C.ar      1 FMN301      0.0000 
     11 C7          5.8170   12.4460   -7.4960 C.ar      1 FMN301      0.0000 
     12 C7M         4.5350   13.2330   -7.5960 C.3       1 FMN301      0.0000 
     13 C8          6.1360   11.7180   -6.2490 C.ar      1 FMN301      0.0000 
     14 C8M         5.1770   11.7550   -5.0910 C.3       1 FMN301      0.0000 
     15 C9          7.3140   10.9900   -6.1480 C.ar      1 FMN301      0.0000 
     16 C9A         8.2160   10.9310   -7.2120 C.ar      1 FMN301      0.0000 
     17 N10         9.4300   10.1920   -7.1290 N.pl3     1 FMN301      0.0000 
     18 C10        10.2810   10.1770   -8.2520 C.2       1 FMN301      0.0000 
     19 C1'         9.8110    9.4360   -5.9260 C.3       1 FMN301      0.0000 
     20 C2'        10.1820   10.3580   -4.7600 C.3       1 FMN301      0.0000 
     21 O2'        11.5710   10.6990   -4.8170 O.3       1 FMN301      0.0000 
     22 C3'         9.8380    9.6440   -3.4560 C.3       1 FMN301      0.0000 
     23 O3'         8.4140    9.5460   -3.3550 O.3       1 FMN301      0.0000 
     24 C4'        10.3670   10.3250   -2.1990 C.3       1 FMN301      0.0000 
     25 O4'        11.7950   10.4180   -2.2800 O.3       1 FMN301      0.0000 
     26 C5'         9.9550    9.5690   -0.9310 C.3       1 FMN301      0.0000 
     27 O5'        10.5270    8.2620   -0.9450 O.3       1 FMN301      0.0000 
     28 P           9.6530    6.9180   -1.1160 P.3       1 FMN301      0.0000 
     29 O1P        10.6960    5.8710   -1.4380 O.co2     1 FMN301      0.0000 
     30 O2P         8.9950    6.7400    0.2330 O.co2     1 FMN301      0.0000 
     31 O3P         8.6770    7.1670   -2.2460 O.co2     1 FMN301      0.0000 
@<TRIPOS>BOND
     1    1    2 1    
     2    1   18 2    
     3    2    3 2    
     4    2    4 am   
     5    4    5 am   
     6    5    6 2    
     7    5    7 1    
     8    7    8 2    
     9    7   18 1    
    10    8    9 1    
    11    9   10 ar   
    12    9   16 ar   
    13   10   11 ar   
    14   11   12 1    
    15   11   13 ar   
    16   13   14 1    
    17   13   15 ar   
    18   15   16 ar   
    19   16   17 1    
    20   17   18 1    
    21   17   19 1    
    22   19   20 1    
    23   20   21 1    
    24   20   22 1    
    25   22   23 1    
    26   22   24 1    
    27   24   25 1    
    28   24   26 1    
    29   26   27 1    
    30   27   28 1    
    31   28   29 ar   
    32   28   30 ar   
    33   28   31 ar   
@<TRIPOS>SUBSTRUCTURE
     1 FMN301      1 GROUP   
@<TRIPOS>SET
ATOM$ORANGE STATIC     ATOMS   COLORGROUP SYSTEM 
34 2 2 5 5 7 7 9 9 10 10 11 11 12 12 13 13 14 \
14 15 15 16 16 18 18 19 19 20 20 22 22 24 24 26 26 

