#    Name: 6czp_1_FMN_CAVITY_N1_4
#    Modification time : Fri May 22 19:28:04 2020

@<TRIPOS>MOLECULE
6czp_1_FMN_CAVITY_N1_4
   74     0     6     0     0
SMALL
NO_CHARGES


@<TRIPOS>ATOM
      1 OG         10.4000   46.3100   34.1300 O.3       1 SER1        0.0000 
      2 OG         10.3700   47.7400   33.7000 O.3       1 SER1        0.0000 
      3 OG         15.0900   49.3000   33.4000 O.3       1 SER1        0.0000 
      4 OG         18.4200   48.0800   34.3700 O.3       1 SER1        0.0000 
      5 OG         16.9800   48.1800   34.7900 O.3       1 SER1        0.0000 
      6 OG         16.9500   49.6200   34.3600 O.3       1 SER1        0.0000 
      7 OG         16.9300   51.0600   33.9400 O.3       1 SER1        0.0000 
      8 OG         18.8200   49.9300   35.3200 O.3       1 SER1        0.0000 
      9 OG         17.3800   50.0300   35.7400 O.3       1 SER1        0.0000 
     10 N          10.9000   49.7000   29.6800 N.am      2 ALA2        0.0000 
     11 O           9.4900   48.3600   30.5200 O.2       2 ALA2        0.0000 
     12 N          12.7700   50.0100   30.6400 N.am      2 ALA2        0.0000 
     13 O          11.4100   45.7900   32.3300 O.2       2 ALA2        0.0000 
     14 N          11.3800   47.2300   31.9100 N.am      2 ALA2        0.0000 
     15 N          11.3600   48.6700   31.4800 N.am      2 ALA2        0.0000 
     16 N          11.3300   50.1100   31.0600 N.am      2 ALA2        0.0000 
     17 O           9.9400   47.3300   32.3300 O.2       2 ALA2        0.0000 
     18 O           9.9200   48.7700   31.9000 O.2       2 ALA2        0.0000 
     19 N          14.6600   48.8900   32.0300 N.am      2 ALA2        0.0000 
     20 N          13.2700   46.1100   33.2900 N.am      2 ALA2        0.0000 
     21 N          13.2500   47.5500   32.8700 N.am      2 ALA2        0.0000 
     22 N          13.2200   48.9900   32.4400 N.am      2 ALA2        0.0000 
     23 N          11.8100   47.6500   33.2900 N.am      2 ALA2        0.0000 
     24 N          15.1100   47.8600   33.8300 N.am      2 ALA2        0.0000 
     25 O          13.7300   45.0800   35.0900 O.2       2 ALA2        0.0000 
     26 N          13.6800   47.9600   34.2400 N.am      2 ALA2        0.0000 
     27 N          15.5200   49.7200   34.7800 N.am      2 ALA2        0.0000 
     28 N          17.4100   48.5900   36.1600 N.am      2 ALA2        0.0000 
     29 O          15.9400   50.1300   36.1600 O.2       2 ALA2        0.0000 
     30 O          14.4800   51.6700   36.1500 O.2       2 ALA2        0.0000 
     31 OD1        12.7400   51.4500   30.2200 O.co2     3 ASP3        0.0000 
     32 OD1        13.2000   50.4300   32.0200 O.co2     3 ASP3        0.0000 
     33 OD1        11.7300   51.9600   32.0100 O.co2     3 ASP3        0.0000 
     34 OD1        11.7100   53.4000   31.5900 O.co2     3 ASP3        0.0000 
     35 OD1        11.6800   54.8400   31.1600 O.co2     3 ASP3        0.0000 
     36 OD1        15.0600   50.7400   32.9800 O.co2     3 ASP3        0.0000 
     37 OD1        13.6300   50.8400   33.4000 O.co2     3 ASP3        0.0000 
     38 OD1        13.5500   55.1500   32.1200 O.co2     3 ASP3        0.0000 
     39 OD1        12.1600   52.3800   33.3900 O.co2     3 ASP3        0.0000 
     40 OD1        12.1400   53.8100   32.9700 O.co2     3 ASP3        0.0000 
     41 OD1        15.4900   51.1500   34.3600 O.co2     3 ASP3        0.0000 
     42 OD1        15.4700   52.5900   33.9300 O.co2     3 ASP3        0.0000 
     43 OD1        15.4400   54.0300   33.5100 O.co2     3 ASP3        0.0000 
     44 OD1        14.0300   52.6900   34.3500 O.co2     3 ASP3        0.0000 
     45 OD1        14.0000   54.1300   33.9200 O.co2     3 ASP3        0.0000 
     46 OD1        15.8700   54.4500   34.8800 O.co2     3 ASP3        0.0000 
     47 CZ         11.3100   51.5500   30.6400 C.ar      4 PHE5        0.0000 
     48 CZ         11.2800   52.9900   30.2100 C.ar      4 PHE5        0.0000 
     49 CZ         11.2600   54.4300   29.7900 C.ar      4 PHE5        0.0000 
     50 CZ          9.8900   50.2100   31.4800 C.ar      4 PHE5        0.0000 
     51 CZ         10.3000   52.0600   32.4300 C.ar      4 PHE5        0.0000 
     52 CZ         10.2700   53.5000   32.0100 C.ar      4 PHE5        0.0000 
     53 CZ          8.8800   50.7200   33.2700 C.ar      4 PHE5        0.0000 
     54 CZ          8.8600   52.1600   32.8500 C.ar      4 PHE5        0.0000 
     55 CA         10.9300   48.2600   30.1100 C.3       5 GLY6        0.0000 
     56 CA         12.8900   42.8200   32.7600 C.3       5 GLY6        0.0000 
     57 CA         12.8700   44.2600   32.3400 C.3       5 GLY6        0.0000 
     58 CA         11.4300   44.3600   32.7600 C.3       5 GLY6        0.0000 
     59 CA         14.7600   43.1300   33.7200 C.3       5 GLY6        0.0000 
     60 CA         13.3200   43.2300   34.1400 C.3       5 GLY6        0.0000 
     61 CA         13.3000   44.6700   33.7200 C.3       5 GLY6        0.0000 
     62 CA         11.8600   44.7700   34.1300 C.3       5 GLY6        0.0000 
     63 CA         11.8300   46.2100   33.7100 C.3       5 GLY6        0.0000 
     64 CA         15.1600   44.9900   34.6800 C.3       5 GLY6        0.0000 
     65 CA         15.1400   46.4300   34.2500 C.3       5 GLY6        0.0000 
     66 CA         13.7000   46.5200   34.6700 C.3       5 GLY6        0.0000 
     67 CA         14.0500   51.2500   34.7700 C.3       5 GLY6        0.0000 
     68 CA         12.5900   52.7900   34.7700 C.3       5 GLY6        0.0000 
     69 CA         18.8400   48.5000   35.7500 C.3       5 GLY6        0.0000 
     70 CA         15.9200   51.5700   35.7300 C.3       5 GLY6        0.0000 
     71 CA         14.4600   53.1000   35.7300 C.3       5 GLY6        0.0000 
     72 CA         13.0200   53.2000   36.1400 C.3       5 GLY6        0.0000 
     73 DU         10.7300   52.4700   33.8100 H         6 CUB7        0.0000 
     74 DU         15.8900   53.0100   35.3100 H         6 CUB7        0.0000 
@<TRIPOS>BOND
@<TRIPOS>SUBSTRUCTURE
     1 SER1        1 GROUP   
     2 ALA2       10 GROUP   
     3 ASP3       31 GROUP   
     4 PHE5       47 GROUP   
     5 GLY6       55 GROUP   
     6 CUB7       73 GROUP   
@<TRIPOS>SET

