#    Name: 6czp_7_FMN
#    Modification time : Fri May 22 19:29:04 2020

@<TRIPOS>MOLECULE
6czp_7_FMN
   31    33     1     0     1
SMALL
NO_CHARGES


@<TRIPOS>ATOM
      1 N1          6.7360   39.2020  -32.8340 N.2       1 FMN301      0.0000 
      2 C2          7.7110   38.3220  -33.1720 C.2       1 FMN301      0.0000 
      3 O2          8.0380   38.2330  -34.3720 O.2       1 FMN301      0.0000 
      4 N3          8.3360   37.5400  -32.2650 N.am      1 FMN301      0.0000 
      5 C4          8.0350   37.5790  -30.9630 C.2       1 FMN301      0.0000 
      6 O4          8.6390   36.8410  -30.1690 O.2       1 FMN301      0.0000 
      7 C4A         6.9790   38.5120  -30.5030 C.2       1 FMN301      0.0000 
      8 N5          6.6060   38.6130  -29.2040 N.2       1 FMN301      0.0000 
      9 C5A         5.6360   39.4870  -28.8220 C.ar      1 FMN301      0.0000 
     10 C6          5.2810   39.5830  -27.4840 C.ar      1 FMN301      0.0000 
     11 C7          4.2930   40.4620  -27.0590 C.ar      1 FMN301      0.0000 
     12 C7M         3.9180   40.5530  -25.6040 C.3       1 FMN301      0.0000 
     13 C8          3.6060   41.3160  -28.0520 C.ar      1 FMN301      0.0000 
     14 C8M         2.5440   42.2810  -27.6130 C.3       1 FMN301      0.0000 
     15 C9          3.9550   41.2340  -29.3880 C.ar      1 FMN301      0.0000 
     16 C9A         4.9490   40.3530  -29.8220 C.ar      1 FMN301      0.0000 
     17 N10         5.3180   40.2460  -31.1880 N.pl3     1 FMN301      0.0000 
     18 C10         6.3330   39.3420  -31.5500 C.2       1 FMN301      0.0000 
     19 C1'         4.6900   41.0670  -32.2180 C.3       1 FMN301      0.0000 
     20 C2'         3.2210   40.7140  -32.4140 C.3       1 FMN301      0.0000 
     21 O2'         3.0790   39.6190  -33.3310 O.3       1 FMN301      0.0000 
     22 C3'         2.5140   41.9830  -32.8980 C.3       1 FMN301      0.0000 
     23 O3'         2.5100   42.9430  -31.8410 O.3       1 FMN301      0.0000 
     24 C4'         1.0860   41.7510  -33.3480 C.3       1 FMN301      0.0000 
     25 O4'         1.1480   40.8260  -34.4380 O.3       1 FMN301      0.0000 
     26 C5'         0.3830   43.0590  -33.7300 C.3       1 FMN301      0.0000 
     27 O5'         1.0780   43.7390  -34.7840 O.3       1 FMN301      0.0000 
     28 P           1.8600   45.1380  -34.5610 P.3       1 FMN301      0.0000 
     29 O1P         2.7510   45.2320  -35.7870 O.co2     1 FMN301      0.0000 
     30 O2P         0.7750   46.1890  -34.4910 O.co2     1 FMN301      0.0000 
     31 O3P         2.6190   44.9630  -33.2600 O.co2     1 FMN301      0.0000 
@<TRIPOS>BOND
     1    1    2 1    
     2    1   18 2    
     3    2    3 2    
     4    2    4 am   
     5    4    5 am   
     6    5    6 2    
     7    5    7 1    
     8    7    8 2    
     9    7   18 1    
    10    8    9 1    
    11    9   10 ar   
    12    9   16 ar   
    13   10   11 ar   
    14   11   12 1    
    15   11   13 ar   
    16   13   14 1    
    17   13   15 ar   
    18   15   16 ar   
    19   16   17 1    
    20   17   18 1    
    21   17   19 1    
    22   19   20 1    
    23   20   21 1    
    24   20   22 1    
    25   22   23 1    
    26   22   24 1    
    27   24   25 1    
    28   24   26 1    
    29   26   27 1    
    30   27   28 1    
    31   28   29 ar   
    32   28   30 ar   
    33   28   31 ar   
@<TRIPOS>SUBSTRUCTURE
     1 FMN301      1 GROUP   
@<TRIPOS>SET
ATOM$ORANGE STATIC     ATOMS   COLORGROUP SYSTEM 
34 2 2 5 5 7 7 9 9 10 10 11 11 12 12 13 13 14 \
14 15 15 16 16 18 18 19 19 20 20 22 22 24 24 26 26 

