#    Name: 6czp_2_FMN
#    Modification time : Fri May 22 19:28:12 2020

@<TRIPOS>MOLECULE
6czp_2_FMN
   31    33     1     0     1
SMALL
NO_CHARGES


@<TRIPOS>ATOM
      1 N1         20.5360   21.5380   42.0840 N.2       1 FMN301      0.0000 
      2 C2         20.4790   20.8100   43.2310 C.2       1 FMN301      0.0000 
      3 O2         21.1460   19.7570   43.3020 O.2       1 FMN301      0.0000 
      4 N3         19.7300   21.1780   44.2950 N.am      1 FMN301      0.0000 
      5 C4         18.9870   22.2870   44.2960 C.2       1 FMN301      0.0000 
      6 O4         18.3150   22.5860   45.3000 O.2       1 FMN301      0.0000 
      7 C4A        18.9900   23.1360   43.0830 C.2       1 FMN301      0.0000 
      8 N5         18.2640   24.2740   43.0060 N.2       1 FMN301      0.0000 
      9 C5A        18.2880   25.0370   41.8870 C.ar      1 FMN301      0.0000 
     10 C6         17.5400   26.2010   41.8420 C.ar      1 FMN301      0.0000 
     11 C7         17.5330   27.0100   40.7190 C.ar      1 FMN301      0.0000 
     12 C7M        16.7140   28.2730   40.6860 C.3       1 FMN301      0.0000 
     13 C8         18.3440   26.6210   39.5440 C.ar      1 FMN301      0.0000 
     14 C8M        18.3590   27.4890   38.3180 C.3       1 FMN301      0.0000 
     15 C9         19.0930   25.4600   39.5760 C.ar      1 FMN301      0.0000 
     16 C9A        19.1050   24.6420   40.7060 C.ar      1 FMN301      0.0000 
     17 N10        19.8690   23.4480   40.7630 N.pl3     1 FMN301      0.0000 
     18 C10        19.8320   22.6850   41.9480 C.2       1 FMN301      0.0000 
     19 C1'        20.7020   23.0100   39.6340 C.3       1 FMN301      0.0000 
     20 C2'        19.8690   22.5920   38.4190 C.3       1 FMN301      0.0000 
     21 O2'        19.5800   21.1920   38.4740 O.3       1 FMN301      0.0000 
     22 C3'        20.6630   22.9500   37.1620 C.3       1 FMN301      0.0000 
     23 O3'        20.6350   24.3710   36.9660 O.3       1 FMN301      0.0000 
     24 C4'        20.1620   22.2810   35.8890 C.3       1 FMN301      0.0000 
     25 O4'        20.1280   20.8640   36.0950 O.3       1 FMN301      0.0000 
     26 C5'        21.0530   22.6310   34.6970 C.3       1 FMN301      0.0000 
     27 O5'        22.3750   22.1120   34.8760 O.3       1 FMN301      0.0000 
     28 P          23.6620   23.0580   35.1590 P.3       1 FMN301      0.0000 
     29 O1P        24.7290   22.0640   35.5680 O.co2     1 FMN301      0.0000 
     30 O2P        23.9100   23.7490   33.8350 O.co2     1 FMN301      0.0000 
     31 O3P        23.2720   24.0160   36.2730 O.co2     1 FMN301      0.0000 
@<TRIPOS>BOND
     1    1    2 1    
     2    1   18 2    
     3    2    3 2    
     4    2    4 am   
     5    4    5 am   
     6    5    6 2    
     7    5    7 1    
     8    7    8 2    
     9    7   18 1    
    10    8    9 1    
    11    9   10 ar   
    12    9   16 ar   
    13   10   11 ar   
    14   11   12 1    
    15   11   13 ar   
    16   13   14 1    
    17   13   15 ar   
    18   15   16 ar   
    19   16   17 1    
    20   17   18 1    
    21   17   19 1    
    22   19   20 1    
    23   20   21 1    
    24   20   22 1    
    25   22   23 1    
    26   22   24 1    
    27   24   25 1    
    28   24   26 1    
    29   26   27 1    
    30   27   28 1    
    31   28   29 ar   
    32   28   30 ar   
    33   28   31 ar   
@<TRIPOS>SUBSTRUCTURE
     1 FMN301      1 GROUP   
@<TRIPOS>SET
ATOM$ORANGE STATIC     ATOMS   COLORGROUP SYSTEM 
34 2 2 5 5 7 7 9 9 10 10 11 11 12 12 13 13 14 \
14 15 15 16 16 18 18 19 19 20 20 22 22 24 24 26 26 

