#    Name: 6czp_8_FMN_CAVITY_N1_6
#    Modification time : Fri May 22 19:29:18 2020

@<TRIPOS>MOLECULE
6czp_8_FMN_CAVITY_N1_6
   86     0     6     0     0
SMALL
NO_CHARGES


@<TRIPOS>ATOM
      1 OG         -1.9200   53.4300   -9.9400 O.3       1 SER1        0.0000 
      2 OG         -3.3600   53.5300   -9.5200 O.3       1 SER1        0.0000 
      3 OG         -4.7200   49.3100   -7.8300 O.3       1 SER1        0.0000 
      4 OG         -2.9300   53.9400   -8.1400 O.3       1 SER1        0.0000 
      5 N          -3.1300   47.8700  -12.8000 N.am      2 ALA2        0.0000 
      6 O          -2.7300   49.7200  -11.8400 O.2       2 ALA2        0.0000 
      7 N          -4.1600   49.8200  -11.4300 N.am      2 ALA2        0.0000 
      8 O          -5.5800   48.4800  -10.5800 O.2       2 ALA2        0.0000 
      9 N          -2.3200   51.5800  -10.8900 N.am      2 ALA2        0.0000 
     10 N          -3.7600   51.6700  -10.4700 N.am      2 ALA2        0.0000 
     11 O          -5.1500   48.9000   -9.2100 O.2       2 ALA2        0.0000 
     12 N          -5.1700   50.3300   -9.6300 N.am      2 ALA2        0.0000 
     13 N          -6.6100   50.4300   -9.2100 N.am      2 ALA2        0.0000 
     14 N          -1.8900   51.9900   -9.5100 N.am      2 ALA2        0.0000 
     15 N          -3.3300   52.0900   -9.1000 N.am      2 ALA2        0.0000 
     16 N          -4.7400   50.7500   -8.2600 N.am      2 ALA2        0.0000 
     17 N          -4.7700   52.1900   -8.6800 N.am      2 ALA2        0.0000 
     18 N          -4.7900   53.6200   -9.1000 N.am      2 ALA2        0.0000 
     19 O          -6.1600   49.4100   -7.4100 O.2       2 ALA2        0.0000 
     20 N          -6.1800   50.8500   -7.8400 N.am      2 ALA2        0.0000 
     21 N          -6.2100   52.2800   -8.2600 N.am      2 ALA2        0.0000 
     22 O          -7.6200   50.9400   -7.4200 O.2       2 ALA2        0.0000 
     23 N          -7.6400   52.3800   -7.8400 N.am      2 ALA2        0.0000 
     24 N          -1.4700   52.4000   -8.1400 N.am      2 ALA2        0.0000 
     25 O          -2.9000   52.5000   -7.7200 O.2       2 ALA2        0.0000 
     26 O          -4.3200   51.1600   -6.8800 O.2       2 ALA2        0.0000 
     27 O          -1.0400   52.8200   -6.7600 O.2       2 ALA2        0.0000 
     28 OD1        -4.3400   52.6000   -7.3000 O.co2     3 ASP3        0.0000 
     29 OD1        -4.3700   54.0400   -7.7300 O.co2     3 ASP3        0.0000 
     30 OD1        -5.7800   52.7000   -6.8800 O.co2     3 ASP3        0.0000 
     31 OD1        -7.2200   52.8000   -6.4700 O.co2     3 ASP3        0.0000 
     32 OD1        -3.9100   53.0100   -5.9300 O.co2     3 ASP3        0.0000 
     33 OD1        -5.3500   53.1100   -5.5100 O.co2     3 ASP3        0.0000 
     34 OD1        -6.7900   53.2100   -5.0900 O.co2     3 ASP3        0.0000 
     35 OD1        -3.4900   53.4300   -4.5500 O.co2     3 ASP3        0.0000 
     36 OD1        -4.9200   53.5200   -4.1300 O.co2     3 ASP3        0.0000 
     37 OD1        -6.3600   53.6200   -3.7100 O.co2     3 ASP3        0.0000 
     38 OD1        -7.8200   55.1600   -3.7200 O.co2     3 ASP3        0.0000 
     39 OD1        -4.4900   53.9400   -2.7500 O.co2     3 ASP3        0.0000 
     40 OD1        -5.9600   55.4700   -2.7600 O.co2     3 ASP3        0.0000 
     41 CZ         -3.5600   47.4600  -14.1700 C.ar      4 PHE5        0.0000 
     42 CZ         -5.7300   49.8200   -6.0400 C.ar      4 PHE5        0.0000 
     43 CZ         -7.1700   49.9200   -5.6200 C.ar      4 PHE5        0.0000 
     44 CZ         -7.1900   51.3600   -6.0400 C.ar      4 PHE5        0.0000 
     45 CZ         -5.3000   50.2300   -4.6600 C.ar      4 PHE5        0.0000 
     46 CZ         -6.7400   50.3300   -4.2400 C.ar      4 PHE5        0.0000 
     47 CZ         -6.7600   51.7700   -4.6700 C.ar      4 PHE5        0.0000 
     48 CZ         -4.8700   50.6500   -3.2800 C.ar      4 PHE5        0.0000 
     49 CZ         -6.3100   50.7500   -2.8700 C.ar      4 PHE5        0.0000 
     50 CZ         -6.3300   52.1800   -3.2900 C.ar      4 PHE5        0.0000 
     51 CZ         -7.7200   49.4000   -2.0200 C.ar      4 PHE5        0.0000 
     52 CZ         -5.9100   52.6000   -1.9100 C.ar      4 PHE5        0.0000 
     53 CZ         -7.3200   51.2600   -1.0700 C.ar      4 PHE5        0.0000 
     54 CZ         -7.3400   52.7000   -1.4900 C.ar      4 PHE5        0.0000 
     55 CZ         -7.3700   54.1300   -1.9200 C.ar      4 PHE5        0.0000 
     56 CA         -3.5800   48.9000  -14.6000 C.3       5 GLY6        0.0000 
     57 CA         -1.7200   49.2100  -13.6400 C.3       5 GLY6        0.0000 
     58 CA         -3.1500   49.3100  -13.2200 C.3       5 GLY6        0.0000 
     59 CA         -4.5700   47.9700  -12.3800 C.3       5 GLY6        0.0000 
     60 CA         -4.5900   49.4100  -12.8000 C.3       5 GLY6        0.0000 
     61 CA         -2.7000   48.2900  -11.4200 C.3       5 GLY6        0.0000 
     62 CA         -4.1400   48.3800  -11.0000 C.3       5 GLY6        0.0000 
     63 CA         -2.3500   53.0100  -11.3200 C.3       5 GLY6        0.0000 
     64 CA         -3.7100   48.8000   -9.6300 C.3       5 GLY6        0.0000 
     65 CA         -3.7400   50.2400  -10.0500 C.3       5 GLY6        0.0000 
     66 CA         -3.7900   53.1100  -10.9000 C.3       5 GLY6        0.0000 
     67 CA         -3.3100   50.6500   -8.6700 C.3       5 GLY6        0.0000 
     68 CA         -6.2300   53.7200   -8.6900 C.3       5 GLY6        0.0000 
     69 CA         -4.2900   49.7200   -6.4500 C.3       5 GLY6        0.0000 
     70 CA         -2.4800   52.9100   -6.3400 C.3       5 GLY6        0.0000 
     71 CA         -3.8900   51.5700   -5.5000 C.3       5 GLY6        0.0000 
     72 CA         -3.4600   51.9900   -4.1200 C.3       5 GLY6        0.0000 
     73 CA         -3.0100   50.9600   -2.3200 C.3       5 GLY6        0.0000 
     74 CA         -3.0300   52.4000   -2.7500 C.3       5 GLY6        0.0000 
     75 CA         -4.4400   51.0600   -1.9100 C.3       5 GLY6        0.0000 
     76 CA         -4.0700   54.3500   -1.3800 C.3       5 GLY6        0.0000 
     77 DU         -5.7500   51.2600   -6.4600 H         6 CUB7        0.0000 
     78 DU         -5.3300   51.6700   -5.0800 H         6 CUB7        0.0000 
     79 DU         -4.9000   52.0900   -3.7100 H         6 CUB7        0.0000 
     80 DU         -4.4700   52.5000   -2.3300 H         6 CUB7        0.0000 
     81 DU         -5.8800   51.1600   -1.4900 H         6 CUB7        0.0000 
     82 DU         -5.9300   54.0400   -2.3400 H         6 CUB7        0.0000 
     83 DU         -5.4800   53.0100   -0.5400 H         6 CUB7        0.0000 
     84 DU         -5.5000   54.4500   -0.9600 H         6 CUB7        0.0000 
     85 DU         -6.9400   54.5500   -0.5400 H         6 CUB7        0.0000 
     86 DU         -6.9700   55.9900   -0.9700 H         6 CUB7        0.0000 
@<TRIPOS>BOND
@<TRIPOS>SUBSTRUCTURE
     1 SER1        1 GROUP   
     2 ALA2        5 GROUP   
     3 ASP3       28 GROUP   
     4 PHE5       41 GROUP   
     5 GLY6       56 GROUP   
     6 CUB7       77 GROUP   
@<TRIPOS>SET

