#    Name: 6czp_5_FMN_CAVITY_N1_12
#    Modification time : Fri May 22 19:28:44 2020

@<TRIPOS>MOLECULE
6czp_5_FMN_CAVITY_N1_12
   93     0     6     0     0
SMALL
NO_CHARGES


@<TRIPOS>ATOM
      1 OG        -16.3400   14.8400   -2.0300 O.3       1 SER1        0.0000 
      2 OG        -17.7800   14.9400   -1.6200 O.3       1 SER1        0.0000 
      3 OG        -17.3500   15.3500   -0.2400 O.3       1 SER1        0.0000 
      4 N         -23.0500   20.1600   -4.8100 N.am      2 ALA2        0.0000 
      5 N         -24.0300   19.2300   -2.6000 N.am      2 ALA2        0.0000 
      6 N         -24.0600   20.6700   -3.0200 N.am      2 ALA2        0.0000 
      7 N         -25.4700   19.3300   -2.1800 N.am      2 ALA2        0.0000 
      8 N         -13.4700   14.6400   -2.8700 N.am      2 ALA2        0.0000 
      9 N         -14.9100   14.7400   -2.4500 N.am      2 ALA2        0.0000 
     10 N         -14.9300   16.1800   -2.8800 N.am      2 ALA2        0.0000 
     11 N         -10.1900   16.3000   -2.7500 N.am      2 ALA2        0.0000 
     12 O         -11.6300   16.4000   -2.3300 O.2       2 ALA2        0.0000 
     13 N         -14.5000   16.5900   -1.5000 N.am      2 ALA2        0.0000 
     14 N         -15.9100   15.2500   -0.6600 N.am      2 ALA2        0.0000 
     15 N         -15.9400   16.6900   -1.0800 N.am      2 ALA2        0.0000 
     16 O         -12.6600   18.3500   -0.9600 O.2       2 ALA2        0.0000 
     17 N         -14.1000   18.4500   -0.5500 N.am      2 ALA2        0.0000 
     18 N         -15.5400   18.5400   -0.1300 N.am      2 ALA2        0.0000 
     19 O         -15.5600   19.9800   -0.5500 O.2       2 ALA2        0.0000 
     20 N         -16.9500   17.2000    0.7100 N.am      2 ALA2        0.0000 
     21 N         -16.9700   18.6400    0.2900 N.am      2 ALA2        0.0000 
     22 N         -18.4100   18.7400    0.7100 N.am      2 ALA2        0.0000 
     23 N         -16.5200   17.6200    2.0900 N.am      2 ALA2        0.0000 
     24 N         -16.5500   19.0600    1.6700 N.am      2 ALA2        0.0000 
     25 OD1       -20.7100   18.0100   -1.6300 O.co2     3 ASP3        0.0000 
     26 OD1       -22.1400   18.1100   -1.2100 O.co2     3 ASP3        0.0000 
     27 OD1       -23.5500   16.7700   -0.3700 O.co2     3 ASP3        0.0000 
     28 OD1       -17.3800   16.7900   -0.6600 O.co2     3 ASP3        0.0000 
     29 OD1       -18.8100   16.8900   -0.2500 O.co2     3 ASP3        0.0000 
     30 OD1       -18.8400   18.3300   -0.6700 O.co2     3 ASP3        0.0000 
     31 OD1       -20.2800   18.4300   -0.2500 O.co2     3 ASP3        0.0000 
     32 OD1       -21.7100   18.5200    0.1600 O.co2     3 ASP3        0.0000 
     33 OD1       -23.1500   18.6200    0.5800 O.co2     3 ASP3        0.0000 
     34 OD1       -18.3900   17.3000    1.1300 O.co2     3 ASP3        0.0000 
     35 OD1       -19.8500   18.8400    1.1200 O.co2     3 ASP3        0.0000 
     36 OD1       -21.2900   18.9400    1.5400 O.co2     3 ASP3        0.0000 
     37 OD1       -17.9600   17.7200    2.5100 O.co2     3 ASP3        0.0000 
     38 CZ        -19.3200   20.7900   -2.9000 C.ar      4 PHE5        0.0000 
     39 CZ        -20.7600   20.8900   -2.4800 C.ar      4 PHE5        0.0000 
     40 CZ        -20.7800   22.3300   -2.9000 C.ar      4 PHE5        0.0000 
     41 CZ        -17.4500   21.1100   -1.9400 C.ar      4 PHE5        0.0000 
     42 CZ        -18.8600   19.7700   -1.0900 C.ar      4 PHE5        0.0000 
     43 CZ        -18.8900   21.2000   -1.5200 C.ar      4 PHE5        0.0000 
     44 CZ        -20.3000   19.8600   -0.6800 C.ar      4 PHE5        0.0000 
     45 CZ        -20.3300   21.3000   -1.1000 C.ar      4 PHE5        0.0000 
     46 CZ        -20.3500   22.7400   -1.5300 C.ar      4 PHE5        0.0000 
     47 CZ        -21.7400   19.9600   -0.2600 C.ar      4 PHE5        0.0000 
     48 CZ        -21.7600   21.4000   -0.6800 C.ar      4 PHE5        0.0000 
     49 CZ        -21.7900   22.8400   -1.1100 C.ar      4 PHE5        0.0000 
     50 CZ        -21.8100   24.2800   -1.5300 C.ar      4 PHE5        0.0000 
     51 CZ        -23.1800   20.0600    0.1600 C.ar      4 PHE5        0.0000 
     52 CZ        -23.2000   21.5000   -0.2700 C.ar      4 PHE5        0.0000 
     53 CZ        -23.2300   22.9400   -0.6900 C.ar      4 PHE5        0.0000 
     54 CZ        -23.2500   24.3800   -1.1100 C.ar      4 PHE5        0.0000 
     55 CZ        -18.4400   20.1800    0.2800 C.ar      4 PHE5        0.0000 
     56 CZ        -18.4600   21.6200   -0.1400 C.ar      4 PHE5        0.0000 
     57 CA        -21.5900   18.6200   -4.8100 C.3       5 GLY6        0.0000 
     58 CA        -23.0200   18.7200   -4.3900 C.3       5 GLY6        0.0000 
     59 CA        -24.4600   18.8200   -3.9700 C.3       5 GLY6        0.0000 
     60 CA        -21.1300   17.6000   -3.0100 C.3       5 GLY6        0.0000 
     61 CA        -21.1600   19.0400   -3.4300 C.3       5 GLY6        0.0000 
     62 CA        -21.1800   20.4800   -3.8600 C.3       5 GLY6        0.0000 
     63 CA        -22.5500   16.2600   -2.1600 C.3       5 GLY6        0.0000 
     64 CA        -22.5700   17.7000   -2.5900 C.3       5 GLY6        0.0000 
     65 CA        -22.6000   19.1300   -3.0100 C.3       5 GLY6        0.0000 
     66 CA        -22.6200   20.5700   -3.4400 C.3       5 GLY6        0.0000 
     67 CA        -24.0100   17.7900   -2.1700 C.3       5 GLY6        0.0000 
     68 CA        -22.1900   20.9900   -2.0600 C.3       5 GLY6        0.0000 
     69 CA        -22.2200   22.4300   -2.4800 C.3       5 GLY6        0.0000 
     70 CA        -22.2400   23.8600   -2.9100 C.3       5 GLY6        0.0000 
     71 CA        -23.6600   22.5200   -2.0700 C.3       5 GLY6        0.0000 
     72 CA        -23.6800   23.9600   -2.4900 C.3       5 GLY6        0.0000 
     73 CA        -11.6000   14.9600   -1.9100 C.3       5 GLY6        0.0000 
     74 CA        -11.6500   17.8400   -2.7600 C.3       5 GLY6        0.0000 
     75 CA        -13.0600   16.5000   -1.9200 C.3       5 GLY6        0.0000 
     76 CA        -13.0900   17.9400   -2.3400 C.3       5 GLY6        0.0000 
     77 CA        -14.4800   15.1600   -1.0800 C.3       5 GLY6        0.0000 
     78 CA        -14.5300   18.0300   -1.9200 C.3       5 GLY6        0.0000 
     79 CA         -9.7600   16.7100   -1.3800 C.3       5 GLY6        0.0000 
     80 CA        -11.2000   16.8100   -0.9600 C.3       5 GLY6        0.0000 
     81 CA        -11.2200   18.2500   -1.3800 C.3       5 GLY6        0.0000 
     82 CA        -12.6400   16.9100   -0.5400 C.3       5 GLY6        0.0000 
     83 CA        -16.9200   15.7700    1.1400 C.3       5 GLY6        0.0000 
     84 DU        -26.8800   17.9900   -1.3400 H         6 CUB7        0.0000 
     85 DU        -20.7300   19.4500   -2.0500 H         6 CUB7        0.0000 
     86 DU        -22.1700   19.5500   -1.6400 H         6 CUB7        0.0000 
     87 DU        -23.5800   18.2100   -0.7900 H         6 CUB7        0.0000 
     88 DU        -23.6000   19.6500   -1.2200 H         6 CUB7        0.0000 
     89 DU        -23.6300   21.0800   -1.6400 H         6 CUB7        0.0000 
     90 DU        -25.0400   19.7400   -0.8000 H         6 CUB7        0.0000 
     91 DU        -24.5900   18.7200    1.0000 H         6 CUB7        0.0000 
     92 DU        -24.6100   20.1600    0.5800 H         6 CUB7        0.0000 
     93 DU        -17.0000   20.0800   -0.1400 H         6 CUB7        0.0000 
@<TRIPOS>BOND
@<TRIPOS>SUBSTRUCTURE
     1 SER1        1 GROUP   
     2 ALA2        4 GROUP   
     3 ASP3       25 GROUP   
     4 PHE5       38 GROUP   
     5 GLY6       57 GROUP   
     6 CUB7       84 GROUP   
@<TRIPOS>SET

