#    Name: 6czp_3_FMN
#    Modification time : Fri May 22 19:28:23 2020

@<TRIPOS>MOLECULE
6czp_3_FMN
   31    33     1     0     1
SMALL
NO_CHARGES


@<TRIPOS>ATOM
      1 N1        -23.2140   37.9140   36.7070 N.2       1 FMN301      0.0000 
      2 C2        -23.1180   38.9710   35.8660 C.2       1 FMN301      0.0000 
      3 O2        -24.0240   39.1470   35.0230 O.2       1 FMN301      0.0000 
      4 N3        -22.0880   39.8370   35.9000 N.am      1 FMN301      0.0000 
      5 C4        -21.0750   39.7160   36.7620 C.2       1 FMN301      0.0000 
      6 O4        -20.1500   40.5460   36.7350 O.2       1 FMN301      0.0000 
      7 C4A       -21.0970   38.5810   37.7210 C.2       1 FMN301      0.0000 
      8 N5        -20.1180   38.3710   38.6310 N.2       1 FMN301      0.0000 
      9 C5A       -20.1910   37.3270   39.4970 C.ar      1 FMN301      0.0000 
     10 C6        -19.1850   37.1480   40.4300 C.ar      1 FMN301      0.0000 
     11 C7        -19.2190   36.0890   41.3280 C.ar      1 FMN301      0.0000 
     12 C7M       -18.1190   35.8900   42.3400 C.3       1 FMN301      0.0000 
     13 C8        -20.3430   35.1390   41.2850 C.ar      1 FMN301      0.0000 
     14 C8M       -20.3930   34.0000   42.2630 C.3       1 FMN301      0.0000 
     15 C9        -21.3600   35.3050   40.3610 C.ar      1 FMN301      0.0000 
     16 C9A       -21.3380   36.3690   39.4590 C.ar      1 FMN301      0.0000 
     17 N10       -22.3670   36.5630   38.5010 N.pl3     1 FMN301      0.0000 
     18 C10       -22.2650   37.6680   37.6340 C.2       1 FMN301      0.0000 
     19 C1'       -23.5280   35.6700   38.4030 C.3       1 FMN301      0.0000 
     20 C2'       -23.1320   34.3240   37.7810 C.3       1 FMN301      0.0000 
     21 O2'       -23.2100   34.3870   36.3470 O.3       1 FMN301      0.0000 
     22 C3'       -24.0530   33.2410   38.3430 C.3       1 FMN301      0.0000 
     23 O3'       -23.7760   33.0560   39.7390 O.3       1 FMN301      0.0000 
     24 C4'       -23.9220   31.8870   37.6600 C.3       1 FMN301      0.0000 
     25 O4'       -24.1090   32.0530   36.2460 O.3       1 FMN301      0.0000 
     26 C5'       -24.9210   30.8830   38.2630 C.3       1 FMN301      0.0000 
     27 O5'       -26.2780   31.2890   38.0430 O.3       1 FMN301      0.0000 
     28 P         -27.2510   31.8300   39.2270 P.3       1 FMN301      0.0000 
     29 O1P       -28.3270   32.5570   38.4500 O.co2     1 FMN301      0.0000 
     30 O2P       -26.4150   32.7350   40.1100 O.co2     1 FMN301      0.0000 
     31 O3P       -27.7180   30.5820   39.9480 O.co2     1 FMN301      0.0000 
@<TRIPOS>BOND
     1    1    2 1    
     2    1   18 2    
     3    2    3 2    
     4    2    4 am   
     5    4    5 am   
     6    5    6 2    
     7    5    7 1    
     8    7    8 2    
     9    7   18 1    
    10    8    9 1    
    11    9   10 ar   
    12    9   16 ar   
    13   10   11 ar   
    14   11   12 1    
    15   11   13 ar   
    16   13   14 1    
    17   13   15 ar   
    18   15   16 ar   
    19   16   17 1    
    20   17   18 1    
    21   17   19 1    
    22   19   20 1    
    23   20   21 1    
    24   20   22 1    
    25   22   23 1    
    26   22   24 1    
    27   24   25 1    
    28   24   26 1    
    29   26   27 1    
    30   27   28 1    
    31   28   29 ar   
    32   28   30 ar   
    33   28   31 ar   
@<TRIPOS>SUBSTRUCTURE
     1 FMN301      1 GROUP   
@<TRIPOS>SET
ATOM$ORANGE STATIC     ATOMS   COLORGROUP SYSTEM 
34 2 2 5 5 7 7 9 9 10 10 11 11 12 12 13 13 14 \
14 15 15 16 16 18 18 19 19 20 20 22 22 24 24 26 26 

