#    Name: 6czp_7_FMN_CAVITY_N1_4
#    Modification time : Fri May 22 19:29:06 2020

@<TRIPOS>MOLECULE
6czp_7_FMN_CAVITY_N1_4
   96     0     7     0     0
SMALL
NO_CHARGES


@<TRIPOS>ATOM
      1 OG          2.3500   42.7400  -35.8400 O.3       1 SER1        0.0000 
      2 OG          2.8000   41.7100  -34.0400 O.3       1 SER1        0.0000 
      3 OG          1.3400   43.2500  -34.0400 O.3       1 SER1        0.0000 
      4 OG          4.6900   40.5900  -32.6500 O.3       1 SER1        0.0000 
      5 OG          3.2300   42.1300  -32.6600 O.3       1 SER1        0.0000 
      6 OG          5.2000   36.6900  -30.0000 O.3       1 SER1        0.0000 
      7 OG          3.6600   42.5400  -31.2800 O.3       1 SER1        0.0000 
      8 OG          4.1600   38.6400  -28.6300 O.3       1 SER1        0.0000 
      9 O           3.3600   42.2300  -37.6300 O.2       2 ALA2        0.0000 
     10 O           2.3200   44.1800  -36.2600 O.2       2 ALA2        0.0000 
     11 O           2.8300   40.2700  -33.6100 O.2       2 ALA2        0.0000 
     12 O           1.3900   40.3700  -33.1900 O.2       2 ALA2        0.0000 
     13 N           1.3700   41.8100  -33.6200 N.am      2 ALA2        0.0000 
     14 O           4.7400   37.7100  -31.8000 O.2       2 ALA2        0.0000 
     15 O           4.7200   39.1500  -32.2300 O.2       2 ALA2        0.0000 
     16 O           3.2800   39.2500  -31.8100 O.2       2 ALA2        0.0000 
     17 N           3.2600   40.6900  -32.2400 N.am      2 ALA2        0.0000 
     18 N           1.7900   42.2200  -32.2400 N.am      2 ALA2        0.0000 
     19 O           8.0700   36.4900  -30.8400 O.2       2 ALA2        0.0000 
     20 N           6.6100   38.0300  -30.8500 N.am      2 ALA2        0.0000 
     21 N           6.5800   39.4700  -31.2700 N.am      2 ALA2        0.0000 
     22 O           5.1700   38.1300  -30.4300 O.2       2 ALA2        0.0000 
     23 N           5.1500   39.5600  -30.8500 N.am      2 ALA2        0.0000 
     24 N           5.1200   41.0000  -31.2800 N.am      2 ALA2        0.0000 
     25 N           3.6800   41.1000  -30.8600 N.am      2 ALA2        0.0000 
     26 N           2.2200   42.6400  -30.8600 N.am      2 ALA2        0.0000 
     27 O           7.0600   37.0000  -29.0400 O.2       2 ALA2        0.0000 
     28 O           7.0400   38.4400  -29.4700 O.2       2 ALA2        0.0000 
     29 O           5.6000   38.5400  -29.0500 O.2       2 ALA2        0.0000 
     30 O           2.6500   43.0500  -29.4900 O.2       2 ALA2        0.0000 
     31 O           6.0300   38.9500  -27.6700 O.2       2 ALA2        0.0000 
     32 O           3.1300   40.5900  -27.2600 O.2       2 ALA2        0.0000 
     33 N           3.5600   41.0000  -25.8900 N.am      2 ALA2        0.0000 
     34 OD1         7.7700   36.1800  -37.1900 O.co2     3 ASP3        0.0000 
     35 OD1         6.3300   36.2800  -36.7700 O.co2     3 ASP3        0.0000 
     36 OD1         3.3800   40.7900  -37.2100 O.co2     3 ASP3        0.0000 
     37 OD1         1.9500   40.8900  -36.7900 O.co2     3 ASP3        0.0000 
     38 OD1         1.9200   42.3200  -37.2100 O.co2     3 ASP3        0.0000 
     39 OD1         6.7600   36.6900  -35.3900 O.co2     3 ASP3        0.0000 
     40 OD1         5.3200   36.7900  -34.9800 O.co2     3 ASP3        0.0000 
     41 OD1         3.8600   38.3200  -34.9800 O.co2     3 ASP3        0.0000 
     42 OD1         3.8400   39.7600  -35.4100 O.co2     3 ASP3        0.0000 
     43 OD1         0.8900   44.2700  -35.8400 O.co2     3 ASP3        0.0000 
     44 OD1        -0.5300   42.9300  -35.0000 O.co2     3 ASP3        0.0000 
     45 OD1         7.1900   37.1000  -34.0200 O.co2     3 ASP3        0.0000 
     46 OD1         5.7500   37.2000  -33.6000 O.co2     3 ASP3        0.0000 
     47 OD1         5.7300   38.6400  -34.0200 O.co2     3 ASP3        0.0000 
     48 OD1         4.2900   38.7400  -33.6100 O.co2     3 ASP3        0.0000 
     49 OD1         4.2700   40.1800  -34.0300 O.co2     3 ASP3        0.0000 
     50 OD1         1.3100   44.6900  -34.4700 O.co2     3 ASP3        0.0000 
     51 OD1        -0.1000   43.3500  -33.6300 O.co2     3 ASP3        0.0000 
     52 OD1         7.5900   38.9500  -33.0600 O.co2     3 ASP3        0.0000 
     53 OD1         7.5700   40.3900  -33.4900 O.co2     3 ASP3        0.0000 
     54 OD1         6.1600   39.0500  -32.6500 O.co2     3 ASP3        0.0000 
     55 OD1         6.1300   40.4900  -33.0700 O.co2     3 ASP3        0.0000 
     56 NZ          4.5900   39.0500  -27.2600 N.4       4 LYS4        0.0000 
     57 CZ          8.2000   36.5900  -35.8100 C.ar      5 PHE5        0.0000 
     58 CZ          6.7900   35.2500  -34.9700 C.ar      5 PHE5        0.0000 
     59 CZ          7.2200   35.6600  -33.5900 C.ar      5 PHE5        0.0000 
     60 CZ          5.7800   35.7600  -33.1700 C.ar      5 PHE5        0.0000 
     61 CZ          7.6400   36.0800  -32.2200 C.ar      5 PHE5        0.0000 
     62 CZ          7.6200   37.5200  -32.6400 C.ar      5 PHE5        0.0000 
     63 CZ          6.2100   36.1800  -31.8000 C.ar      5 PHE5        0.0000 
     64 CZ          6.6300   36.5900  -30.4200 C.ar      5 PHE5        0.0000 
     65 CA          9.1800   37.5200  -38.0300 C.3       6 GLY6        0.0000 
     66 CA          3.4300   37.9100  -36.3600 C.3       6 GLY6        0.0000 
     67 CA          3.4100   39.3500  -36.7800 C.3       6 GLY6        0.0000 
     68 CA          2.0200   36.5700  -35.5200 C.3       6 GLY6        0.0000 
     69 CA          2.0000   38.0100  -35.9400 C.3       6 GLY6        0.0000 
     70 CA          1.9700   39.4500  -36.3700 C.3       6 GLY6        0.0000 
     71 CA          0.5300   39.5400  -35.9500 C.3       6 GLY6        0.0000 
     72 CA          0.5100   40.9800  -36.3700 C.3       6 GLY6        0.0000 
     73 CA          3.8900   36.8900  -34.5600 C.3       6 GLY6        0.0000 
     74 CA          3.8100   41.2000  -35.8300 C.3       6 GLY6        0.0000 
     75 CA          3.7900   42.6400  -36.2500 C.3       6 GLY6        0.0000 
     76 CA          2.4200   38.4200  -34.5600 C.3       6 GLY6        0.0000 
     77 CA          0.9600   39.9600  -34.5700 C.3       6 GLY6        0.0000 
     78 CA          0.9400   41.4000  -35.0000 C.3       6 GLY6        0.0000 
     79 CA          4.3200   37.3000  -33.1800 C.3       6 GLY6        0.0000 
     80 CA          2.8500   38.8400  -33.1900 C.3       6 GLY6        0.0000 
     81 CA         -0.0700   41.9100  -33.2000 C.3       6 GLY6        0.0000 
     82 CA          4.7700   36.2700  -31.3800 C.3       6 GLY6        0.0000 
     83 CA          1.7700   43.6600  -32.6700 C.3       6 GLY6        0.0000 
     84 CA          3.7100   39.6600  -30.4300 C.3       6 GLY6        0.0000 
     85 CA          5.6300   37.1000  -28.6300 C.3       6 GLY6        0.0000 
     86 CA          4.1400   40.0800  -29.0600 C.3       6 GLY6        0.0000 
     87 CA          4.1100   41.5100  -29.4800 C.3       6 GLY6        0.0000 
     88 CA          2.6800   41.6100  -29.0600 C.3       6 GLY6        0.0000 
     89 CA          4.5700   40.4900  -27.6800 C.3       6 GLY6        0.0000 
     90 CA          3.1000   42.0300  -27.6900 C.3       6 GLY6        0.0000 
     91 CA          4.9900   40.9000  -26.3000 C.3       6 GLY6        0.0000 
     92 DU          5.3500   35.3500  -34.5500 H         7 CUB7        0.0000 
     93 DU          2.4000   39.8600  -34.9900 H         7 CUB7        0.0000 
     94 DU          2.3700   41.3000  -35.4100 H         7 CUB7        0.0000 
     95 DU          0.9100   42.8400  -35.4200 H         7 CUB7        0.0000 
     96 DU          6.1800   37.6100  -32.2200 H         7 CUB7        0.0000 
@<TRIPOS>BOND
@<TRIPOS>SUBSTRUCTURE
     1 SER1        1 GROUP   
     2 ALA2        9 GROUP   
     3 ASP3       34 GROUP   
     4 LYS4       56 GROUP   
     5 PHE5       57 GROUP   
     6 GLY6       65 GROUP   
     7 CUB7       92 GROUP   
@<TRIPOS>SET

