#    Name: 6czp_4_FMN
#    Modification time : Fri May 22 19:28:33 2020

@<TRIPOS>MOLECULE
6czp_4_FMN
   31    33     1     0     1
SMALL
NO_CHARGES


@<TRIPOS>ATOM
      1 N1        -11.9820   26.3120   63.4500 N.2       1 FMN301      0.0000 
      2 C2        -11.1060   25.3890   63.9230 C.2       1 FMN301      0.0000 
      3 O2        -11.1870   25.0530   65.1200 O.2       1 FMN301      0.0000 
      4 N3        -10.1510   24.8250   63.1520 N.am      1 FMN301      0.0000 
      5 C4        -10.0040   25.1410   61.8570 C.2       1 FMN301      0.0000 
      6 O4         -9.1150   24.6040   61.1750 O.2       1 FMN301      0.0000 
      7 C4A       -10.9180   26.1460   61.2620 C.2       1 FMN301      0.0000 
      8 N5        -10.8340   26.5210   59.9620 N.2       1 FMN301      0.0000 
      9 C5A       -11.6860   27.4380   59.4420 C.ar      1 FMN301      0.0000 
     10 C6        -11.5800   27.7980   58.1050 C.ar      1 FMN301      0.0000 
     11 C7        -12.4400   28.7390   57.5480 C.ar      1 FMN301      0.0000 
     12 C7M       -12.3170   29.1170   56.0980 C.3       1 FMN301      0.0000 
     13 C8        -13.4870   29.3670   58.3950 C.ar      1 FMN301      0.0000 
     14 C8M       -14.4430   30.3800   57.8200 C.3       1 FMN301      0.0000 
     15 C9        -13.5970   29.0070   59.7270 C.ar      1 FMN301      0.0000 
     16 C9A       -12.7380   28.0640   60.2930 C.ar      1 FMN301      0.0000 
     17 N10       -12.8390   27.6840   61.6590 N.pl3     1 FMN301      0.0000 
     18 C10       -11.9430   26.7230   62.1640 C.2       1 FMN301      0.0000 
     19 C1'       -13.8450   28.2790   62.5400 C.3       1 FMN301      0.0000 
     20 C2'       -13.4880   29.7510   62.7870 C.3       1 FMN301      0.0000 
     21 O2'       -12.4960   29.8740   63.8120 O.3       1 FMN301      0.0000 
     22 C3'       -14.7670   30.5060   63.1290 C.3       1 FMN301      0.0000 
     23 O3'       -15.5580   30.5800   61.9380 O.3       1 FMN301      0.0000 
     24 C4'       -14.5570   31.9250   63.6400 C.3       1 FMN301      0.0000 
     25 O4'       -13.7660   31.8770   64.8340 O.3       1 FMN301      0.0000 
     26 C5'       -15.8990   32.6260   63.8860 C.3       1 FMN301      0.0000 
     27 O5'       -16.6800   31.9150   64.8580 O.3       1 FMN301      0.0000 
     28 P         -18.0470   31.1020   64.5270 P.3       1 FMN301      0.0000 
     29 O1P       -18.3530   30.4490   65.8610 O.co2     1 FMN301      0.0000 
     30 O2P       -19.0500   32.1530   64.1130 O.co2     1 FMN301      0.0000 
     31 O3P       -17.7270   30.1110   63.4270 O.co2     1 FMN301      0.0000 
@<TRIPOS>BOND
     1    1    2 1    
     2    1   18 2    
     3    2    3 2    
     4    2    4 am   
     5    4    5 am   
     6    5    6 2    
     7    5    7 1    
     8    7    8 2    
     9    7   18 1    
    10    8    9 1    
    11    9   10 ar   
    12    9   16 ar   
    13   10   11 ar   
    14   11   12 1    
    15   11   13 ar   
    16   13   14 1    
    17   13   15 ar   
    18   15   16 ar   
    19   16   17 1    
    20   17   18 1    
    21   17   19 1    
    22   19   20 1    
    23   20   21 1    
    24   20   22 1    
    25   22   23 1    
    26   22   24 1    
    27   24   25 1    
    28   24   26 1    
    29   26   27 1    
    30   27   28 1    
    31   28   29 ar   
    32   28   30 ar   
    33   28   31 ar   
@<TRIPOS>SUBSTRUCTURE
     1 FMN301      1 GROUP   
@<TRIPOS>SET
ATOM$ORANGE STATIC     ATOMS   COLORGROUP SYSTEM 
34 2 2 5 5 7 7 9 9 10 10 11 11 12 12 13 13 14 \
14 15 15 16 16 18 18 19 19 20 20 22 22 24 24 26 26 

