#    Name: 6hxh_13_COA
#    Modification time : Fri May 22 19:30:04 2020

@<TRIPOS>MOLECULE
6hxh_13_COA
   48    50     1     0     1
SMALL
NO_CHARGES


@<TRIPOS>ATOM
      1 N1A        65.4710  138.8930   82.8960 N.ar      1 COA1204     0.0000 
      2 C2A        66.1540  138.1570   82.0090 C.ar      1 COA1204     0.0000 
      3 N3A        67.4630  138.1770   81.7350 N.ar      1 COA1204     0.0000 
      4 C4A        68.1010  139.0900   82.4940 C.ar      1 COA1204     0.0000 
      5 C5A        67.5270  139.9410   83.4260 C.ar      1 COA1204     0.0000 
      6 C6A        66.1340  139.8200   83.6290 C.ar      1 COA1204     0.0000 
      7 N6A        65.4430  140.5580   84.5010 N.pl3     1 COA1204     0.0000 
      8 N7A        68.4850  140.7620   83.9990 N.2       1 COA1204     0.0000 
      9 C8A        69.6020  140.3840   83.4220 C.2       1 COA1204     0.0000 
     10 N9A        69.4470  139.3750   82.5120 N.pl3     1 COA1204     0.0000 
     11 C1B        70.4970  138.6880   81.7680 C.3       1 COA1204     0.0000 
     12 C2B        71.2110  139.5220   80.7090 C.3       1 COA1204     0.0000 
     13 O2B        70.4970  139.5630   79.4800 O.3       1 COA1204     0.0000 
     14 C3B        72.4890  138.7040   80.5350 C.3       1 COA1204     0.0000 
     15 O3B        72.2380  137.6200   79.6180 O.3       1 COA1204     0.0000 
     16 P3B        73.3560  136.8310   78.8320 P.3       1 COA1204     0.0000 
     17 O7A        74.3500  136.4380   79.7920 O.co2     1 COA1204     0.0000 
     18 O8A        72.6680  135.6110   78.2070 O.co2     1 COA1204     0.0000 
     19 O9A        73.8540  137.8480   77.7940 O.co2     1 COA1204     0.0000 
     20 C4B        72.7260  138.0890   81.9280 C.3       1 COA1204     0.0000 
     21 O4B        71.5050  138.2790   82.6690 O.3       1 COA1204     0.0000 
     22 C5B        73.8680  138.6810   82.7070 C.3       1 COA1204     0.0000 
     23 O5B        73.7770  140.1130   82.5610 O.3       1 COA1204     0.0000 
     24 P1A        75.0900  141.0310   82.2030 P.3       1 COA1204     0.0000 
     25 O1A        75.1000  142.3940   82.8020 O.co2     1 COA1204     0.0000 
     26 O2A        75.5620  141.0300   80.7090 O.co2     1 COA1204     0.0000 
     27 O3A        76.0300  140.0720   83.0430 O.3       1 COA1204     0.0000 
     28 P2A        77.3160  140.4640   83.8730 P.3       1 COA1204     0.0000 
     29 O4A        77.0250  141.6790   84.6910 O.co2     1 COA1204     0.0000 
     30 O5A        77.5820  139.1640   84.7220 O.co2     1 COA1204     0.0000 
     31 O6A        78.3230  140.6250   82.5690 O.3       1 COA1204     0.0000 
     32 CBP        80.6660  141.2900   82.3790 C.3       1 COA1204     0.0000 
     33 CCP        79.2050  141.7520   82.3780 C.3       1 COA1204     0.0000 
     34 CDP        80.9160  140.1560   81.3810 C.3       1 COA1204     0.0000 
     35 CEP        81.5490  142.4820   81.9980 C.3       1 COA1204     0.0000 
     36 CAP        81.0170  140.8100   83.8110 C.3       1 COA1204     0.0000 
     37 OAP        80.4390  139.5580   84.1480 O.3       1 COA1204     0.0000 
     38 C9P        82.4960  140.7580   84.1800 C.2       1 COA1204     0.0000 
     39 O9P        83.0800  141.7790   84.5360 O.2       1 COA1204     0.0000 
     40 N8P        83.0640  139.5540   84.1630 N.am      1 COA1204     0.0000 
     41 C7P        84.4460  139.3300   84.5400 C.3       1 COA1204     0.0000 
     42 C6P        85.2920  139.0740   83.3380 C.3       1 COA1204     0.0000 
     43 C5P        86.7520  139.1620   83.6780 C.2       1 COA1204     0.0000 
     44 O5P        87.2010  138.6310   84.6960 O.2       1 COA1204     0.0000 
     45 N4P        87.5050  139.8390   82.8150 N.am      1 COA1204     0.0000 
     46 C3P        88.9590  139.8550   82.8770 C.3       1 COA1204     0.0000 
     47 C2P        89.5280  141.0250   83.6570 C.3       1 COA1204     0.0000 
     48 S1P        91.2640  140.5570   83.8930 S.3       1 COA1204     0.0000 
@<TRIPOS>BOND
     1    1    2 ar   
     2    1    6 ar   
     3    2    3 ar   
     4    3    4 ar   
     5    4    5 ar   
     6    4   10 1    
     7    5    6 ar   
     8    5    8 1    
     9    6    7 1    
    10    8    9 2    
    11    9   10 1    
    12   10   11 1    
    13   11   12 1    
    14   11   21 1    
    15   12   13 1    
    16   12   14 1    
    17   14   15 1    
    18   14   20 1    
    19   15   16 1    
    20   16   17 ar   
    21   16   18 ar   
    22   16   19 ar   
    23   20   21 1    
    24   20   22 1    
    25   22   23 1    
    26   23   24 1    
    27   24   25 ar   
    28   24   26 ar   
    29   24   27 1    
    30   27   28 1    
    31   28   29 ar   
    32   28   30 ar   
    33   28   31 1    
    34   31   33 1    
    35   32   33 1    
    36   32   34 1    
    37   32   35 1    
    38   32   36 1    
    39   36   37 1    
    40   36   38 1    
    41   38   39 2    
    42   38   40 am   
    43   40   41 1    
    44   41   42 1    
    45   42   43 1    
    46   43   44 2    
    47   43   45 am   
    48   45   46 1    
    49   46   47 1    
    50   47   48 1    
@<TRIPOS>SUBSTRUCTURE
     1 COA1204     1 GROUP   
@<TRIPOS>SET
ATOM$ORANGE STATIC     ATOMS   COLORGROUP SYSTEM 
42 2 2 4 4 5 5 6 6 9 9 11 11 12 12 14 14 20 \
20 22 22 32 32 33 33 34 34 35 35 36 36 38 38 41 41 42 \
42 43 43 46 46 47 47 

