#    Name: 6hxh_9_COA
#    Modification time : Fri May 22 19:28:43 2020

@<TRIPOS>MOLECULE
6hxh_9_COA
   48    50     1     0     1
SMALL
NO_CHARGES


@<TRIPOS>ATOM
      1 N1A        32.9440  155.1950   58.8160 N.ar      1 COA1204     0.0000 
      2 C2A        32.7790  154.3880   57.7610 C.ar      1 COA1204     0.0000 
      3 N3A        31.6750  153.7500   57.3570 N.ar      1 COA1204     0.0000 
      4 C4A        30.6380  154.0250   58.1690 C.ar      1 COA1204     0.0000 
      5 C5A        30.6580  154.8350   59.2910 C.ar      1 COA1204     0.0000 
      6 C6A        31.8870  155.4340   59.6260 C.ar      1 COA1204     0.0000 
      7 N6A        32.0750  156.1590   60.7300 N.pl3     1 COA1204     0.0000 
      8 N7A        29.4140  154.8560   59.9030 N.2       1 COA1204     0.0000 
      9 C8A        28.6850  154.0660   59.1520 C.2       1 COA1204     0.0000 
     10 N9A        29.3560  153.5390   58.0810 N.pl3     1 COA1204     0.0000 
     11 C1B        28.8110  152.7050   57.0200 C.3       1 COA1204     0.0000 
     12 C2B        28.2890  151.3380   57.4600 C.3       1 COA1204     0.0000 
     13 O2B        29.3350  150.3720   57.5680 O.3       1 COA1204     0.0000 
     14 C3B        27.3660  151.0110   56.2850 C.3       1 COA1204     0.0000 
     15 O3B        28.1530  150.4300   55.2250 O.3       1 COA1204     0.0000 
     16 P3B        27.5760  149.5820   54.0310 P.3       1 COA1204     0.0000 
     17 O7A        26.4730  150.3560   53.4820 O.co2     1 COA1204     0.0000 
     18 O8A        28.7420  149.4500   53.0520 O.co2     1 COA1204     0.0000 
     19 O9A        27.1510  148.2450   54.6870 O.co2     1 COA1204     0.0000 
     20 C4B        26.8810  152.3890   55.7880 C.3       1 COA1204     0.0000 
     21 O4B        27.7100  153.3700   56.4340 O.3       1 COA1204     0.0000 
     22 C5B        25.4450  152.7050   56.0870 C.3       1 COA1204     0.0000 
     23 O5B        25.1780  152.2840   57.4480 O.3       1 COA1204     0.0000 
     24 P1A        23.7950  151.4580   57.8510 P.3       1 COA1204     0.0000 
     25 O1A        23.1330  151.7560   59.1400 O.co2     1 COA1204     0.0000 
     26 O2A        23.8800  149.9300   57.6430 O.co2     1 COA1204     0.0000 
     27 O3A        23.0140  152.1770   56.6760 O.3       1 COA1204     0.0000 
     28 P2A        21.4930  152.5780   56.6180 P.3       1 COA1204     0.0000 
     29 O4A        21.1590  153.2810   57.8810 O.co2     1 COA1204     0.0000 
     30 O5A        21.4500  153.4540   55.3290 O.co2     1 COA1204     0.0000 
     31 O6A        20.9190  151.0420   56.4080 O.3       1 COA1204     0.0000 
     32 CBP        18.6840  150.0720   56.2510 C.3       1 COA1204     0.0000 
     33 CCP        19.8590  150.4270   57.1700 C.3       1 COA1204     0.0000 
     34 CDP        19.0760  149.2880   54.9920 C.3       1 COA1204     0.0000 
     35 CEP        17.6940  149.2270   57.0490 C.3       1 COA1204     0.0000 
     36 CAP        18.0410  151.4300   55.8680 C.3       1 COA1204     0.0000 
     37 OAP        18.7910  152.0600   54.8410 O.3       1 COA1204     0.0000 
     38 C9P        16.5750  151.4540   55.4500 C.2       1 COA1204     0.0000 
     39 O9P        15.6860  151.4000   56.2980 O.2       1 COA1204     0.0000 
     40 N8P        16.3350  151.6390   54.1540 N.am      1 COA1204     0.0000 
     41 C7P        14.9950  151.6790   53.5940 C.3       1 COA1204     0.0000 
     42 C6P        14.6650  150.3880   52.9060 C.3       1 COA1204     0.0000 
     43 C5P        13.2100  150.3000   52.5460 C.2       1 COA1204     0.0000 
     44 O5P        12.6150  151.2570   52.0430 O.2       1 COA1204     0.0000 
     45 N4P        12.6390  149.1220   52.7820 N.am      1 COA1204     0.0000 
     46 C3P        11.3180  148.7610   52.2910 C.3       1 COA1204     0.0000 
     47 C2P        10.2150  148.9720   53.3070 C.3       1 COA1204     0.0000 
     48 S1P         8.7500  148.7360   52.2700 S.3       1 COA1204     0.0000 
@<TRIPOS>BOND
     1    1    2 ar   
     2    1    6 ar   
     3    2    3 ar   
     4    3    4 ar   
     5    4    5 ar   
     6    4   10 1    
     7    5    6 ar   
     8    5    8 1    
     9    6    7 1    
    10    8    9 2    
    11    9   10 1    
    12   10   11 1    
    13   11   12 1    
    14   11   21 1    
    15   12   13 1    
    16   12   14 1    
    17   14   15 1    
    18   14   20 1    
    19   15   16 1    
    20   16   17 ar   
    21   16   18 ar   
    22   16   19 ar   
    23   20   21 1    
    24   20   22 1    
    25   22   23 1    
    26   23   24 1    
    27   24   25 ar   
    28   24   26 ar   
    29   24   27 1    
    30   27   28 1    
    31   28   29 ar   
    32   28   30 ar   
    33   28   31 1    
    34   31   33 1    
    35   32   33 1    
    36   32   34 1    
    37   32   35 1    
    38   32   36 1    
    39   36   37 1    
    40   36   38 1    
    41   38   39 2    
    42   38   40 am   
    43   40   41 1    
    44   41   42 1    
    45   42   43 1    
    46   43   44 2    
    47   43   45 am   
    48   45   46 1    
    49   46   47 1    
    50   47   48 1    
@<TRIPOS>SUBSTRUCTURE
     1 COA1204     1 GROUP   
@<TRIPOS>SET
ATOM$ORANGE STATIC     ATOMS   COLORGROUP SYSTEM 
42 2 2 4 4 5 5 6 6 9 9 11 11 12 12 14 14 20 \
20 22 22 32 32 33 33 34 34 35 35 36 36 38 38 41 41 42 \
42 43 43 46 46 47 47 

