#    Name: 6hxh_1_COA
#    Modification time : Fri May 22 19:25:53 2020

@<TRIPOS>MOLECULE
6hxh_1_COA
   48    50     1     0     1
SMALL
NO_CHARGES


@<TRIPOS>ATOM
      1 N1A        37.4500  102.6400    5.2320 N.ar      1 COA1204     0.0000 
      2 C2A        37.8430  103.6120    4.4000 C.ar      1 COA1204     0.0000 
      3 N3A        38.9800  104.3110    4.4110 N.ar      1 COA1204     0.0000 
      4 C4A        39.7730  103.9200    5.4270 C.ar      1 COA1204     0.0000 
      5 C5A        39.5030  102.9300    6.3580 C.ar      1 COA1204     0.0000 
      6 C6A        38.2710  102.2660    6.2420 C.ar      1 COA1204     0.0000 
      7 N6A        37.8650  101.3130    7.0860 N.pl3     1 COA1204     0.0000 
      8 N7A        40.5210  102.8430    7.2930 N.2       1 COA1204     0.0000 
      9 C8A        41.3640  103.7770    6.9210 C.2       1 COA1204     0.0000 
     10 N9A        40.9830  104.4570    5.7940 N.pl3     1 COA1204     0.0000 
     11 C1B        41.7340  105.4770    5.0740 C.3       1 COA1204     0.0000 
     12 C2B        41.9280  106.7920    5.8170 C.3       1 COA1204     0.0000 
     13 O2B        40.8040  107.6460    5.6120 O.3       1 COA1204     0.0000 
     14 C3B        43.1480  107.3500    5.0830 C.3       1 COA1204     0.0000 
     15 O3B        42.6910  108.0260    3.8960 O.3       1 COA1204     0.0000 
     16 P3B        43.5270  109.1190    3.1790 P.3       1 COA1204     0.0000 
     17 O7A        44.8480  108.5380    2.9900 O.co2     1 COA1204     0.0000 
     18 O8A        42.8380  109.3570    1.8190 O.co2     1 COA1204     0.0000 
     19 O9A        43.4970  110.3670    4.1340 O.co2     1 COA1204     0.0000 
     20 C4B        43.9200  106.1050    4.6200 C.3       1 COA1204     0.0000 
     21 O4B        43.0320  104.9870    4.8170 O.3       1 COA1204     0.0000 
     22 C5B        45.2010  105.8490    5.3630 C.3       1 COA1204     0.0000 
     23 O5B        44.9480  106.0160    6.7830 O.3       1 COA1204     0.0000 
     24 P1A        46.0280  106.7810    7.7220 P.3       1 COA1204     0.0000 
     25 O1A        46.1160  106.3120    9.1260 O.co2     1 COA1204     0.0000 
     26 O2A        46.0420  108.3350    7.5660 O.co2     1 COA1204     0.0000 
     27 O3A        47.2500  106.1950    6.8980 O.3       1 COA1204     0.0000 
     28 P2A        48.7200  105.7990    7.3410 P.3       1 COA1204     0.0000 
     29 O4A        48.6700  105.0380    8.6210 O.co2     1 COA1204     0.0000 
     30 O5A        49.2400  104.9390    6.1530 O.co2     1 COA1204     0.0000 
     31 O6A        49.2940  107.3510    7.3410 O.3       1 COA1204     0.0000 
     32 CBP        51.4530  108.3010    7.9710 C.3       1 COA1204     0.0000 
     33 CCP        50.0530  107.8920    8.4410 C.3       1 COA1204     0.0000 
     34 CDP        51.4020  109.2180    6.7460 C.3       1 COA1204     0.0000 
     35 CEP        52.1550  109.0550    9.1030 C.3       1 COA1204     0.0000 
     36 CAP        52.2350  107.0050    7.6260 C.3       1 COA1204     0.0000 
     37 OAP        51.7990  106.4090    6.4160 O.3       1 COA1204     0.0000 
     38 C9P        53.7550  107.0870    7.5650 C.2       1 COA1204     0.0000 
     39 O9P        54.4120  107.0320    8.6020 O.2       1 COA1204     0.0000 
     40 N8P        54.2960  107.1410    6.3410 N.am      1 COA1204     0.0000 
     41 C7P        55.7270  107.2490    6.1000 C.3       1 COA1204     0.0000 
     42 C6P        56.1130  108.6510    5.6980 C.3       1 COA1204     0.0000 
     43 C5P        57.5890  108.8990    5.8730 C.2       1 COA1204     0.0000 
     44 O5P        58.4140  108.0810    5.4650 O.2       1 COA1204     0.0000 
     45 N4P        57.9280  110.0440    6.4730 N.am      1 COA1204     0.0000 
     46 C3P        59.2950  110.5440    6.5290 C.3       1 COA1204     0.0000 
     47 C2P        60.0970  110.0660    7.7250 C.3       1 COA1204     0.0000 
     48 S1P        61.8250  110.5220    7.4070 S.3       1 COA1204     0.0000 
@<TRIPOS>BOND
     1    1    2 ar   
     2    1    6 ar   
     3    2    3 ar   
     4    3    4 ar   
     5    4    5 ar   
     6    4   10 1    
     7    5    6 ar   
     8    5    8 1    
     9    6    7 1    
    10    8    9 2    
    11    9   10 1    
    12   10   11 1    
    13   11   12 1    
    14   11   21 1    
    15   12   13 1    
    16   12   14 1    
    17   14   15 1    
    18   14   20 1    
    19   15   16 1    
    20   16   17 ar   
    21   16   18 ar   
    22   16   19 ar   
    23   20   21 1    
    24   20   22 1    
    25   22   23 1    
    26   23   24 1    
    27   24   25 ar   
    28   24   26 ar   
    29   24   27 1    
    30   27   28 1    
    31   28   29 ar   
    32   28   30 ar   
    33   28   31 1    
    34   31   33 1    
    35   32   33 1    
    36   32   34 1    
    37   32   35 1    
    38   32   36 1    
    39   36   37 1    
    40   36   38 1    
    41   38   39 2    
    42   38   40 am   
    43   40   41 1    
    44   41   42 1    
    45   42   43 1    
    46   43   44 2    
    47   43   45 am   
    48   45   46 1    
    49   46   47 1    
    50   47   48 1    
@<TRIPOS>SUBSTRUCTURE
     1 COA1204     1 GROUP   
@<TRIPOS>SET
ATOM$ORANGE STATIC     ATOMS   COLORGROUP SYSTEM 
42 2 2 4 4 5 5 6 6 9 9 11 11 12 12 14 14 20 \
20 22 22 32 32 33 33 34 34 35 35 36 36 38 38 41 41 42 \
42 43 43 46 46 47 47 

