#    Name: 6hxh_14_ADP
#    Modification time : Fri May 22 19:30:18 2020

@<TRIPOS>MOLECULE
6hxh_14_ADP
   42    44     1     0     1
SMALL
NO_CHARGES


@<TRIPOS>ATOM
      1 PB         96.7600  101.5440   80.8710 P.3       1 ADP1205     0.0000 
      2 O1B        96.6120  102.5680   79.7820 O.co2     1 ADP1205     0.0000 
      3 O2B        96.6770  102.1070   82.2640 O.co2     1 ADP1205     0.0000 
      4 O3B        98.0430  100.7770   80.7590 O.co2     1 ADP1205     0.0000 
      5 PA         94.6630   99.9140   79.6670 P.3       1 ADP1205     0.0000 
      6 O1A        93.2490  100.2790   79.9100 O.co2     1 ADP1205     0.0000 
      7 O2A        95.1510  100.3280   78.2520 O.co2     1 ADP1205     0.0000 
      8 O3A        95.5980  100.4620   80.8360 O.3       1 ADP1205     0.0000 
      9 O5'        94.8210   98.3570   79.8820 O.3       1 ADP1205     0.0000 
     10 C5'        96.0770   97.6560   79.7990 C.3       1 ADP1205     0.0000 
     11 C4'        95.8500   96.4280   78.9590 C.3       1 ADP1205     0.0000 
     12 O4'        94.7080   95.7340   79.4890 O.3       1 ADP1205     0.0000 
     13 C3'        95.5110   96.7020   77.4960 C.3       1 ADP1205     0.0000 
     14 O3'        96.6830   96.7730   76.6870 O.3       1 ADP1205     0.0000 
     15 C2'        94.6020   95.5210   77.1130 C.3       1 ADP1205     0.0000 
     16 O2'        95.2780   94.4750   76.4270 O.3       1 ADP1205     0.0000 
     17 C1'        94.1060   94.9800   78.4610 C.3       1 ADP1205     0.0000 
     18 N9         92.6580   95.0050   78.6360 N.pl3     1 ADP1205     0.0000 
     19 C8         91.9040   95.8090   79.4520 C.2       1 ADP1205     0.0000 
     20 N7         90.6290   95.5060   79.4700 N.2       1 ADP1205     0.0000 
     21 C5         90.5340   94.4310   78.5980 C.ar      1 ADP1205     0.0000 
     22 C6         89.4480   93.6310   78.1880 C.ar      1 ADP1205     0.0000 
     23 N6         88.2110   93.7480   78.6800 N.pl3     1 ADP1205     0.0000 
     24 N1         89.7010   92.6330   77.3100 N.ar      1 ADP1205     0.0000 
     25 C2         90.9570   92.4500   76.8890 C.ar      1 ADP1205     0.0000 
     26 N3         92.0550   93.1460   77.1960 N.ar      1 ADP1205     0.0000 
     27 C4         91.7760   94.1210   78.0680 C.ar      1 ADP1205     0.0000 
     28 HOB2       96.8060  103.0780   82.4290 H         1 ADP1205     0.0000 
     29 HOB3       98.9120  100.9980   81.1850 H         1 ADP1205     0.0000 
     30 HOA2       96.0250  100.7310   78.0100 H         1 ADP1205     0.0000 
     31 H5'1       96.4240   97.4110   80.8020 H         1 ADP1205     0.0000 
     32 H5'2       96.7660   98.3730   79.3540 H         1 ADP1205     0.0000 
     33 H4'        96.6690   95.7220   79.0850 H         1 ADP1205     0.0000 
     34 H3'        94.9890   97.6520   77.3980 H         1 ADP1205     0.0000 
     35 HO3'       96.5040   97.4500   75.9830 H         1 ADP1205     0.0000 
     36 H2'        93.7730   95.8780   76.5050 H         1 ADP1205     0.0000 
     37 HO2'       95.8150   94.9280   75.7260 H         1 ADP1205     0.0000 
     38 H1'        94.4050   93.9440   78.6100 H         1 ADP1205     0.0000 
     39 H8         92.3180   96.6340   80.0300 H         1 ADP1205     0.0000 
     40 HN61       88.0100   94.4010   79.4310 H         1 ADP1205     0.0000 
     41 HN62       87.4480   93.2190   78.2720 H         1 ADP1205     0.0000 
     42 H2         91.1100   91.5790   76.2560 H         1 ADP1205     0.0000 
@<TRIPOS>BOND
     1    1    2 ar   
     2    1    3 ar   
     3    1    4 ar   
     4    1    8 1    
     5    3   28 1    
     6    4   29 1    
     7    5    6 ar   
     8    5    7 ar   
     9    5    8 1    
    10    5    9 1    
    11    7   30 1    
    12    9   10 1    
    13   10   11 1    
    14   10   31 1    
    15   10   32 1    
    16   11   12 1    
    17   11   13 1    
    18   11   33 1    
    19   12   17 1    
    20   13   14 1    
    21   13   15 1    
    22   13   34 1    
    23   14   35 1    
    24   15   16 1    
    25   15   17 1    
    26   15   36 1    
    27   16   37 1    
    28   17   18 1    
    29   17   38 1    
    30   18   19 1    
    31   18   27 1    
    32   19   20 2    
    33   19   39 1    
    34   20   21 1    
    35   21   22 ar   
    36   21   27 ar   
    37   22   23 1    
    38   22   24 ar   
    39   23   40 1    
    40   23   41 1    
    41   24   25 ar   
    42   25   26 ar   
    43   25   42 1    
    44   26   27 ar   
@<TRIPOS>SUBSTRUCTURE
     1 ADP1205     1 GROUP   
@<TRIPOS>SET
ATOM$ORANGE STATIC     ATOMS   COLORGROUP SYSTEM 
20 10 10 11 11 13 13 15 15 17 17 19 19 21 21 22 22 25 \
25 27 27 

