#    Name: 6hxh_6_ADP
#    Modification time : Fri May 22 19:27:32 2020

@<TRIPOS>MOLECULE
6hxh_6_ADP
   42    44     1     0     1
SMALL
NO_CHARGES


@<TRIPOS>ATOM
      1 PB        -29.1490  153.6980    9.9650 P.3       1 ADP1205     0.0000 
      2 O1B       -28.6050  153.1200    8.7360 O.co2     1 ADP1205     0.0000 
      3 O2B       -29.6090  152.5820   10.9020 O.co2     1 ADP1205     0.0000 
      4 O3B       -30.3120  154.6990    9.7180 O.co2     1 ADP1205     0.0000 
      5 PA        -26.7830  155.3760   10.1590 P.3       1 ADP1205     0.0000 
      6 O1A       -25.5370  155.2330   10.9540 O.co2     1 ADP1205     0.0000 
      7 O2A       -26.4910  154.9950    8.6930 O.co2     1 ADP1205     0.0000 
      8 O3A       -27.9870  154.4880   10.7160 O.3       1 ADP1205     0.0000 
      9 O5'       -27.3910  156.8660   10.2670 O.3       1 ADP1205     0.0000 
     10 C5'       -28.4550  157.4040    9.4500 C.3       1 ADP1205     0.0000 
     11 C4'       -27.9910  158.6060    8.6550 C.3       1 ADP1205     0.0000 
     12 O4'       -27.3830  159.5820    9.5300 O.3       1 ADP1205     0.0000 
     13 C3'       -26.9530  158.3440    7.5690 C.3       1 ADP1205     0.0000 
     14 O3'       -27.5740  157.9610    6.3430 O.3       1 ADP1205     0.0000 
     15 C2'       -26.2850  159.7120    7.4170 C.3       1 ADP1205     0.0000 
     16 O2'       -27.0510  160.5020    6.5130 O.3       1 ADP1205     0.0000 
     17 C1'       -26.3600  160.2830    8.8440 C.3       1 ADP1205     0.0000 
     18 N9        -25.1290  160.1920    9.6280 N.pl3     1 ADP1205     0.0000 
     19 C8        -24.7950  159.2380   10.5570 C.2       1 ADP1205     0.0000 
     20 N7        -23.6480  159.4480   11.1560 N.2       1 ADP1205     0.0000 
     21 C5        -23.1950  160.6300   10.5870 C.ar      1 ADP1205     0.0000 
     22 C6        -22.0400  161.4060   10.8100 C.ar      1 ADP1205     0.0000 
     23 N6        -21.0690  161.0600   11.6580 N.pl3     1 ADP1205     0.0000 
     24 N1        -21.9130  162.5590   10.1100 N.ar      1 ADP1205     0.0000 
     25 C2        -22.8720  162.8900    9.2350 C.ar      1 ADP1205     0.0000 
     26 N3        -23.9830  162.2180    8.9140 N.ar      1 ADP1205     0.0000 
     27 C4        -24.0950  161.0970    9.6410 C.ar      1 ADP1205     0.0000 
     28 HOB2      -29.5630  151.6310   10.6180 H         1 ADP1205     0.0000 
     29 HOB3      -31.2870  154.5300    9.7930 H         1 ADP1205     0.0000 
     30 HOA2      -27.1510  154.7640    7.9880 H         1 ADP1205     0.0000 
     31 H5'1      -29.3080  157.6400   10.0860 H         1 ADP1205     0.0000 
     32 H5'2      -28.7410  156.5670    8.8130 H         1 ADP1205     0.0000 
     33 H4'       -28.8580  159.1320    8.2580 H         1 ADP1205     0.0000 
     34 H3'       -26.2580  157.5660    7.8820 H         1 ADP1205     0.0000 
     35 HO3'      -27.6470  156.9710    6.3600 H         1 ADP1205     0.0000 
     36 H2'       -25.2570  159.6200    7.0690 H         1 ADP1205     0.0000 
     37 HO2'      -27.2880  159.9010    5.7580 H         1 ADP1205     0.0000 
     38 H1'       -26.6420  161.3350    8.8370 H         1 ADP1205     0.0000 
     39 H8        -25.4210  158.3810   10.8010 H         1 ADP1205     0.0000 
     40 HN61      -21.1400  160.2070   12.2040 H         1 ADP1205     0.0000 
     41 HN62      -20.2400  161.6390   11.7420 H         1 ADP1205     0.0000 
     42 H2        -22.7380  163.8620    8.7660 H         1 ADP1205     0.0000 
@<TRIPOS>BOND
     1    1    2 ar   
     2    1    3 ar   
     3    1    4 ar   
     4    1    8 1    
     5    3   28 1    
     6    4   29 1    
     7    5    6 ar   
     8    5    7 ar   
     9    5    8 1    
    10    5    9 1    
    11    7   30 1    
    12    9   10 1    
    13   10   11 1    
    14   10   31 1    
    15   10   32 1    
    16   11   12 1    
    17   11   13 1    
    18   11   33 1    
    19   12   17 1    
    20   13   14 1    
    21   13   15 1    
    22   13   34 1    
    23   14   35 1    
    24   15   16 1    
    25   15   17 1    
    26   15   36 1    
    27   16   37 1    
    28   17   18 1    
    29   17   38 1    
    30   18   19 1    
    31   18   27 1    
    32   19   20 2    
    33   19   39 1    
    34   20   21 1    
    35   21   22 ar   
    36   21   27 ar   
    37   22   23 1    
    38   22   24 ar   
    39   23   40 1    
    40   23   41 1    
    41   24   25 ar   
    42   25   26 ar   
    43   25   42 1    
    44   26   27 ar   
@<TRIPOS>SUBSTRUCTURE
     1 ADP1205     1 GROUP   
@<TRIPOS>SET
ATOM$ORANGE STATIC     ATOMS   COLORGROUP SYSTEM 
20 10 10 11 11 13 13 15 15 17 17 19 19 21 21 22 22 25 \
25 27 27 

