#    Name: 6hxh_12_ADP
#    Modification time : Fri May 22 19:29:38 2020

@<TRIPOS>MOLECULE
6hxh_12_ADP
   42    44     1     0     1
SMALL
NO_CHARGES


@<TRIPOS>ATOM
      1 PB         75.4140  237.2900  108.9200 P.3       1 ADP1205     0.0000 
      2 O1B        75.0330  236.3800  110.0490 O.co2     1 ADP1205     0.0000 
      3 O2B        76.0080  236.5450  107.7560 O.co2     1 ADP1205     0.0000 
      4 O3B        76.3510  238.4130  109.3710 O.co2     1 ADP1205     0.0000 
      5 PA         72.7500  238.4540  108.9070 P.3       1 ADP1205     0.0000 
      6 O1A        71.5810  237.8050  108.2670 O.co2     1 ADP1205     0.0000 
      7 O2A        72.7490  238.2620  110.4350 O.co2     1 ADP1205     0.0000 
      8 O3A        74.1240  237.9590  108.2720 O.3       1 ADP1205     0.0000 
      9 O5'        72.8540  239.9930  108.5010 O.3       1 ADP1205     0.0000 
     10 C5'        73.8730  240.8820  108.9940 C.3       1 ADP1205     0.0000 
     11 C4'        73.1980  241.9930  109.7540 C.3       1 ADP1205     0.0000 
     12 O4'        72.4070  242.7740  108.8410 O.3       1 ADP1205     0.0000 
     13 C3'        72.2320  241.5490  110.8450 C.3       1 ADP1205     0.0000 
     14 O3'        72.9360  241.3430  112.0650 O.3       1 ADP1205     0.0000 
     15 C2'        71.2640  242.7290  110.9400 C.3       1 ADP1205     0.0000 
     16 O2'        71.7250  243.6720  111.8970 O.3       1 ADP1205     0.0000 
     17 C1'        71.2730  243.2960  109.5090 C.3       1 ADP1205     0.0000 
     18 N9         70.0860  242.9820  108.7150 N.pl3     1 ADP1205     0.0000 
     19 C8         69.9900  242.0880  107.6780 C.2       1 ADP1205     0.0000 
     20 N7         68.7900  241.9970  107.1580 N.2       1 ADP1205     0.0000 
     21 C5         68.0460  242.9110  107.8900 C.ar      1 ADP1205     0.0000 
     22 C6         66.6990  243.3100  107.8130 C.ar      1 ADP1205     0.0000 
     23 N6         65.8340  242.8200  106.9240 N.pl3     1 ADP1205     0.0000 
     24 N1         66.2760  244.2630  108.6770 N.ar      1 ADP1205     0.0000 
     25 C2         67.1500  244.7740  109.5500 C.ar      1 ADP1205     0.0000 
     26 N3         68.4360  244.4600  109.7300 N.ar      1 ADP1205     0.0000 
     27 C4         68.8300  243.5220  108.8540 C.ar      1 ADP1205     0.0000 
     28 HOB2       75.7940  235.5880  107.6030 H         1 ADP1205     0.0000 
     29 HOB3       77.2950  238.5530  109.0970 H         1 ADP1205     0.0000 
     30 HOA2       73.5300  238.2840  111.0480 H         1 ADP1205     0.0000 
     31 H5'1       74.4740  241.2600  108.1690 H         1 ADP1205     0.0000 
     32 H5'2       74.5050  240.2560  109.6220 H         1 ADP1205     0.0000 
     33 H4'        73.9420  242.6980  110.1200 H         1 ADP1205     0.0000 
     34 H3'        71.7010  240.6360  110.5860 H         1 ADP1205     0.0000 
     35 HO3'       73.3240  240.4300  112.0170 H         1 ADP1205     0.0000 
     36 H2'        70.2710  242.3830  111.2230 H         1 ADP1205     0.0000 
     37 HO2'       71.8990  243.1470  112.7220 H         1 ADP1205     0.0000 
     38 H1'        71.3700  244.3800  109.5080 H         1 ADP1205     0.0000 
     39 H8         70.8310  241.5070  107.3000 H         1 ADP1205     0.0000 
     40 HN61       66.1270  242.1230  106.2470 H         1 ADP1205     0.0000 
     41 HN62       64.8720  243.1420  106.9260 H         1 ADP1205     0.0000 
     42 H2         66.7550  245.5910  110.1490 H         1 ADP1205     0.0000 
@<TRIPOS>BOND
     1    1    2 ar   
     2    1    3 ar   
     3    1    4 ar   
     4    1    8 1    
     5    3   28 1    
     6    4   29 1    
     7    5    6 ar   
     8    5    7 ar   
     9    5    8 1    
    10    5    9 1    
    11    7   30 1    
    12    9   10 1    
    13   10   11 1    
    14   10   31 1    
    15   10   32 1    
    16   11   12 1    
    17   11   13 1    
    18   11   33 1    
    19   12   17 1    
    20   13   14 1    
    21   13   15 1    
    22   13   34 1    
    23   14   35 1    
    24   15   16 1    
    25   15   17 1    
    26   15   36 1    
    27   16   37 1    
    28   17   18 1    
    29   17   38 1    
    30   18   19 1    
    31   18   27 1    
    32   19   20 2    
    33   19   39 1    
    34   20   21 1    
    35   21   22 ar   
    36   21   27 ar   
    37   22   23 1    
    38   22   24 ar   
    39   23   40 1    
    40   23   41 1    
    41   24   25 ar   
    42   25   26 ar   
    43   25   42 1    
    44   26   27 ar   
@<TRIPOS>SUBSTRUCTURE
     1 ADP1205     1 GROUP   
@<TRIPOS>SET
ATOM$ORANGE STATIC     ATOMS   COLORGROUP SYSTEM 
20 10 10 11 11 13 13 15 15 17 17 19 19 21 21 22 22 25 \
25 27 27 

