#    Name: 6hxh_7_COA
#    Modification time : Fri May 22 19:28:02 2020

@<TRIPOS>MOLECULE
6hxh_7_COA
   48    50     1     0     1
SMALL
NO_CHARGES


@<TRIPOS>ATOM
      1 N1A        30.3720   80.7780   57.7190 N.ar      1 COA1204     0.0000 
      2 C2A        30.6610   79.8610   58.6490 C.ar      1 COA1204     0.0000 
      3 N3A        31.8570   79.4140   59.0420 N.ar      1 COA1204     0.0000 
      4 C4A        32.8420   80.0130   58.3590 C.ar      1 COA1204     0.0000 
      5 C5A        32.7000   80.9670   57.3650 C.ar      1 COA1204     0.0000 
      6 C6A        31.3880   81.3660   57.0450 C.ar      1 COA1204     0.0000 
      7 N6A        31.1010   82.3180   56.1480 N.pl3     1 COA1204     0.0000 
      8 N7A        33.9370   81.3550   56.8760 N.2       1 COA1204     0.0000 
      9 C8A        34.7850   80.6410   57.5750 C.2       1 COA1204     0.0000 
     10 N9A        34.1940   79.8130   58.4950 N.pl3     1 COA1204     0.0000 
     11 C1B        34.8510   78.9320   59.4660 C.3       1 COA1204     0.0000 
     12 C2B        35.7040   77.8170   58.8680 C.3       1 COA1204     0.0000 
     13 O2B        34.9340   76.6760   58.5080 O.3       1 COA1204     0.0000 
     14 C3B        36.6080   77.4940   60.0580 C.3       1 COA1204     0.0000 
     15 O3B        35.9250   76.6420   61.0000 O.3       1 COA1204     0.0000 
     16 P3B        36.6540   75.7220   62.0580 P.3       1 COA1204     0.0000 
     17 O7A        37.6020   76.5790   62.7980 O.co2     1 COA1204     0.0000 
     18 O8A        35.5520   75.1770   62.9150 O.co2     1 COA1204     0.0000 
     19 O9A        37.2730   74.6040   61.2110 O.co2     1 COA1204     0.0000 
     20 C4B        36.7710   78.8360   60.7820 C.3       1 COA1204     0.0000 
     21 O4B        35.7260   79.6900   60.2820 O.3       1 COA1204     0.0000 
     22 C5B        38.1080   79.4960   60.5820 C.3       1 COA1204     0.0000 
     23 O5B        38.4890   79.3410   59.1900 O.3       1 COA1204     0.0000 
     24 P1A        40.0060   78.9770   58.7410 P.3       1 COA1204     0.0000 
     25 O1A        40.4990   79.6220   57.4940 O.co2     1 COA1204     0.0000 
     26 O2A        40.3390   77.4460   58.8640 O.co2     1 COA1204     0.0000 
     27 O3A        40.6370   79.7330   59.9860 O.3       1 COA1204     0.0000 
     28 P2A        42.0110   80.5010   60.1700 P.3       1 COA1204     0.0000 
     29 O4A        42.2240   81.3830   58.9890 O.co2     1 COA1204     0.0000 
     30 O5A        41.8200   81.2060   61.5680 O.co2     1 COA1204     0.0000 
     31 O6A        42.9410   79.1710   60.3100 O.3       1 COA1204     0.0000 
     32 CBP        45.3370   78.7730   60.5130 C.3       1 COA1204     0.0000 
     33 CCP        44.1510   78.9540   59.5600 C.3       1 COA1204     0.0000 
     34 CDP        45.1020   77.7600   61.6410 C.3       1 COA1204     0.0000 
     35 CEP        46.5390   78.3050   59.6920 C.3       1 COA1204     0.0000 
     36 CAP        45.6190   80.1720   61.1200 C.3       1 COA1204     0.0000 
     37 OAP        44.6700   80.4380   62.1340 O.3       1 COA1204     0.0000 
     38 C9P        47.0060   80.4520   61.6830 C.2       1 COA1204     0.0000 
     39 O9P        47.9120   80.8110   60.9400 O.2       1 COA1204     0.0000 
     40 N8P        47.1450   80.3530   63.0040 N.am      1 COA1204     0.0000 
     41 C7P        48.4180   80.5270   63.6840 C.3       1 COA1204     0.0000 
     42 C6P        48.9810   79.1980   64.1010 C.3       1 COA1204     0.0000 
     43 C5P        50.4060   79.3080   64.5430 C.2       1 COA1204     0.0000 
     44 O5P        50.7540   80.2050   65.3060 O.2       1 COA1204     0.0000 
     45 N4P        51.2350   78.3720   64.0820 N.am      1 COA1204     0.0000 
     46 C3P        52.6140   78.2260   64.5280 C.3       1 COA1204     0.0000 
     47 C2P        53.6170   78.8960   63.6090 C.3       1 COA1204     0.0000 
     48 S1P        55.1410   79.0870   64.5720 S.3       1 COA1204     0.0000 
@<TRIPOS>BOND
     1    1    2 ar   
     2    1    6 ar   
     3    2    3 ar   
     4    3    4 ar   
     5    4    5 ar   
     6    4   10 1    
     7    5    6 ar   
     8    5    8 1    
     9    6    7 1    
    10    8    9 2    
    11    9   10 1    
    12   10   11 1    
    13   11   12 1    
    14   11   21 1    
    15   12   13 1    
    16   12   14 1    
    17   14   15 1    
    18   14   20 1    
    19   15   16 1    
    20   16   17 ar   
    21   16   18 ar   
    22   16   19 ar   
    23   20   21 1    
    24   20   22 1    
    25   22   23 1    
    26   23   24 1    
    27   24   25 ar   
    28   24   26 ar   
    29   24   27 1    
    30   27   28 1    
    31   28   29 ar   
    32   28   30 ar   
    33   28   31 1    
    34   31   33 1    
    35   32   33 1    
    36   32   34 1    
    37   32   35 1    
    38   32   36 1    
    39   36   37 1    
    40   36   38 1    
    41   38   39 2    
    42   38   40 am   
    43   40   41 1    
    44   41   42 1    
    45   42   43 1    
    46   43   44 2    
    47   43   45 am   
    48   45   46 1    
    49   46   47 1    
    50   47   48 1    
@<TRIPOS>SUBSTRUCTURE
     1 COA1204     1 GROUP   
@<TRIPOS>SET
ATOM$ORANGE STATIC     ATOMS   COLORGROUP SYSTEM 
42 2 2 4 4 5 5 6 6 9 9 11 11 12 12 14 14 20 \
20 22 22 32 32 33 33 34 34 35 35 36 36 38 38 41 41 42 \
42 43 43 46 46 47 47 

