#    Name: 6hxh_15_COA
#    Modification time : Fri May 22 19:30:42 2020

@<TRIPOS>MOLECULE
6hxh_15_COA
   48    50     1     0     1
SMALL
NO_CHARGES


@<TRIPOS>ATOM
      1 N1A        20.5110  166.3330  115.1440 N.ar      1 COA1204     0.0000 
      2 C2A        19.8380  166.9290  116.1350 C.ar      1 COA1204     0.0000 
      3 N3A        18.5220  167.1400  116.2490 N.ar      1 COA1204     0.0000 
      4 C4A        17.8720  166.6950  115.1640 C.ar      1 COA1204     0.0000 
      5 C5A        18.4300  166.0490  114.0710 C.ar      1 COA1204     0.0000 
      6 C6A        19.8200  165.8380  114.0930 C.ar      1 COA1204     0.0000 
      7 N6A        20.4630  165.0750  113.2120 N.pl3     1 COA1204     0.0000 
      8 N7A        17.4600  165.7640  113.1230 N.2       1 COA1204     0.0000 
      9 C8A        16.3590  166.2390  113.6520 C.2       1 COA1204     0.0000 
     10 N9A        16.5350  166.8210  114.8830 N.pl3     1 COA1204     0.0000 
     11 C1B        15.5180  167.4350  115.7350 C.3       1 COA1204     0.0000 
     12 C2B        14.8310  168.6690  115.1510 C.3       1 COA1204     0.0000 
     13 O2B        15.5540  169.8680  115.4110 O.3       1 COA1204     0.0000 
     14 C3B        13.5190  168.6610  115.9310 C.3       1 COA1204     0.0000 
     15 O3B        13.7230  169.3190  117.1970 O.3       1 COA1204     0.0000 
     16 P3B        12.5420  169.9210  118.0980 P.3       1 COA1204     0.0000 
     17 O7A        11.5310  168.9240  118.1900 O.co2     1 COA1204     0.0000 
     18 O8A        13.1690  170.2240  119.4570 O.co2     1 COA1204     0.0000 
     19 O9A        12.1100  171.1800  117.3570 O.co2     1 COA1204     0.0000 
     20 C4B        13.2630  167.1760  116.2340 C.3       1 COA1204     0.0000 
     21 O4B        14.4940  166.4880  115.9480 O.3       1 COA1204     0.0000 
     22 C5B        12.1470  166.5350  115.4540 C.3       1 COA1204     0.0000 
     23 O5B        12.2730  166.9710  114.0780 O.3       1 COA1204     0.0000 
     24 P1A        10.9970  167.3980  113.1810 P.3       1 COA1204     0.0000 
     25 O1A        11.0510  166.9940  111.7520 O.co2     1 COA1204     0.0000 
     26 O2A        10.5310  168.8840  113.4320 O.co2     1 COA1204     0.0000 
     27 O3A        10.0400  166.3920  113.9490 O.3       1 COA1204     0.0000 
     28 P2A         8.7430  165.6360  113.4510 P.3       1 COA1204     0.0000 
     29 O4A         9.0470  165.0390  112.1250 O.co2     1 COA1204     0.0000 
     30 O5A         8.5060  164.5810  114.5850 O.co2     1 COA1204     0.0000 
     31 O6A         7.7220  166.9560  113.4960 O.3       1 COA1204     0.0000 
     32 CBP         5.4040  167.2530  112.7950 C.3       1 COA1204     0.0000 
     33 CCP         6.8810  167.3610  112.3990 C.3       1 COA1204     0.0000 
     34 CDP         5.0900  167.9490  114.1240 C.3       1 COA1204     0.0000 
     35 CEP         4.5600  167.9080  111.7030 C.3       1 COA1204     0.0000 
     36 CAP         5.0560  165.7450  112.8970 C.3       1 COA1204     0.0000 
     37 OAP         5.5580  165.2240  114.1210 O.3       1 COA1204     0.0000 
     38 C9P         3.6000  165.3100  112.7630 C.2       1 COA1204     0.0000 
     39 O9P         3.0800  165.1950  111.6520 O.2       1 COA1204     0.0000 
     40 N8P         2.9750  164.9800  113.8930 N.am      1 COA1204     0.0000 
     41 C7P         1.5840  164.5580  113.9360 C.3       1 COA1204     0.0000 
     42 C6P         0.7000  165.6710  114.4250 C.3       1 COA1204     0.0000 
     43 C5P        -0.7570  165.3550  114.2330 C.2       1 COA1204     0.0000 
     44 O5P        -1.2080  164.2530  114.5540 O.2       1 COA1204     0.0000 
     45 N4P        -1.5030  166.3380  113.7220 N.am      1 COA1204     0.0000 
     46 C3P        -2.9590  166.3200  113.6980 C.3       1 COA1204     0.0000 
     47 C2P        -3.5450  165.7870  112.4060 C.3       1 COA1204     0.0000 
     48 S1P        -5.2430  165.3140  112.8340 S.3       1 COA1204     0.0000 
@<TRIPOS>BOND
     1    1    2 ar   
     2    1    6 ar   
     3    2    3 ar   
     4    3    4 ar   
     5    4    5 ar   
     6    4   10 1    
     7    5    6 ar   
     8    5    8 1    
     9    6    7 1    
    10    8    9 2    
    11    9   10 1    
    12   10   11 1    
    13   11   12 1    
    14   11   21 1    
    15   12   13 1    
    16   12   14 1    
    17   14   15 1    
    18   14   20 1    
    19   15   16 1    
    20   16   17 ar   
    21   16   18 ar   
    22   16   19 ar   
    23   20   21 1    
    24   20   22 1    
    25   22   23 1    
    26   23   24 1    
    27   24   25 ar   
    28   24   26 ar   
    29   24   27 1    
    30   27   28 1    
    31   28   29 ar   
    32   28   30 ar   
    33   28   31 1    
    34   31   33 1    
    35   32   33 1    
    36   32   34 1    
    37   32   35 1    
    38   32   36 1    
    39   36   37 1    
    40   36   38 1    
    41   38   39 2    
    42   38   40 am   
    43   40   41 1    
    44   41   42 1    
    45   42   43 1    
    46   43   44 2    
    47   43   45 am   
    48   45   46 1    
    49   46   47 1    
    50   47   48 1    
@<TRIPOS>SUBSTRUCTURE
     1 COA1204     1 GROUP   
@<TRIPOS>SET
ATOM$ORANGE STATIC     ATOMS   COLORGROUP SYSTEM 
42 2 2 4 4 5 5 6 6 9 9 11 11 12 12 14 14 20 \
20 22 22 32 32 33 33 34 34 35 35 36 36 38 38 41 41 42 \
42 43 43 46 46 47 47 

