#    Name: 6hxh_16_ADP
#    Modification time : Fri May 22 19:30:56 2020

@<TRIPOS>MOLECULE
6hxh_16_ADP
   42    44     1     0     1
SMALL
NO_CHARGES


@<TRIPOS>ATOM
      1 PB        -11.8830  160.6070  151.3690 P.3       1 ADP1205     0.0000 
      2 O1B       -11.7980  162.0390  150.8770 O.co2     1 ADP1205     0.0000 
      3 O2B       -11.5220  159.5340  150.2840 O.co2     1 ADP1205     0.0000 
      4 O3B       -13.3080  160.2480  151.9410 O.co2     1 ADP1205     0.0000 
      5 PA         -9.6140  161.3250  153.1240 P.3       1 ADP1205     0.0000 
      6 O1A        -8.2570  160.8030  152.8220 O.co2     1 ADP1205     0.0000 
      7 O2A        -9.7320  162.7770  152.7230 O.co2     1 ADP1205     0.0000 
      8 O3A       -10.7480  160.4090  152.4710 O.3       1 ADP1205     0.0000 
      9 O5'        -9.9920  161.2010  154.6590 O.3       1 ADP1205     0.0000 
     10 C5'       -11.3360  161.0290  155.1720 C.3       1 ADP1205     0.0000 
     11 C4'       -11.3930  161.6380  156.5470 C.3       1 ADP1205     0.0000 
     12 O4'       -10.4480  160.9480  157.3850 O.3       1 ADP1205     0.0000 
     13 C3'       -10.9920  163.1070  156.5780 C.3       1 ADP1205     0.0000 
     14 O3'       -12.1440  163.9360  156.4100 O.3       1 ADP1205     0.0000 
     15 C2'       -10.2960  163.2640  157.9400 C.3       1 ADP1205     0.0000 
     16 O2'       -11.2020  163.7380  158.9290 O.3       1 ADP1205     0.0000 
     17 C1'        -9.8230  161.8410  158.2820 C.3       1 ADP1205     0.0000 
     18 N9         -8.3780  161.6180  158.2340 N.pl3     1 ADP1205     0.0000 
     19 C8         -7.6460  161.0740  157.2100 C.2       1 ADP1205     0.0000 
     20 N7         -6.3600  160.9940  157.4550 N.2       1 ADP1205     0.0000 
     21 C5         -6.2360  161.5130  158.7350 C.ar      1 ADP1205     0.0000 
     22 C6         -5.1140  161.7620  159.5560 C.ar      1 ADP1205     0.0000 
     23 N6         -3.8840  161.2940  159.3010 N.pl3     1 ADP1205     0.0000 
     24 N1         -5.3280  162.4050  160.7280 N.ar      1 ADP1205     0.0000 
     25 C2         -6.5850  162.7030  161.0780 C.ar      1 ADP1205     0.0000 
     26 N3         -7.7180  162.4790  160.4080 N.ar      1 ADP1205     0.0000 
     27 C4         -7.4730  161.8970  159.2290 C.ar      1 ADP1205     0.0000 
     28 HOB2      -11.1300  159.7900  149.4080 H         1 ADP1205     0.0000 
     29 HOB3      -14.1730  160.2310  151.4520 H         1 ADP1205     0.0000 
     30 HOA2      -10.4460  163.4090  152.9990 H         1 ADP1205     0.0000 
     31 H5'1      -11.5980  159.9720  155.1850 H         1 ADP1205     0.0000 
     32 H5'2      -11.9770  161.5370  154.4530 H         1 ADP1205     0.0000 
     33 H4'       -12.3570  161.4430  157.0140 H         1 ADP1205     0.0000 
     34 H3'       -10.3070  163.3290  155.7620 H         1 ADP1205     0.0000 
     35 HO3'      -12.3390  163.9580  155.4370 H         1 ADP1205     0.0000 
     36 H2'        -9.4520  163.9460  157.8570 H         1 ADP1205     0.0000 
     37 HO2'      -11.7320  164.4540  158.4880 H         1 ADP1205     0.0000 
     38 H1'       -10.1400  161.5510  159.2820 H         1 ADP1205     0.0000 
     39 H8         -8.0780  160.7160  156.2770 H         1 ADP1205     0.0000 
     40 HN61       -3.7030  160.7170  158.4860 H         1 ADP1205     0.0000 
     41 HN62       -3.1180  161.5110  159.9310 H         1 ADP1205     0.0000 
     42 H2         -6.6960  163.1720  162.0530 H         1 ADP1205     0.0000 
@<TRIPOS>BOND
     1    1    2 ar   
     2    1    3 ar   
     3    1    4 ar   
     4    1    8 1    
     5    3   28 1    
     6    4   29 1    
     7    5    6 ar   
     8    5    7 ar   
     9    5    8 1    
    10    5    9 1    
    11    7   30 1    
    12    9   10 1    
    13   10   11 1    
    14   10   31 1    
    15   10   32 1    
    16   11   12 1    
    17   11   13 1    
    18   11   33 1    
    19   12   17 1    
    20   13   14 1    
    21   13   15 1    
    22   13   34 1    
    23   14   35 1    
    24   15   16 1    
    25   15   17 1    
    26   15   36 1    
    27   16   37 1    
    28   17   18 1    
    29   17   38 1    
    30   18   19 1    
    31   18   27 1    
    32   19   20 2    
    33   19   39 1    
    34   20   21 1    
    35   21   22 ar   
    36   21   27 ar   
    37   22   23 1    
    38   22   24 ar   
    39   23   40 1    
    40   23   41 1    
    41   24   25 ar   
    42   25   26 ar   
    43   25   42 1    
    44   26   27 ar   
@<TRIPOS>SUBSTRUCTURE
     1 ADP1205     1 GROUP   
@<TRIPOS>SET
ATOM$ORANGE STATIC     ATOMS   COLORGROUP SYSTEM 
20 10 10 11 11 13 13 15 15 17 17 19 19 21 21 22 22 25 \
25 27 27 

