#    Name: 6hxh_2_ADP
#    Modification time : Fri May 22 19:26:07 2020

@<TRIPOS>MOLECULE
6hxh_2_ADP
   42    44     1     0     1
SMALL
NO_CHARGES


@<TRIPOS>ATOM
      1 PB         67.2360  114.4410  -31.3260 P.3       1 ADP1205     0.0000 
      2 O1B        66.9240  115.7200  -30.5610 O.co2     1 ADP1205     0.0000 
      3 O2B        67.4580  113.2220  -30.3810 O.co2     1 ADP1205     0.0000 
      4 O3B        68.4950  114.6450  -32.2180 O.co2     1 ADP1205     0.0000 
      5 PA         64.9970  114.8660  -33.1790 P.3       1 ADP1205     0.0000 
      6 O1A        63.5900  114.4270  -33.0780 O.co2     1 ADP1205     0.0000 
      7 O2A        65.1260  116.3940  -32.8820 O.co2     1 ADP1205     0.0000 
      8 O3A        66.0150  114.0320  -32.2730 O.3       1 ADP1205     0.0000 
      9 O5'        65.4730  114.4890  -34.6570 O.3       1 ADP1205     0.0000 
     10 C5'        66.5580  115.1580  -35.3290 C.3       1 ADP1205     0.0000 
     11 C4'        66.0250  116.0720  -36.4070 C.3       1 ADP1205     0.0000 
     12 O4'        65.2280  115.3030  -37.3250 O.3       1 ADP1205     0.0000 
     13 C3'        65.1050  117.2030  -35.9660 C.3       1 ADP1205     0.0000 
     14 O3'        65.8170  118.3090  -35.4100 O.3       1 ADP1205     0.0000 
     15 C2'        64.3570  117.5200  -37.2640 C.3       1 ADP1205     0.0000 
     16 O2'        65.0780  118.4100  -38.1040 O.3       1 ADP1205     0.0000 
     17 C1'        64.2700  116.1440  -37.9380 C.3       1 ADP1205     0.0000 
     18 N9         62.9660  115.4900  -37.8690 N.pl3     1 ADP1205     0.0000 
     19 C8         62.5280  114.5900  -36.9320 C.2       1 ADP1205     0.0000 
     20 N7         61.3450  114.0840  -37.1880 N.2       1 ADP1205     0.0000 
     21 C5         60.9740  114.7030  -38.3720 C.ar      1 ADP1205     0.0000 
     22 C6         59.8320  114.5780  -39.1930 C.ar      1 ADP1205     0.0000 
     23 N6         58.7670  113.8330  -38.8720 N.pl3     1 ADP1205     0.0000 
     24 N1         59.8150  115.2740  -40.3580 N.ar      1 ADP1205     0.0000 
     25 C2         60.8520  116.0650  -40.6520 C.ar      1 ADP1205     0.0000 
     26 N3         61.9540  116.3030  -39.9330 N.ar      1 ADP1205     0.0000 
     27 C4         61.9630  115.5730  -38.8050 C.ar      1 ADP1205     0.0000 
     28 HOB2       67.5840  113.3490  -29.4040 H         1 ADP1205     0.0000 
     29 HOB3       69.3950  114.9400  -31.9200 H         1 ADP1205     0.0000 
     30 HOA2       65.9040  116.8710  -32.4910 H         1 ADP1205     0.0000 
     31 H5'1       67.2280  114.4050  -35.7420 H         1 ADP1205     0.0000 
     32 H5'2       67.0920  115.6840  -34.5380 H         1 ADP1205     0.0000 
     33 H4'        66.8430  116.4290  -37.0300 H         1 ADP1205     0.0000 
     34 H3'        64.3950  116.8560  -35.2190 H         1 ADP1205     0.0000 
     35 HO3'       65.9760  118.1020  -34.4520 H         1 ADP1205     0.0000 
     36 H2'        63.3680  117.9260  -37.0580 H         1 ADP1205     0.0000 
     37 HO2'       65.2010  119.2330  -37.5630 H         1 ADP1205     0.0000 
     38 H1'        64.5320  116.2040  -38.9930 H         1 ADP1205     0.0000 
     39 H8         63.1040  114.3160  -36.0490 H         1 ADP1205     0.0000 
     40 HN61       58.7450  113.3070  -38.0040 H         1 ADP1205     0.0000 
     41 HN62       57.9640  113.8030  -39.4920 H         1 ADP1205     0.0000 
     42 H2         60.7870  116.5410  -41.6280 H         1 ADP1205     0.0000 
@<TRIPOS>BOND
     1    1    2 ar   
     2    1    3 ar   
     3    1    4 ar   
     4    1    8 1    
     5    3   28 1    
     6    4   29 1    
     7    5    6 ar   
     8    5    7 ar   
     9    5    8 1    
    10    5    9 1    
    11    7   30 1    
    12    9   10 1    
    13   10   11 1    
    14   10   31 1    
    15   10   32 1    
    16   11   12 1    
    17   11   13 1    
    18   11   33 1    
    19   12   17 1    
    20   13   14 1    
    21   13   15 1    
    22   13   34 1    
    23   14   35 1    
    24   15   16 1    
    25   15   17 1    
    26   15   36 1    
    27   16   37 1    
    28   17   18 1    
    29   17   38 1    
    30   18   19 1    
    31   18   27 1    
    32   19   20 2    
    33   19   39 1    
    34   20   21 1    
    35   21   22 ar   
    36   21   27 ar   
    37   22   23 1    
    38   22   24 ar   
    39   23   40 1    
    40   23   41 1    
    41   24   25 ar   
    42   25   26 ar   
    43   25   42 1    
    44   26   27 ar   
@<TRIPOS>SUBSTRUCTURE
     1 ADP1205     1 GROUP   
@<TRIPOS>SET
ATOM$ORANGE STATIC     ATOMS   COLORGROUP SYSTEM 
20 10 10 11 11 13 13 15 15 17 17 19 19 21 21 22 22 25 \
25 27 27 

