#    Name: 6hxh_4_ADP
#    Modification time : Fri May 22 19:26:51 2020

@<TRIPOS>MOLECULE
6hxh_4_ADP
   42    44     1     0     1
SMALL
NO_CHARGES


@<TRIPOS>ATOM
      1 PB        -15.9810   14.6460   29.1240 P.3       1 ADP1204     0.0000 
      2 O1B       -16.2130   15.1210   30.4720 O.co2     1 ADP1204     0.0000 
      3 O2B       -16.1600   15.7610   28.0860 O.co2     1 ADP1204     0.0000 
      4 O3B       -16.9480   13.5100   28.7710 O.co2     1 ADP1204     0.0000 
      5 PA        -13.2490   13.7630   29.8220 P.3       1 ADP1204     0.0000 
      6 O1A       -12.0440   14.5530   29.4850 O.co2     1 ADP1204     0.0000 
      7 O2A       -13.5940   13.9750   31.2890 O.co2     1 ADP1204     0.0000 
      8 O3A       -14.4800   14.1580   28.8870 O.3       1 ADP1204     0.0000 
      9 O5'       -13.0770   12.1850   29.5920 O.3       1 ADP1204     0.0000 
     10 C5'       -14.1290   11.1840   29.6230 C.3       1 ADP1204     0.0000 
     11 C4'       -13.7870   10.0540   30.5670 C.3       1 ADP1204     0.0000 
     12 O4'       -12.7410    9.2330   29.9990 O.3       1 ADP1204     0.0000 
     13 C3'       -13.2740   10.4700   31.9440 C.3       1 ADP1204     0.0000 
     14 O3'       -14.3550   10.7090   32.8440 O.3       1 ADP1204     0.0000 
     15 C2'       -12.4430    9.2570   32.3590 C.3       1 ADP1204     0.0000 
     16 O2'       -13.2980    8.2560   32.9000 O.3       1 ADP1204     0.0000 
     17 C1'       -11.8550    8.7960   31.0160 C.3       1 ADP1204     0.0000 
     18 N9        -10.5030    9.2790   30.7240 N.pl3     1 ADP1204     0.0000 
     19 C8        -10.1470   10.4150   30.0440 C.2       1 ADP1204     0.0000 
     20 N7         -8.8530   10.5980   29.9450 N.2       1 ADP1204     0.0000 
     21 C5         -8.3150    9.5050   30.6050 C.ar      1 ADP1204     0.0000 
     22 C6         -6.9850    9.0980   30.8440 C.ar      1 ADP1204     0.0000 
     23 N6         -5.9190    9.8690   30.6120 N.pl3     1 ADP1204     0.0000 
     24 N1         -6.7940    7.9020   31.4450 N.ar      1 ADP1204     0.0000 
     25 C2         -7.8660    7.1960   31.8270 C.ar      1 ADP1204     0.0000 
     26 N3         -9.1610    7.5110   31.7170 N.ar      1 ADP1204     0.0000 
     27 C4         -9.3210    8.6770   31.0800 C.ar      1 ADP1204     0.0000 
     28 HOB2      -16.3900   16.6880   28.3570 H         1 ADP1204     0.0000 
     29 HOB3      -17.9400   13.5490   28.7460 H         1 ADP1204     0.0000 
     30 HOA2      -14.4790   13.8350   31.7160 H         1 ADP1204     0.0000 
     31 H5'1      -14.3080   10.8120   28.6150 H         1 ADP1204     0.0000 
     32 H5'2      -15.0140   11.7390   29.9320 H         1 ADP1204     0.0000 
     33 H4'       -14.6280    9.3660   30.6310 H         1 ADP1204     0.0000 
     34 H3'       -12.6640   11.3710   31.9040 H         1 ADP1204     0.0000 
     35 HO3'      -14.6540   11.6430   32.6880 H         1 ADP1204     0.0000 
     36 H2'       -11.6700    9.5360   33.0740 H         1 ADP1204     0.0000 
     37 HO2'      -13.7500    8.6860   33.6720 H         1 ADP1204     0.0000 
     38 H1'       -11.8180    7.7090   30.9510 H         1 ADP1204     0.0000 
     39 H8        -10.8660   11.1070   29.6100 H         1 ADP1204     0.0000 
     40 HN61       -6.0270   10.8120   30.2530 H         1 ADP1204     0.0000 
     41 HN62       -4.9870    9.5120   30.8000 H         1 ADP1204     0.0000 
     42 H2         -7.6380    6.2150   32.2380 H         1 ADP1204     0.0000 
@<TRIPOS>BOND
     1    1    2 ar   
     2    1    3 ar   
     3    1    4 ar   
     4    1    8 1    
     5    3   28 1    
     6    4   29 1    
     7    5    6 ar   
     8    5    7 ar   
     9    5    8 1    
    10    5    9 1    
    11    7   30 1    
    12    9   10 1    
    13   10   11 1    
    14   10   31 1    
    15   10   32 1    
    16   11   12 1    
    17   11   13 1    
    18   11   33 1    
    19   12   17 1    
    20   13   14 1    
    21   13   15 1    
    22   13   34 1    
    23   14   35 1    
    24   15   16 1    
    25   15   17 1    
    26   15   36 1    
    27   16   37 1    
    28   17   18 1    
    29   17   38 1    
    30   18   19 1    
    31   18   27 1    
    32   19   20 2    
    33   19   39 1    
    34   20   21 1    
    35   21   22 ar   
    36   21   27 ar   
    37   22   23 1    
    38   22   24 ar   
    39   23   40 1    
    40   23   41 1    
    41   24   25 ar   
    42   25   26 ar   
    43   25   42 1    
    44   26   27 ar   
@<TRIPOS>SUBSTRUCTURE
     1 ADP1204     1 GROUP   
@<TRIPOS>SET
ATOM$ORANGE STATIC     ATOMS   COLORGROUP SYSTEM 
20 10 10 11 11 13 13 15 15 17 17 19 19 21 21 22 22 25 \
25 27 27 

