#    Name: 6hxh_8_ADP
#    Modification time : Fri May 22 19:28:17 2020

@<TRIPOS>MOLECULE
6hxh_8_ADP
   42    44     1     0     1
SMALL
NO_CHARGES


@<TRIPOS>ATOM
      1 PB         47.0300   74.0060  103.1290 P.3       1 ADP1205     0.0000 
      2 O1B        47.5320   72.7560  102.3690 O.co2     1 ADP1205     0.0000 
      3 O2B        47.2920   75.3050  102.3640 O.co2     1 ADP1205     0.0000 
      4 O3B        47.6600   74.1580  104.5150 O.co2     1 ADP1205     0.0000 
      5 PA         44.3370   73.0650  103.8460 P.3       1 ADP1205     0.0000 
      6 O1A        43.0290   73.3840  103.2440 O.co2     1 ADP1205     0.0000 
      7 O2A        44.7230   71.6390  103.4530 O.co2     1 ADP1205     0.0000 
      8 O3A        45.4600   74.0920  103.3770 O.3       1 ADP1205     0.0000 
      9 O5'        44.2730   73.3210  105.4240 O.3       1 ADP1205     0.0000 
     10 C5'        45.2600   72.9050  106.3910 C.3       1 ADP1205     0.0000 
     11 C4'        44.6660   71.9200  107.3750 C.3       1 ADP1205     0.0000 
     12 O4'        43.5510   72.5280  108.0590 O.3       1 ADP1205     0.0000 
     13 C3'        44.1190   70.6320  106.7670 C.3       1 ADP1205     0.0000 
     14 O3'        45.1420   69.6470  106.5980 O.3       1 ADP1205     0.0000 
     15 C2'        43.0370   70.2100  107.7720 C.3       1 ADP1205     0.0000 
     16 O2'        43.5460   69.3270  108.7670 O.3       1 ADP1205     0.0000 
     17 C1'        42.5770   71.5500  108.3760 C.3       1 ADP1205     0.0000 
     18 N9         41.2640   72.0170  107.9230 N.pl3     1 ADP1205     0.0000 
     19 C8         40.9750   72.8890  106.9030 C.2       1 ADP1205     0.0000 
     20 N7         39.6930   73.0780  106.7080 N.2       1 ADP1205     0.0000 
     21 C5         39.0920   72.2850  107.6740 C.ar      1 ADP1205     0.0000 
     22 C6         37.7420   72.0430  108.0040 C.ar      1 ADP1205     0.0000 
     23 N6         36.7100   72.5130  107.3040 N.pl3     1 ADP1205     0.0000 
     24 N1         37.4880   71.2360  109.0590 N.ar      1 ADP1205     0.0000 
     25 C2         38.5190   70.6930  109.7160 C.ar      1 ADP1205     0.0000 
     26 N3         39.8270   70.8170  109.4730 N.ar      1 ADP1205     0.0000 
     27 C4         40.0500   71.6340  108.4370 C.ar      1 ADP1205     0.0000 
     28 HOB2       46.7050   75.5800  101.6120 H         1 ADP1205     0.0000 
     29 HOB3       48.6250   74.0910  104.7390 H         1 ADP1205     0.0000 
     30 HOA2       45.1830   71.3490  102.6220 H         1 ADP1205     0.0000 
     31 H5'1       45.6610   73.7870  106.8880 H         1 ADP1205     0.0000 
     32 H5'2       46.0540   72.4720  105.7830 H         1 ADP1205     0.0000 
     33 H4'        45.3730   71.7290  108.1810 H         1 ADP1205     0.0000 
     34 H3'        43.6850   70.8310  105.7900 H         1 ADP1205     0.0000 
     35 HO3'       45.5200   69.7760  105.6890 H         1 ADP1205     0.0000 
     36 H2'        42.2160   69.7200  107.2500 H         1 ADP1205     0.0000 
     37 HO2'       44.0240   68.6150  108.2670 H         1 ADP1205     0.0000 
     38 H1'        42.5310   71.5000  109.4630 H         1 ADP1205     0.0000 
     39 H8         41.7360   73.3940  106.3090 H         1 ADP1205     0.0000 
     40 HN61       36.8640   73.1000  106.4910 H         1 ADP1205     0.0000 
     41 HN62       35.7620   72.2530  107.5550 H         1 ADP1205     0.0000 
     42 H2         38.2480   70.0990  110.5870 H         1 ADP1205     0.0000 
@<TRIPOS>BOND
     1    1    2 ar   
     2    1    3 ar   
     3    1    4 ar   
     4    1    8 1    
     5    3   28 1    
     6    4   29 1    
     7    5    6 ar   
     8    5    7 ar   
     9    5    8 1    
    10    5    9 1    
    11    7   30 1    
    12    9   10 1    
    13   10   11 1    
    14   10   31 1    
    15   10   32 1    
    16   11   12 1    
    17   11   13 1    
    18   11   33 1    
    19   12   17 1    
    20   13   14 1    
    21   13   15 1    
    22   13   34 1    
    23   14   35 1    
    24   15   16 1    
    25   15   17 1    
    26   15   36 1    
    27   16   37 1    
    28   17   18 1    
    29   17   38 1    
    30   18   19 1    
    31   18   27 1    
    32   19   20 2    
    33   19   39 1    
    34   20   21 1    
    35   21   22 ar   
    36   21   27 ar   
    37   22   23 1    
    38   22   24 ar   
    39   23   40 1    
    40   23   41 1    
    41   24   25 ar   
    42   25   26 ar   
    43   25   42 1    
    44   26   27 ar   
@<TRIPOS>SUBSTRUCTURE
     1 ADP1205     1 GROUP   
@<TRIPOS>SET
ATOM$ORANGE STATIC     ATOMS   COLORGROUP SYSTEM 
20 10 10 11 11 13 13 15 15 17 17 19 19 21 21 22 22 25 \
25 27 27 

