#    Name: 6hxh_5_COA
#    Modification time : Fri May 22 19:27:18 2020

@<TRIPOS>MOLECULE
6hxh_5_COA
   48    50     1     0     1
SMALL
NO_CHARGES


@<TRIPOS>ATOM
      1 N1A        -0.7450  114.7290   17.5000 N.ar      1 COA1204     0.0000 
      2 C2A        -1.0840  115.6970   16.6390 C.ar      1 COA1204     0.0000 
      3 N3A        -2.1900  115.8040   15.8940 N.ar      1 COA1204     0.0000 
      4 C4A        -3.0100  114.7520   16.0980 C.ar      1 COA1204     0.0000 
      5 C5A        -2.7980  113.6910   16.9610 C.ar      1 COA1204     0.0000 
      6 C6A        -1.6000  113.6970   17.6990 C.ar      1 COA1204     0.0000 
      7 N6A        -1.2840  112.7680   18.6050 N.pl3     1 COA1204     0.0000 
      8 N7A        -3.8580  112.8000   16.9130 N.2       1 COA1204     0.0000 
      9 C8A        -4.6720  113.3310   16.0330 C.2       1 COA1204     0.0000 
     10 N9A        -4.2290  114.5140   15.5050 N.pl3     1 COA1204     0.0000 
     11 C1B        -4.9250  115.3860   14.5640 C.3       1 COA1204     0.0000 
     12 C2B        -5.1130  114.8100   13.1690 C.3       1 COA1204     0.0000 
     13 O2B        -3.9500  115.0020   12.3650 O.3       1 COA1204     0.0000 
     14 C3B        -6.2690  115.6710   12.6670 C.3       1 COA1204     0.0000 
     15 O3B        -5.7250  116.8980   12.1490 O.3       1 COA1204     0.0000 
     16 P3B        -6.4620  117.8090   11.1140 P.3       1 COA1204     0.0000 
     17 O7A        -7.8440  117.9860   11.6350 O.co2     1 COA1204     0.0000 
     18 O8A        -5.7110  119.1860   11.1220 O.co2     1 COA1204     0.0000 
     19 O9A        -6.3540  117.0000    9.7690 O.co2     1 COA1204     0.0000 
     20 C4B        -7.0590  116.0180   13.9310 C.3       1 COA1204     0.0000 
     21 O4B        -6.2230  115.6490   15.0450 O.3       1 COA1204     0.0000 
     22 C5B        -8.3820  115.3050   14.0380 C.3       1 COA1204     0.0000 
     23 O5B        -8.1830  113.9100   13.6930 O.3       1 COA1204     0.0000 
     24 P1A        -9.2920  113.1490   12.7960 P.3       1 COA1204     0.0000 
     25 O1A        -9.3910  111.6860   13.0080 O.co2     1 COA1204     0.0000 
     26 O2A        -9.2880  113.5800   11.2840 O.co2     1 COA1204     0.0000 
     27 O3A       -10.4990  113.8450   13.5620 O.3       1 COA1204     0.0000 
     28 P2A       -11.9640  113.3120   13.8830 P.3       1 COA1204     0.0000 
     29 O4A       -11.9350  111.9010   14.3250 O.co2     1 COA1204     0.0000 
     30 O5A       -12.5190  114.2950   14.9400 O.co2     1 COA1204     0.0000 
     31 O6A       -12.5370  113.6530   12.3830 O.3       1 COA1204     0.0000 
     32 CBP       -14.6670  113.3510   11.2370 C.3       1 COA1204     0.0000 
     33 CCP       -13.3110  112.7320   11.5910 C.3       1 COA1204     0.0000 
     34 CDP       -14.5350  114.7130   10.5430 C.3       1 COA1204     0.0000 
     35 CEP       -15.3410  112.3560   10.2810 C.3       1 COA1204     0.0000 
     36 CAP       -15.5020  113.5120   12.5370 C.3       1 COA1204     0.0000 
     37 OAP       -15.0670  114.5890   13.3570 O.3       1 COA1204     0.0000 
     38 C9P       -17.0130  113.6100   12.3760 C.2       1 COA1204     0.0000 
     39 O9P       -17.6910  112.5910   12.2630 O.2       1 COA1204     0.0000 
     40 N8P       -17.5430  114.8300   12.4250 N.am      1 COA1204     0.0000 
     41 C7P       -18.9750  115.0710   12.3310 C.3       1 COA1204     0.0000 
     42 C6P       -19.3530  115.5950   10.9760 C.3       1 COA1204     0.0000 
     43 C5P       -20.8390  115.5110   10.7400 C.2       1 COA1204     0.0000 
     44 O5P       -21.6420  115.9120   11.5850 O.2       1 COA1204     0.0000 
     45 N4P       -21.2070  114.9920    9.5700 N.am      1 COA1204     0.0000 
     46 C3P       -22.5700  115.0400    9.0650 C.3       1 COA1204     0.0000 
     47 C2P       -23.3880  113.8050    9.3830 C.3       1 COA1204     0.0000 
     48 S1P       -25.0490  114.3290    8.8860 S.3       1 COA1204     0.0000 
@<TRIPOS>BOND
     1    1    2 ar   
     2    1    6 ar   
     3    2    3 ar   
     4    3    4 ar   
     5    4    5 ar   
     6    4   10 1    
     7    5    6 ar   
     8    5    8 1    
     9    6    7 1    
    10    8    9 2    
    11    9   10 1    
    12   10   11 1    
    13   11   12 1    
    14   11   21 1    
    15   12   13 1    
    16   12   14 1    
    17   14   15 1    
    18   14   20 1    
    19   15   16 1    
    20   16   17 ar   
    21   16   18 ar   
    22   16   19 ar   
    23   20   21 1    
    24   20   22 1    
    25   22   23 1    
    26   23   24 1    
    27   24   25 ar   
    28   24   26 ar   
    29   24   27 1    
    30   27   28 1    
    31   28   29 ar   
    32   28   30 ar   
    33   28   31 1    
    34   31   33 1    
    35   32   33 1    
    36   32   34 1    
    37   32   35 1    
    38   32   36 1    
    39   36   37 1    
    40   36   38 1    
    41   38   39 2    
    42   38   40 am   
    43   40   41 1    
    44   41   42 1    
    45   42   43 1    
    46   43   44 2    
    47   43   45 am   
    48   45   46 1    
    49   46   47 1    
    50   47   48 1    
@<TRIPOS>SUBSTRUCTURE
     1 COA1204     1 GROUP   
@<TRIPOS>SET
ATOM$ORANGE STATIC     ATOMS   COLORGROUP SYSTEM 
42 2 2 4 4 5 5 6 6 9 9 11 11 12 12 14 14 20 \
20 22 22 32 32 33 33 34 34 35 35 36 36 38 38 41 41 42 \
42 43 43 46 46 47 47 

