#    Name: 6hxh_3_COA
#    Modification time : Fri May 22 19:26:36 2020

@<TRIPOS>MOLECULE
6hxh_3_COA
   48    50     1     0     1
SMALL
NO_CHARGES


@<TRIPOS>ATOM
      1 N1A         4.2540   59.1920   31.9000 N.ar      1 COA1207     0.0000 
      2 C2A         3.9020   58.1640   32.6830 C.ar      1 COA1207     0.0000 
      3 N3A         2.6790   57.7700   33.0490 N.ar      1 COA1207     0.0000 
      4 C4A         1.7380   58.5820   32.5360 C.ar      1 COA1207     0.0000 
      5 C5A         1.9520   59.7100   31.7600 C.ar      1 COA1207     0.0000 
      6 C6A         3.2870   60.0030   31.4140 C.ar      1 COA1207     0.0000 
      7 N6A         3.6460   61.0160   30.6230 N.pl3     1 COA1207     0.0000 
      8 N7A         0.7540   60.3540   31.4920 N.2       1 COA1207     0.0000 
      9 C8A        -0.1450   59.5940   32.0700 C.2       1 COA1207     0.0000 
     10 N9A         0.3770   58.4950   32.7020 N.pl3     1 COA1207     0.0000 
     11 C1B        -0.3460   57.4060   33.3580 C.3       1 COA1207     0.0000 
     12 C2B        -1.1580   57.8300   34.5790 C.3       1 COA1207     0.0000 
     13 O2B        -0.3640   57.8670   35.7700 O.3       1 COA1207     0.0000 
     14 C3B        -2.1910   56.7040   34.6330 C.3       1 COA1207     0.0000 
     15 O3B        -1.6180   55.5940   35.3490 O.3       1 COA1207     0.0000 
     16 P3B        -2.5370   54.5550   36.0910 P.3       1 COA1207     0.0000 
     17 O7A        -3.4660   54.0470   35.1040 O.co2     1 COA1207     0.0000 
     18 O8A        -1.5890   53.4840   36.5830 O.co2     1 COA1207     0.0000 
     19 O9A        -3.2590   55.2890   37.2430 O.co2     1 COA1207     0.0000 
     20 C4B        -2.3590   56.2540   33.1710 C.3       1 COA1207     0.0000 
     21 O4B        -1.2620   56.8350   32.4440 O.3       1 COA1207     0.0000 
     22 C5B        -3.6630   56.6520   32.5240 C.3       1 COA1207     0.0000 
     23 O5B        -3.9520   58.0350   32.8600 O.3       1 COA1207     0.0000 
     24 P1A        -5.4460   58.5410   33.2880 P.3       1 COA1207     0.0000 
     25 O1A        -5.8190   59.9070   32.8450 O.co2     1 COA1207     0.0000 
     26 O2A        -5.8300   58.2110   34.7620 O.co2     1 COA1207     0.0000 
     27 O3A        -6.1760   57.4720   32.3780 O.3       1 COA1207     0.0000 
     28 P2A        -7.5520   57.6170   31.6130 P.3       1 COA1207     0.0000 
     29 O4A        -7.6300   58.9690   30.9730 O.co2     1 COA1207     0.0000 
     30 O5A        -7.4840   56.3830   30.6180 O.co2     1 COA1207     0.0000 
     31 O6A        -8.5050   57.3230   32.9310 O.3       1 COA1207     0.0000 
     32 CBP       -10.9320   57.2620   33.1990 C.3       1 COA1207     0.0000 
     33 CCP        -9.6600   58.1150   33.2710 C.3       1 COA1207     0.0000 
     34 CDP       -10.8500   55.9560   33.9920 C.3       1 COA1207     0.0000 
     35 CEP       -12.0710   58.1080   33.7740 C.3       1 COA1207     0.0000 
     36 CAP       -11.2110   56.9290   31.7080 C.3       1 COA1207     0.0000 
     37 OAP       -10.3580   55.9050   31.2250 O.3       1 COA1207     0.0000 
     38 C9P       -12.6360   56.5820   31.3040 C.2       1 COA1207     0.0000 
     39 O9P       -13.4560   57.4720   31.1060 O.2       1 COA1207     0.0000 
     40 N8P       -12.9050   55.2980   31.0830 N.am      1 COA1207     0.0000 
     41 C7P       -14.2170   54.8380   30.6570 C.3       1 COA1207     0.0000 
     42 C6P       -14.9390   54.1670   31.7830 C.3       1 COA1207     0.0000 
     43 C5P       -16.3970   53.9450   31.4780 C.2       1 COA1207     0.0000 
     44 O5P       -16.7650   53.4810   30.3980 O.2       1 COA1207     0.0000 
     45 N4P       -17.2350   54.2440   32.4670 N.am      1 COA1207     0.0000 
     46 C3P       -18.6410   53.8830   32.4640 C.3       1 COA1207     0.0000 
     47 C2P       -19.5420   54.9700   31.9150 C.3       1 COA1207     0.0000 
     48 S1P       -21.1400   54.1190   31.8890 S.3       1 COA1207     0.0000 
@<TRIPOS>BOND
     1    6    7 1    
     2    8    9 2    
     3    9   10 1    
     4   10   11 1    
     5   11   12 1    
     6   11   21 1    
     7   12   13 1    
     8   12   14 1    
     9   14   15 1    
    10   14   20 1    
    11   15   16 1    
    12   16   17 ar   
    13   16   18 ar   
    14   16   19 ar   
    15   20   21 1    
    16   20   22 1    
    17   22   23 1    
    18   23   24 1    
    19   24   25 ar   
    20   24   26 ar   
    21   24   27 1    
    22   27   28 1    
    23   28   29 ar   
    24   28   30 ar   
    25   28   31 1    
    26   31   33 1    
    27   32   33 1    
    28   32   34 1    
    29   32   35 1    
    30   32   36 1    
    31   36   37 1    
    32   36   38 1    
    33   38   39 2    
    34   38   40 am   
    35   40   41 1    
    36   41   42 1    
    37   42   43 1    
    38   43   44 2    
    39   43   45 am   
    40   45   46 1    
    41   46   47 1    
    42   47   48 1    
    43    1    2 ar   
    44    1    6 ar   
    45    2    3 ar   
    46    3    4 ar   
    47    4    5 ar   
    48    4   10 1    
    49    5    6 ar   
    50    5    8 1    
@<TRIPOS>SUBSTRUCTURE
     1 COA1207     1 GROUP   
@<TRIPOS>SET
ATOM$ORANGE STATIC     ATOMS   COLORGROUP SYSTEM 
42 2 2 4 4 5 5 6 6 9 9 11 11 12 12 14 14 20 \
20 22 22 32 32 33 33 34 34 35 35 36 36 38 38 41 41 42 \
42 43 43 46 46 47 47 

