#    Name: 6hxh_11_COA
#    Modification time : Fri May 22 19:29:23 2020

@<TRIPOS>MOLECULE
6hxh_11_COA
   48    50     1     0     1
SMALL
NO_CHARGES


@<TRIPOS>ATOM
      1 N1A        55.3920  193.3660  102.2560 N.ar      1 COA1204     0.0000 
      2 C2A        55.5760  194.4050  103.0800 C.ar      1 COA1204     0.0000 
      3 N3A        56.6910  194.7820  103.7170 N.ar      1 COA1204     0.0000 
      4 C4A        57.7140  193.9550  103.4310 C.ar      1 COA1204     0.0000 
      5 C5A        57.6790  192.8550  102.5910 C.ar      1 COA1204     0.0000 
      6 C6A        56.4400  192.5500  101.9910 C.ar      1 COA1204     0.0000 
      7 N6A        56.2330  191.4800  101.2280 N.pl3     1 COA1204     0.0000 
      8 N7A        58.9130  192.2260  102.5550 N.2       1 COA1204     0.0000 
      9 C8A        59.6510  192.9420  103.3690 C.2       1 COA1204     0.0000 
     10 N9A        58.9900  193.9960  103.9400 N.pl3     1 COA1204     0.0000 
     11 C1B        59.5050  194.9610  104.9030 C.3       1 COA1204     0.0000 
     12 C2B        59.9480  194.3860  106.2500 C.3       1 COA1204     0.0000 
     13 O2B        58.8670  194.2320  107.1700 O.3       1 COA1204     0.0000 
     14 C3B        60.8960  195.4890  106.7220 C.3       1 COA1204     0.0000 
     15 O3B        60.1400  196.5340  107.3680 O.3       1 COA1204     0.0000 
     16 P3B        60.7420  197.6240  108.3610 P.3       1 COA1204     0.0000 
     17 O7A        61.9230  198.1440  107.7650 O.co2     1 COA1204     0.0000 
     18 O8A        59.6590  198.7360  108.4390 O.co2     1 COA1204     0.0000 
     19 O9A        60.9900  196.7800  109.6390 O.co2     1 COA1204     0.0000 
     20 C4B        61.4610  196.0880  105.4190 C.3       1 COA1204     0.0000 
     21 O4B        60.6440  195.5800  104.3490 O.3       1 COA1204     0.0000 
     22 C5B        62.8980  195.7490  105.1350 C.3       1 COA1204     0.0000 
     23 O5B        63.0900  194.3360  105.4170 O.3       1 COA1204     0.0000 
     24 P1A        64.4050  193.7700  106.2130 P.3       1 COA1204     0.0000 
     25 O1A        64.9580  192.4670  105.7930 O.co2     1 COA1204     0.0000 
     26 O2A        64.3030  193.9100  107.7710 O.co2     1 COA1204     0.0000 
     27 O3A        65.2820  194.9560  105.6380 O.3       1 COA1204     0.0000 
     28 P2A        66.8250  194.9830  105.3260 P.3       1 COA1204     0.0000 
     29 O4A        67.1240  193.7420  104.5560 O.co2     1 COA1204     0.0000 
     30 O5A        66.9930  196.3440  104.5480 O.co2     1 COA1204     0.0000 
     31 O6A        67.3260  195.0430  106.9180 O.3       1 COA1204     0.0000 
     32 CBP        69.5400  194.9560  107.9400 C.3       1 COA1204     0.0000 
     33 CCP        68.2990  194.1620  107.5190 C.3       1 COA1204     0.0000 
     34 CDP        69.2200  196.1990  108.7750 C.3       1 COA1204     0.0000 
     35 CEP        70.4030  194.0250  108.7880 C.3       1 COA1204     0.0000 
     36 CAP        70.2920  195.3630  106.6460 C.3       1 COA1204     0.0000 
     37 OAP        69.6610  196.3940  105.9070 O.3       1 COA1204     0.0000 
     38 C9P        71.7630  195.7380  106.7740 C.2       1 COA1204     0.0000 
     39 O9P        72.6200  194.8610  106.8670 O.2       1 COA1204     0.0000 
     40 N8P        72.0540  197.0340  106.6940 N.am      1 COA1204     0.0000 
     41 C7P        73.4160  197.5350  106.7520 C.3       1 COA1204     0.0000 
     42 C6P        73.7380  198.0450  108.1200 C.3       1 COA1204     0.0000 
     43 C5P        75.2060  198.2970  108.2920 C.2       1 COA1204     0.0000 
     44 O5P        75.8600  198.8820  107.4290 O.2       1 COA1204     0.0000 
     45 N4P        75.7240  197.8750  109.4400 N.am      1 COA1204     0.0000 
     46 C3P        77.0620  198.2370  109.8790 C.3       1 COA1204     0.0000 
     47 C2P        78.1050  197.1700  109.6130 C.3       1 COA1204     0.0000 
     48 S1P        79.6220  198.0750  110.0220 S.3       1 COA1204     0.0000 
@<TRIPOS>BOND
     1    1    2 ar   
     2    1    6 ar   
     3    2    3 ar   
     4    3    4 ar   
     5    4    5 ar   
     6    4   10 1    
     7    5    6 ar   
     8    5    8 1    
     9    6    7 1    
    10    8    9 2    
    11    9   10 1    
    12   10   11 1    
    13   11   12 1    
    14   11   21 1    
    15   12   13 1    
    16   12   14 1    
    17   14   15 1    
    18   14   20 1    
    19   15   16 1    
    20   16   17 ar   
    21   16   18 ar   
    22   16   19 ar   
    23   20   21 1    
    24   20   22 1    
    25   22   23 1    
    26   23   24 1    
    27   24   25 ar   
    28   24   26 ar   
    29   24   27 1    
    30   27   28 1    
    31   28   29 ar   
    32   28   30 ar   
    33   28   31 1    
    34   31   33 1    
    35   32   33 1    
    36   32   34 1    
    37   32   35 1    
    38   32   36 1    
    39   36   37 1    
    40   36   38 1    
    41   38   39 2    
    42   38   40 am   
    43   40   41 1    
    44   41   42 1    
    45   42   43 1    
    46   43   44 2    
    47   43   45 am   
    48   45   46 1    
    49   46   47 1    
    50   47   48 1    
@<TRIPOS>SUBSTRUCTURE
     1 COA1204     1 GROUP   
@<TRIPOS>SET
ATOM$ORANGE STATIC     ATOMS   COLORGROUP SYSTEM 
42 2 2 4 4 5 5 6 6 9 9 11 11 12 12 14 14 20 \
20 22 22 32 32 33 33 34 34 35 35 36 36 38 38 41 41 42 \
42 43 43 46 46 47 47 

