#    Name: 6hxh_10_ADP
#    Modification time : Fri May 22 19:28:57 2020

@<TRIPOS>MOLECULE
6hxh_10_ADP
   42    44     1     0     1
SMALL
NO_CHARGES


@<TRIPOS>ATOM
      1 PB         15.4080  153.5600   13.5340 P.3       1 ADP1205     0.0000 
      2 O1B        15.5440  152.2670   14.2660 O.co2     1 ADP1205     0.0000 
      3 O2B        14.8170  154.6780   14.3570 O.co2     1 ADP1205     0.0000 
      4 O3B        14.5830  153.3840   12.2820 O.co2     1 ADP1205     0.0000 
      5 PA         18.1520  153.2660   12.6900 P.3       1 ADP1205     0.0000 
      6 O1A        19.3940  153.6590   13.3750 O.co2     1 ADP1205     0.0000 
      7 O2A        18.0070  151.7530   12.7950 O.co2     1 ADP1205     0.0000 
      8 O3A        16.8690  154.0730   13.1750 O.3       1 ADP1205     0.0000 
      9 O5'        18.0030  153.8010   11.2020 O.3       1 ADP1205     0.0000 
     10 C5'        17.0380  153.2910   10.2590 C.3       1 ADP1205     0.0000 
     11 C4'        17.7870  152.7540    9.0680 C.3       1 ADP1205     0.0000 
     12 O4'        18.6770  153.7750    8.5810 O.3       1 ADP1205     0.0000 
     13 C3'        18.6910  151.5640    9.3560 C.3       1 ADP1205     0.0000 
     14 O3'        17.9690  150.3410    9.2560 O.3       1 ADP1205     0.0000 
     15 C2'        19.7410  151.6660    8.2500 C.3       1 ADP1205     0.0000 
     16 O2'        19.3150  150.9980    7.0720 O.3       1 ADP1205     0.0000 
     17 C1'        19.8150  153.1750    7.9900 C.3       1 ADP1205     0.0000 
     18 N9         21.0220  153.8150    8.5080 N.pl3     1 ADP1205     0.0000 
     19 C8         21.1630  154.6080    9.6170 C.2       1 ADP1205     0.0000 
     20 N7         22.3960  154.9870    9.8490 N.2       1 ADP1205     0.0000 
     21 C5         23.1180  154.4080    8.8150 C.ar      1 ADP1205     0.0000 
     22 C6         24.4960  154.3840    8.5130 C.ar      1 ADP1205     0.0000 
     23 N6         25.4200  155.0890    9.1710 N.pl3     1 ADP1205     0.0000 
     24 N1         24.8900  153.6510    7.4500 N.ar      1 ADP1205     0.0000 
     25 C2         23.9610  153.0220    6.7230 C.ar      1 ADP1205     0.0000 
     26 N3         22.6400  152.9820    6.9040 N.ar      1 ADP1205     0.0000 
     27 C4         22.2810  153.6900    7.9780 C.ar      1 ADP1205     0.0000 
     28 HOB2       14.3580  154.4980   15.2190 H         1 ADP1205     0.0000 
     29 HOB3       13.5930  153.3140   12.2340 H         1 ADP1205     0.0000 
     30 HOA2       17.3700  151.2470   13.3640 H         1 ADP1205     0.0000 
     31 H5'1       16.3440  154.0830    9.9830 H         1 ADP1205     0.0000 
     32 H5'2       16.4860  152.5200   10.7960 H         1 ADP1205     0.0000 
     33 H4'        17.1030  152.5780    8.2390 H         1 ADP1205     0.0000 
     34 H3'        19.1380  151.6360   10.3450 H         1 ADP1205     0.0000 
     35 HO3'       17.4970  150.2240   10.1220 H         1 ADP1205     0.0000 
     36 H2'        20.6950  151.2630    8.5880 H         1 ADP1205     0.0000 
     37 HO2'       19.0080  150.1040    7.3750 H         1 ADP1205     0.0000 
     38 H1'        19.7810  153.3910    6.9230 H         1 ADP1205     0.0000 
     39 H8         20.3300  154.9060   10.2530 H         1 ADP1205     0.0000 
     40 HN61       25.1640  155.6970    9.9420 H         1 ADP1205     0.0000 
     41 HN62       26.3950  155.0170    8.8980 H         1 ADP1205     0.0000 
     42 H2         24.3450  152.5080    5.8450 H         1 ADP1205     0.0000 
@<TRIPOS>BOND
     1    1    2 ar   
     2    1    3 ar   
     3    1    4 ar   
     4    1    8 1    
     5    3   28 1    
     6    4   29 1    
     7    5    6 ar   
     8    5    7 ar   
     9    5    8 1    
    10    5    9 1    
    11    7   30 1    
    12    9   10 1    
    13   10   11 1    
    14   10   31 1    
    15   10   32 1    
    16   11   12 1    
    17   11   13 1    
    18   11   33 1    
    19   12   17 1    
    20   13   14 1    
    21   13   15 1    
    22   13   34 1    
    23   14   35 1    
    24   15   16 1    
    25   15   17 1    
    26   15   36 1    
    27   16   37 1    
    28   17   18 1    
    29   17   38 1    
    30   18   19 1    
    31   18   27 1    
    32   19   20 2    
    33   19   39 1    
    34   20   21 1    
    35   21   22 ar   
    36   21   27 ar   
    37   22   23 1    
    38   22   24 ar   
    39   23   40 1    
    40   23   41 1    
    41   24   25 ar   
    42   25   26 ar   
    43   25   42 1    
    44   26   27 ar   
@<TRIPOS>SUBSTRUCTURE
     1 ADP1205     1 GROUP   
@<TRIPOS>SET
ATOM$ORANGE STATIC     ATOMS   COLORGROUP SYSTEM 
20 10 10 11 11 13 13 15 15 17 17 19 19 21 21 22 22 25 \
25 27 27 

