#    Name: 6l5s_1_G50
#    Modification time : Fri May 22 19:32:55 2020

@<TRIPOS>MOLECULE
6l5s_1_G50
   20    21     1     0     0
SMALL
NO_CHARGES


@<TRIPOS>ATOM
      1 C1         46.0980   41.9020   31.6840 C.ar      1 G50502      0.0000 
      2 C2         45.7680   43.0530   30.9930 C.ar      1 G50502      0.0000 
      3 C3         44.6770   43.8010   31.3940 C.ar      1 G50502      0.0000 
      4 C4         43.9120   43.4120   32.4820 C.ar      1 G50502      0.0000 
      5 C5         44.2390   42.2540   33.1900 C.ar      1 G50502      0.0000 
      6 C6         45.3350   41.5040   32.7720 C.ar      1 G50502      0.0000 
      7 C7         43.4680   41.7200   34.4110 C.2       1 G50502      0.0000 
      8 C8         42.4640   42.5220   35.2490 C.3       1 G50502      0.0000 
      9 C9         42.9560   43.8860   35.7190 C.3       1 G50502      0.0000 
     10 O1         45.6840   40.3360   33.4650 O.3       1 G50502      0.0000 
     11 O2         43.6610   40.5930   34.7330 O.2       1 G50502      0.0000 
     12 C10        44.0390   43.8250   36.7910 C.ar      1 G50502      0.0000 
     13 C11        45.3730   43.7970   36.4180 C.ar      1 G50502      0.0000 
     14 C12        46.3610   43.7600   37.3890 C.ar      1 G50502      0.0000 
     15 C13        46.0110   43.7640   38.7310 C.ar      1 G50502      0.0000 
     16 C14        44.6750   43.7980   39.1050 C.ar      1 G50502      0.0000 
     17 C15        43.6860   43.8340   38.1340 C.ar      1 G50502      0.0000 
     18 O3         47.0100   43.7270   39.7100 O.3       1 G50502      0.0000 
     19 O4         46.5260   43.4670   29.8870 O.3       1 G50502      0.0000 
     20 O5         42.8270   44.2290   32.8150 O.3       1 G50502      0.0000 
@<TRIPOS>BOND
     1    1    2 ar   
     2    1    6 ar   
     3    2    3 ar   
     4    2   19 1    
     5    3    4 ar   
     6    4    5 ar   
     7    4   20 1    
     8    5    6 ar   
     9    5    7 1    
    10    6   10 1    
    11    7    8 1    
    12    7   11 2    
    13    8    9 1    
    14    9   12 1    
    15   12   13 ar   
    16   12   17 ar   
    17   13   14 ar   
    18   14   15 ar   
    19   15   16 ar   
    20   15   18 1    
    21   16   17 ar   
@<TRIPOS>SUBSTRUCTURE
     1 G50502      1 GROUP   
@<TRIPOS>SET

