#    Name: 6l5s_1_G50_CAVITY_N1_12
#    Modification time : Fri May 22 19:32:56 2020

@<TRIPOS>MOLECULE
6l5s_1_G50_CAVITY_N1_12
   90     0     7     0     0
SMALL
NO_CHARGES


@<TRIPOS>ATOM
      1 OG         43.4700   48.6200   32.7400 O.3       1 SER1        0.0000 
      2 OG         42.9000   47.5200   33.5900 O.3       1 SER1        0.0000 
      3 OG         45.3300   48.9700   31.7900 O.3       1 SER1        0.0000 
      4 OG         44.7600   47.8700   32.6300 O.3       1 SER1        0.0000 
      5 OG         44.1900   46.7600   33.4800 O.3       1 SER1        0.0000 
      6 OG         46.0600   47.1100   32.5200 O.3       1 SER1        0.0000 
      7 OG         45.4900   46.0100   33.3700 O.3       1 SER1        0.0000 
      8 OG         45.9900   46.7000   34.6000 O.3       1 SER1        0.0000 
      9 O          43.3400   42.4400   32.5900 O.2       2 ALA2        0.0000 
     10 N          41.6700   48.6800   31.6200 N.am      2 ALA2        0.0000 
     11 OD1        46.3400   44.9900   29.9400 O.co2     3 ASP3        0.0000 
     12 OD1        47.4100   46.7700   30.3300 O.co2     3 ASP3        0.0000 
     13 NZ         43.1900   45.3900   31.0100 N.4       4 LYS4        0.0000 
     14 NZ         44.4800   44.6400   30.9000 N.4       4 LYS4        0.0000 
     15 NZ         43.9100   43.5400   31.7400 N.4       4 LYS4        0.0000 
     16 NZ         43.5300   49.0300   30.6600 N.4       4 LYS4        0.0000 
     17 NZ         42.9700   47.9300   31.5100 N.4       4 LYS4        0.0000 
     18 NZ         42.4000   46.8300   32.3500 N.4       4 LYS4        0.0000 
     19 NZ         44.8300   48.2800   30.5500 N.4       4 LYS4        0.0000 
     20 NZ         43.6900   46.0800   32.2400 N.4       4 LYS4        0.0000 
     21 NZ         43.1200   44.9800   33.0900 N.4       4 LYS4        0.0000 
     22 NZ         42.5500   43.8800   33.9300 N.4       4 LYS4        0.0000 
     23 NZ         46.1200   47.5300   30.4400 N.4       4 LYS4        0.0000 
     24 CZ         47.0600   43.1300   30.6800 C.ar      5 PHE5        0.0000 
     25 CZ         46.5000   42.0300   31.5200 C.ar      5 PHE5        0.0000 
     26 CZ         45.9300   40.9300   32.3700 C.ar      5 PHE5        0.0000 
     27 CZ         46.2800   44.5700   32.0200 C.ar      5 PHE5        0.0000 
     28 CZ         45.7100   43.4700   32.8700 C.ar      5 PHE5        0.0000 
     29 CZ         45.1400   42.3700   33.7100 C.ar      5 PHE5        0.0000 
     30 CZ         44.5700   41.2700   34.5600 C.ar      5 PHE5        0.0000 
     31 CZ         44.0000   40.1700   35.4000 C.ar      5 PHE5        0.0000 
     32 CZ         48.1400   44.9200   31.0700 C.ar      5 PHE5        0.0000 
     33 CZ         47.5700   43.8200   31.9100 C.ar      5 PHE5        0.0000 
     34 CZ         45.8600   40.5200   34.4500 C.ar      5 PHE5        0.0000 
     35 CZ         45.2900   39.4200   35.2900 C.ar      5 PHE5        0.0000 
     36 CZ         41.2000   44.2100   36.1200 C.ar      5 PHE5        0.0000 
     37 CZ         41.9200   42.3600   36.8600 C.ar      5 PHE5        0.0000 
     38 CZ         43.7800   42.7100   35.9000 C.ar      5 PHE5        0.0000 
     39 CZ         47.9200   47.4600   31.5700 C.ar      5 PHE5        0.0000 
     40 CZ         47.3500   46.3600   32.4100 C.ar      5 PHE5        0.0000 
     41 CZ         46.7800   45.2600   33.2600 C.ar      5 PHE5        0.0000 
     42 CZ         46.2100   44.1600   34.1000 C.ar      5 PHE5        0.0000 
     43 CZ         45.6400   43.0600   34.9500 C.ar      5 PHE5        0.0000 
     44 CZ         45.0700   41.9600   35.7900 C.ar      5 PHE5        0.0000 
     45 CZ         48.6400   45.6100   32.3000 C.ar      5 PHE5        0.0000 
     46 CZ         42.4200   43.0500   38.0900 C.ar      5 PHE5        0.0000 
     47 CZ         44.2900   43.4000   37.1400 C.ar      5 PHE5        0.0000 
     48 CZ         47.2900   45.9500   34.4900 C.ar      5 PHE5        0.0000 
     49 CZ         46.7200   44.8500   35.3400 C.ar      5 PHE5        0.0000 
     50 CZ         46.1500   43.7400   36.1800 C.ar      5 PHE5        0.0000 
     51 CZ         45.5800   42.6400   37.0300 C.ar      5 PHE5        0.0000 
     52 CZ         42.9300   43.7300   39.3300 C.ar      5 PHE5        0.0000 
     53 CZ         44.2200   42.9800   39.2200 C.ar      5 PHE5        0.0000 
     54 CZ         46.0800   43.3300   38.2600 C.ar      5 PHE5        0.0000 
     55 CA         42.7700   41.3400   33.4400 C.3       6 GLY6        0.0000 
     56 CA         45.2000   42.7800   31.6300 C.3       6 GLY6        0.0000 
     57 CA         44.6300   41.6800   32.4800 C.3       6 GLY6        0.0000 
     58 CA         44.0700   40.5800   33.3300 C.3       6 GLY6        0.0000 
     59 CA         43.5000   39.4800   34.1700 C.3       6 GLY6        0.0000 
     60 CA         45.3600   39.8300   33.2200 C.3       6 GLY6        0.0000 
     61 CA         44.7900   38.7300   34.0600 C.3       6 GLY6        0.0000 
     62 CA         41.2600   44.6300   34.0400 C.3       6 GLY6        0.0000 
     63 CA         41.9800   42.7700   34.7800 C.3       6 GLY6        0.0000 
     64 CA         43.2800   42.0200   34.6700 C.3       6 GLY6        0.0000 
     65 CA         42.7100   40.9200   35.5100 C.3       6 GLY6        0.0000 
     66 CA         42.3300   46.4200   34.4300 C.3       6 GLY6        0.0000 
     67 CA         41.7600   45.3100   35.2800 C.3       6 GLY6        0.0000 
     68 CA         43.6300   45.6600   34.3200 C.3       6 GLY6        0.0000 
     69 CA         43.0600   44.5600   35.1700 C.3       6 GLY6        0.0000 
     70 CA         42.4900   43.4600   36.0100 C.3       6 GLY6        0.0000 
     71 CA         42.9900   44.1500   37.2500 C.3       6 GLY6        0.0000 
     72 CA         45.4200   45.6000   35.4500 C.3       6 GLY6        0.0000 
     73 CA         44.8600   44.5000   36.2900 C.3       6 GLY6        0.0000 
     74 CA         43.5000   44.8300   38.4800 C.3       6 GLY6        0.0000 
     75 CA         45.9300   46.2800   36.6800 C.3       6 GLY6        0.0000 
     76 CA         45.3600   45.1800   37.5300 C.3       6 GLY6        0.0000 
     77 CA         44.7900   44.0800   38.3700 C.3       6 GLY6        0.0000 
     78 CA         47.2200   45.5300   36.5700 C.3       6 GLY6        0.0000 
     79 CA         46.6500   44.4300   37.4200 C.3       6 GLY6        0.0000 
     80 CA         45.3000   44.7700   39.6100 C.3       6 GLY6        0.0000 
     81 CA         46.5900   44.0200   39.5000 C.3       6 GLY6        0.0000 
     82 DU         45.7700   43.8900   30.7900 H         7 CUB7        0.0000 
     83 DU         44.2600   47.1800   31.4000 H         7 CUB7        0.0000 
     84 DU         45.5500   46.4300   31.2900 H         7 CUB7        0.0000 
     85 DU         44.9800   45.3300   32.1300 H         7 CUB7        0.0000 
     86 DU         44.4100   44.2200   32.9800 H         7 CUB7        0.0000 
     87 DU         43.8500   43.1200   33.8200 H         7 CUB7        0.0000 
     88 DU         46.8400   45.6700   31.1800 H         7 CUB7        0.0000 
     89 DU         44.9200   44.9100   34.2100 H         7 CUB7        0.0000 
     90 DU         44.3500   43.8100   35.0600 H         7 CUB7        0.0000 
@<TRIPOS>BOND
@<TRIPOS>SUBSTRUCTURE
     1 SER1        1 GROUP   
     2 ALA2        9 GROUP   
     3 ASP3       11 GROUP   
     4 LYS4       13 GROUP   
     5 PHE5       24 GROUP   
     6 GLY6       55 GROUP   
     7 CUB7       82 GROUP   
@<TRIPOS>SET

