#    Name: 6p5s_1_3NG
#    Modification time : Fri May 22 19:26:29 2020

@<TRIPOS>MOLECULE
6p5s_1_3NG
   25    28     1     0     0
SMALL
NO_CHARGES


@<TRIPOS>ATOM
      1 C1        -34.7400   40.6950  -10.7860 C.ar      1 3NG601      0.0000 
      2 C2        -34.9960   41.9170  -10.1700 C.ar      1 3NG601      0.0000 
      3 C3        -36.2350   42.1320   -9.4930 C.ar      1 3NG601      0.0000 
      4 C4        -37.1980   41.1450   -9.4500 C.ar      1 3NG601      0.0000 
      5 C5        -36.9370   39.8910  -10.0910 C.ar      1 3NG601      0.0000 
      6 C6        -35.7230   39.6830  -10.7500 C.ar      1 3NG601      0.0000 
      7 C7        -32.8150   42.7360  -10.8500 C.ar      1 3NG601      0.0000 
      8 C8        -33.9960   42.9450  -10.2030 C.ar      1 3NG601      0.0000 
      9 N9        -33.5290   40.4890  -11.4430 N.ar      1 3NG601      0.0000 
     10 C10       -32.5560   41.4960  -11.4780 C.ar      1 3NG601      0.0000 
     11 C11       -32.0980   44.9500  -10.2730 C.ar      1 3NG601      0.0000 
     12 N12       -33.2820   45.1480   -9.6350 N.ar      1 3NG601      0.0000 
     13 C13       -34.2370   44.1720   -9.5770 C.ar      1 3NG601      0.0000 
     14 C14       -31.8430   43.7270  -10.9040 C.ar      1 3NG601      0.0000 
     15 N15       -31.3570   41.0800  -12.2190 N.pl3     1 3NG601      0.0000 
     16 C16       -31.1080   39.7980  -12.8840 C.ar      1 3NG601      0.0000 
     17 C17       -32.0850   39.0880  -13.5810 C.ar      1 3NG601      0.0000 
     18 C18       -31.7680   37.8830  -14.2010 C.ar      1 3NG601      0.0000 
     19 C19       -30.4750   37.3930  -14.1240 C.ar      1 3NG601      0.0000 
     20 C20       -29.5110   38.0950  -13.4510 C.ar      1 3NG601      0.0000 
     21 C21       -29.8270   39.3030  -12.8350 C.ar      1 3NG601      0.0000 
     22 CL22      -33.0070   36.9600  -15.0870 Cl        1 3NG601      0.0000 
     23 C23       -38.0410   38.8880   -9.9620 C.2       1 3NG601      0.0000 
     24 O24       -38.0190   37.8210  -10.6520 O.co2     1 3NG601      0.0000 
     25 O25       -38.9790   39.0620   -9.1250 O.co2     1 3NG601      0.0000 
@<TRIPOS>BOND
     1    1    2 ar   
     2    1    6 ar   
     3    1    9 ar   
     4    2    3 ar   
     5    2    8 ar   
     6    3    4 ar   
     7    4    5 ar   
     8    5    6 ar   
     9    5   23 1    
    10    7    8 ar   
    11    7   10 ar   
    12    7   14 ar   
    13    8   13 ar   
    14    9   10 ar   
    15   10   15 1    
    16   11   12 ar   
    17   11   14 ar   
    18   12   13 ar   
    19   15   16 1    
    20   16   17 ar   
    21   16   21 ar   
    22   17   18 ar   
    23   18   19 ar   
    24   18   22 1    
    25   19   20 ar   
    26   20   21 ar   
    27   23   24 ar   
    28   23   25 ar   
@<TRIPOS>SUBSTRUCTURE
     1 3NG601      1 GROUP   
@<TRIPOS>SET

