#    Name: 6jcz_10_NDP
#    Modification time : Fri May 22 19:32:56 2020

@<TRIPOS>MOLECULE
6jcz_10_NDP
   74    78     1     0     1
SMALL
NO_CHARGES


@<TRIPOS>ATOM
      1 PA        175.7410  205.4410  143.3540 P.3       1 NDP402      0.0000 
      2 O1A       175.0680  206.3370  144.3330 O.co2     1 NDP402      0.0000 
      3 O2A       175.0100  204.2900  142.7280 O.co2     1 NDP402      0.0000 
      4 O5B       176.4510  206.3850  142.2060 O.3       1 NDP402      0.0000 
      5 C5B       177.3420  205.5450  141.5360 C.3       1 NDP402      0.0000 
      6 C4B       178.7640  205.9690  141.8660 C.3       1 NDP402      0.0000 
      7 O4B       179.6500  204.9080  141.5910 O.3       1 NDP402      0.0000 
      8 C3B       179.1380  207.1750  141.0030 C.3       1 NDP402      0.0000 
      9 O3B       180.0970  207.9350  141.6540 O.3       1 NDP402      0.0000 
     10 C2B       179.7880  206.5300  139.7780 C.3       1 NDP402      0.0000 
     11 O2B       180.7900  207.2370  139.2680 O.3       1 NDP402      0.0000 
     12 C1B       180.3510  205.2020  140.3840 C.3       1 NDP402      0.0000 
     13 N9A       180.1270  204.0820  139.4900 N.pl3     1 NDP402      0.0000 
     14 C8A       178.9390  203.3690  139.2830 C.2       1 NDP402      0.0000 
     15 N7A       179.0660  202.3740  138.3860 N.2       1 NDP402      0.0000 
     16 C5A       180.4120  202.4520  137.9960 C.ar      1 NDP402      0.0000 
     17 C6A       181.1660  201.7000  137.0940 C.ar      1 NDP402      0.0000 
     18 N6A       180.5710  200.6730  136.4160 N.pl3     1 NDP402      0.0000 
     19 N1A       182.4860  201.9570  136.8670 N.ar      1 NDP402      0.0000 
     20 C2A       183.0000  203.0050  137.5920 C.ar      1 NDP402      0.0000 
     21 N3A       182.4180  203.8180  138.4880 N.ar      1 NDP402      0.0000 
     22 C4A       181.0870  203.5110  138.6760 C.ar      1 NDP402      0.0000 
     23 O3        176.9030  204.8030  144.3140 O.3       1 NDP402      0.0000 
     24 PN        176.2250  203.7180  145.2490 P.3       1 NDP402      0.0000 
     25 O1N       175.2760  204.4040  146.1500 O.co2     1 NDP402      0.0000 
     26 O2N       175.8830  202.4330  144.5280 O.co2     1 NDP402      0.0000 
     27 O5D       177.5120  203.1430  146.3430 O.3       1 NDP402      0.0000 
     28 C5D       177.2000  203.4790  147.6440 C.3       1 NDP402      0.0000 
     29 C4D       178.3590  203.0830  148.5340 C.3       1 NDP402      0.0000 
     30 O4D       178.0380  203.4530  149.8800 O.3       1 NDP402      0.0000 
     31 C3D       178.5320  201.5390  148.5140 C.3       1 NDP402      0.0000 
     32 O3D       179.8700  201.2440  148.7500 O.3       1 NDP402      0.0000 
     33 C2D       177.6650  201.0890  149.6670 C.3       1 NDP402      0.0000 
     34 O2D       178.1560  199.9620  150.2970 O.3       1 NDP402      0.0000 
     35 C1D       177.8040  202.3020  150.6620 C.3       1 NDP402      0.0000 
     36 N1N       176.5720  202.5140  151.4640 N.pl3     1 NDP402      0.0000 
     37 C2N       175.3510  202.7630  150.8710 C.2       1 NDP402      0.0000 
     38 C3N       174.2050  202.5390  151.5630 C.2       1 NDP402      0.0000 
     39 C7N       172.9550  202.8120  150.8710 C.2       1 NDP402      0.0000 
     40 O7N       172.2150  203.7750  151.1060 O.2       1 NDP402      0.0000 
     41 N7N       172.5840  201.9090  149.8880 N.am      1 NDP402      0.0000 
     42 C4N       174.2260  202.0370  152.9600 C.3       1 NDP402      0.0000 
     43 C5N       175.5500  202.2440  153.5920 C.2       1 NDP402      0.0000 
     44 C6N       176.6450  202.4690  152.8610 C.2       1 NDP402      0.0000 
     45 P2B       180.1810  208.7730  138.4930 P.3       1 NDP402      0.0000 
     46 O1X       180.2980  209.6370  139.7100 O.co2     1 NDP402      0.0000 
     47 O2X       178.7700  208.3970  138.0290 O.co2     1 NDP402      0.0000 
     48 O3X       181.2360  208.9240  137.4350 O.co2     1 NDP402      0.0000 
     49 H51A      177.1950  204.6200  141.7340 H         1 NDP402      0.0000 
     50 H52A      177.2010  205.6370  140.5870 H         1 NDP402      0.0000 
     51 H4B       178.8320  206.1650  142.8080 H         1 NDP402      0.0000 
     52 H3B       178.3770  207.6930  140.7250 H         1 NDP402      0.0000 
     53 HO3A      180.8390  207.7040  141.3140 H         1 NDP402      0.0000 
     54 H2B       179.0860  206.2870  139.1750 H         1 NDP402      0.0000 
     55 H1B       181.2940  205.2600  140.5400 H         1 NDP402      0.0000 
     56 H8A       178.1600  203.5870  139.7350 H         1 NDP402      0.0000 
     57 H61A      181.0560  200.0690  136.0580 H         1 NDP402      0.0000 
     58 H62A      179.7170  200.6440  136.3650 H         1 NDP402      0.0000 
     59 H2A       183.8970  203.1660  137.4260 H         1 NDP402      0.0000 
     60 H51N      177.1040  204.4360  147.7320 H         1 NDP402      0.0000 
     61 H52N      176.3620  203.1060  147.9510 H         1 NDP402      0.0000 
     62 H4D       179.1540  203.5430  148.2390 H         1 NDP402      0.0000 
     63 H3D       178.2090  201.1700  147.6900 H         1 NDP402      0.0000 
     64 HO3N      180.3040  201.6360  148.1370 H         1 NDP402      0.0000 
     65 H2D       176.7650  200.9610  149.3810 H         1 NDP402      0.0000 
     66 HO2N      177.9380  199.3130  149.7980 H         1 NDP402      0.0000 
     67 H1D       178.5420  202.1880  151.2710 H         1 NDP402      0.0000 
     68 H2N       175.3410  203.0740  149.9960 H         1 NDP402      0.0000 
     69 H71N      171.8560  202.0270  149.4560 H         1 NDP402      0.0000 
     70 H72N      173.0650  201.2300  149.6950 H         1 NDP402      0.0000 
     71 H41N      173.5530  202.4810  153.4900 H         1 NDP402      0.0000 
     72 H42N      174.0030  201.0970  152.9730 H         1 NDP402      0.0000 
     73 H5N       175.6140  202.2160  154.5170 H         1 NDP402      0.0000 
     74 H6N       177.4830  202.6010  153.2390 H         1 NDP402      0.0000 
@<TRIPOS>BOND
     1    1    2 ar   
     2    1    3 ar   
     3    1    4 1    
     4    1   23 1    
     5    4    5 1    
     6    5    6 1    
     7    5   49 1    
     8    5   50 1    
     9    6    7 1    
    10    6    8 1    
    11    6   51 1    
    12    7   12 1    
    13    8    9 1    
    14    8   10 1    
    15    8   52 1    
    16    9   53 1    
    17   10   11 1    
    18   10   12 1    
    19   10   54 1    
    20   11   45 1    
    21   12   13 1    
    22   12   55 1    
    23   13   14 1    
    24   13   22 1    
    25   14   15 2    
    26   15   16 1    
    27   14   56 1    
    28   16   17 ar   
    29   16   22 ar   
    30   17   18 1    
    31   17   19 ar   
    32   19   20 ar   
    33   18   57 1    
    34   18   58 1    
    35   20   21 ar   
    36   21   22 ar   
    37   20   59 1    
    38   23   24 1    
    39   24   25 ar   
    40   24   26 ar   
    41   24   27 1    
    42   27   28 1    
    43   28   29 1    
    44   28   60 1    
    45   28   61 1    
    46   29   30 1    
    47   29   31 1    
    48   29   62 1    
    49   30   35 1    
    50   31   32 1    
    51   31   33 1    
    52   31   63 1    
    53   32   64 1    
    54   34   66 1    
    55   33   34 1    
    56   33   35 1    
    57   33   65 1    
    58   35   36 1    
    59   35   67 1    
    60   36   37 1    
    61   36   44 1    
    62   37   38 2    
    63   38   39 1    
    64   37   68 1    
    65   38   42 1    
    66   39   40 2    
    67   39   41 am   
    68   42   43 1    
    69   41   69 1    
    70   41   70 1    
    71   42   71 1    
    72   42   72 1    
    73   43   44 2    
    74   45   46 ar   
    75   43   73 1    
    76   44   74 1    
    77   45   47 ar   
    78   45   48 ar   
@<TRIPOS>SUBSTRUCTURE
     1 NDP402      1 GROUP   
@<TRIPOS>SET
ATOM$ORANGE STATIC     ATOMS   COLORGROUP SYSTEM 
42 5 5 6 6 8 8 10 10 12 12 14 14 16 16 17 17 20 \
20 22 22 28 28 29 29 31 31 33 33 35 35 37 37 38 38 39 \
39 42 42 43 43 44 44 

