#    Name: 6jcz_11_NDP
#    Modification time : Fri May 22 19:33:05 2020

@<TRIPOS>MOLECULE
6jcz_11_NDP
   74    78     1     0     1
SMALL
NO_CHARGES


@<TRIPOS>ATOM
      1 PA        140.8890  205.3810  173.1770 P.3       1 NDP403      0.0000 
      2 O1A       141.6660  206.2650  172.2660 O.co2     1 NDP403      0.0000 
      3 O2A       141.5360  204.2360  173.8990 O.co2     1 NDP403      0.0000 
      4 O5B       140.0710  206.3190  174.2470 O.3       1 NDP403      0.0000 
      5 C5B       139.1700  205.4510  174.8620 C.3       1 NDP403      0.0000 
      6 C4B       137.7870  206.1000  174.8410 C.3       1 NDP403      0.0000 
      7 O4B       136.7970  205.1840  175.3040 O.3       1 NDP403      0.0000 
      8 C3B       137.7900  207.3240  175.7530 C.3       1 NDP403      0.0000 
      9 O3B       136.7960  208.1840  175.3250 O.3       1 NDP403      0.0000 
     10 C2B       137.4380  206.6600  177.1130 C.3       1 NDP403      0.0000 
     11 O2B       136.9820  207.5040  178.0990 O.3       1 NDP403      0.0000 
     12 C1B       136.4200  205.5520  176.6330 C.3       1 NDP403      0.0000 
     13 N9A       136.5310  204.3390  177.4190 N.pl3     1 NDP403      0.0000 
     14 C8A       137.6560  203.5160  177.5620 C.2       1 NDP403      0.0000 
     15 N7A       137.4420  202.4510  178.3540 N.2       1 NDP403      0.0000 
     16 C5A       136.1010  202.5910  178.7400 C.ar      1 NDP403      0.0000 
     17 C6A       135.2830  201.8090  179.5560 C.ar      1 NDP403      0.0000 
     18 N6A       135.7950  200.6780  180.1310 N.pl3     1 NDP403      0.0000 
     19 N1A       133.9820  202.1390  179.8010 N.ar      1 NDP403      0.0000 
     20 C2A       133.5560  203.2910  179.1800 C.ar      1 NDP403      0.0000 
     21 N3A       134.2080  204.1460  178.3740 N.ar      1 NDP403      0.0000 
     22 C4A       135.5150  203.7620  178.1640 C.ar      1 NDP403      0.0000 
     23 O3        139.8220  204.7480  172.1080 O.3       1 NDP403      0.0000 
     24 PN        140.5840  203.6890  171.2140 P.3       1 NDP403      0.0000 
     25 O1N       141.4350  204.4280  170.2590 O.co2     1 NDP403      0.0000 
     26 O2N       141.0670  202.4760  171.9780 O.co2     1 NDP403      0.0000 
     27 O5D       139.3350  202.9360  170.1930 O.3       1 NDP403      0.0000 
     28 C5D       139.4830  203.3630  168.8960 C.3       1 NDP403      0.0000 
     29 C4D       138.3160  202.8460  168.0790 C.3       1 NDP403      0.0000 
     30 O4D       138.5440  203.2020  166.7110 O.3       1 NDP403      0.0000 
     31 C3D       138.2730  201.2890  168.1200 C.3       1 NDP403      0.0000 
     32 O3D       136.9970  200.8730  167.7680 O.3       1 NDP403      0.0000 
     33 C2D       139.2790  200.9370  167.0570 C.3       1 NDP403      0.0000 
     34 O2D       139.0610  199.6980  166.4730 O.3       1 NDP403      0.0000 
     35 C1D       138.9610  202.0600  165.9870 C.3       1 NDP403      0.0000 
     36 N1N       140.1360  202.4270  165.1510 N.pl3     1 NDP403      0.0000 
     37 C2N       141.3660  202.7360  165.6950 C.2       1 NDP403      0.0000 
     38 C3N       142.4840  202.6470  164.9330 C.2       1 NDP403      0.0000 
     39 C7N       143.7430  202.9730  165.5850 C.2       1 NDP403      0.0000 
     40 O7N       144.4570  203.9420  165.2960 O.2       1 NDP403      0.0000 
     41 N7N       144.1560  202.1160  166.5940 N.am      1 NDP403      0.0000 
     42 C4N       142.4230  202.2360  163.5060 C.3       1 NDP403      0.0000 
     43 C5N       141.0530  202.3770  162.9610 C.2       1 NDP403      0.0000 
     44 C6N       139.9890  202.4660  163.7610 C.2       1 NDP403      0.0000 
     45 P2B       135.4420  208.5670  177.9390 P.3       1 NDP403      0.0000 
     46 O1X       135.8660  209.3590  176.7430 O.co2     1 NDP403      0.0000 
     47 O2X       135.4140  209.3060  179.2800 O.co2     1 NDP403      0.0000 
     48 O3X       134.4070  207.4990  177.7290 O.co2     1 NDP403      0.0000 
     49 H51A      139.1600  204.5820  174.4590 H         1 NDP403      0.0000 
     50 H52A      139.4520  205.3080  175.7690 H         1 NDP403      0.0000 
     51 H4B       137.5560  206.3300  173.9320 H         1 NDP403      0.0000 
     52 H3B       138.6520  207.7500  175.8140 H         1 NDP403      0.0000 
     53 HO3A      136.1530  207.6860  175.0820 H         1 NDP403      0.0000 
     54 H2B       138.2180  206.1680  177.3680 H         1 NDP403      0.0000 
     55 H1B       135.5200  205.8400  176.6630 H         1 NDP403      0.0000 
     56 H8A       138.4570  203.7170  177.1410 H         1 NDP403      0.0000 
     57 H61A      135.3090  200.2170  180.6580 H         1 NDP403      0.0000 
     58 H62A      136.5990  200.4430  179.9510 H         1 NDP403      0.0000 
     59 H2A       132.6700  203.5000  179.3580 H         1 NDP403      0.0000 
     60 H51N      139.4440  204.3280  168.8520 H         1 NDP403      0.0000 
     61 H52N      140.3310  203.1230  168.5020 H         1 NDP403      0.0000 
     62 H4D       137.4990  203.2440  168.4010 H         1 NDP403      0.0000 
     63 H3D       138.5530  200.9540  168.9720 H         1 NDP403      0.0000 
     64 HO3N      136.4660  201.3070  168.2690 H         1 NDP403      0.0000 
     65 H2D       140.1600  201.0070  167.4040 H         1 NDP403      0.0000 
     66 HO2N      139.7530  199.2370  166.6510 H         1 NDP403      0.0000 
     67 H1D       138.2470  201.7980  165.3970 H         1 NDP403      0.0000 
     68 H2N       141.4030  202.9870  166.5870 H         1 NDP403      0.0000 
     69 H71N      144.8920  202.2650  167.0060 H         1 NDP403      0.0000 
     70 H72N      143.6940  201.4350  166.8250 H         1 NDP403      0.0000 
     71 H41N      143.0290  202.7650  162.9750 H         1 NDP403      0.0000 
     72 H42N      142.7150  201.3220  163.4150 H         1 NDP403      0.0000 
     73 H5N       140.9370  202.4030  162.0410 H         1 NDP403      0.0000 
     74 H6N       139.1240  202.5540  163.4370 H         1 NDP403      0.0000 
@<TRIPOS>BOND
     1    1    2 ar   
     2    1    3 ar   
     3    1    4 1    
     4    1   23 1    
     5    4    5 1    
     6    5    6 1    
     7    5   49 1    
     8    5   50 1    
     9    6    7 1    
    10    6    8 1    
    11    6   51 1    
    12    7   12 1    
    13    8    9 1    
    14    8   10 1    
    15    8   52 1    
    16    9   53 1    
    17   10   11 1    
    18   10   12 1    
    19   10   54 1    
    20   11   45 1    
    21   12   13 1    
    22   13   14 1    
    23   12   55 1    
    24   13   22 1    
    25   14   15 2    
    26   15   16 1    
    27   14   56 1    
    28   16   17 ar   
    29   16   22 ar   
    30   17   18 1    
    31   17   19 ar   
    32   19   20 ar   
    33   18   57 1    
    34   18   58 1    
    35   20   21 ar   
    36   21   22 ar   
    37   20   59 1    
    38   23   24 1    
    39   24   25 ar   
    40   24   26 ar   
    41   24   27 1    
    42   27   28 1    
    43   28   29 1    
    44   28   60 1    
    45   28   61 1    
    46   29   30 1    
    47   29   31 1    
    48   29   62 1    
    49   30   35 1    
    50   31   32 1    
    51   31   33 1    
    52   31   63 1    
    53   32   64 1    
    54   34   66 1    
    55   33   34 1    
    56   33   35 1    
    57   35   36 1    
    58   33   65 1    
    59   35   67 1    
    60   36   37 1    
    61   36   44 1    
    62   37   38 2    
    63   38   39 1    
    64   37   68 1    
    65   38   42 1    
    66   39   40 2    
    67   39   41 am   
    68   42   43 1    
    69   41   69 1    
    70   41   70 1    
    71   42   71 1    
    72   42   72 1    
    73   43   44 2    
    74   45   46 ar   
    75   43   73 1    
    76   44   74 1    
    77   45   47 ar   
    78   45   48 ar   
@<TRIPOS>SUBSTRUCTURE
     1 NDP403      1 GROUP   
@<TRIPOS>SET
ATOM$ORANGE STATIC     ATOMS   COLORGROUP SYSTEM 
42 5 5 6 6 8 8 10 10 12 12 14 14 16 16 17 17 20 \
20 22 22 28 28 29 29 31 31 33 33 35 35 37 37 38 38 39 \
39 42 42 43 43 44 44 

