#    Name: 6jcz_8_NDP
#    Modification time : Fri May 22 19:32:38 2020

@<TRIPOS>MOLECULE
6jcz_8_NDP
   74    78     1     0     1
SMALL
NO_CHARGES


@<TRIPOS>ATOM
      1 PA        173.2110  175.7640  111.2390 P.3       1 NDP402      0.0000 
      2 O1A       172.3300  174.9760  110.3360 O.co2     1 NDP402      0.0000 
      3 O2A       173.9080  175.1270  112.4060 O.co2     1 NDP402      0.0000 
      4 O5B       174.2980  176.5910  110.3300 O.3       1 NDP402      0.0000 
      5 C5B       174.8810  177.4960  111.2140 C.3       1 NDP402      0.0000 
      6 C4B       174.8720  178.8800  110.5670 C.3       1 NDP402      0.0000 
      7 O4B       175.3280  179.8630  111.4930 O.3       1 NDP402      0.0000 
      8 C3B       175.7980  178.8780  109.3530 C.3       1 NDP402      0.0000 
      9 O3B       175.3830  179.8780  108.4910 O.3       1 NDP402      0.0000 
     10 C2B       177.1500  179.2180  110.0400 C.3       1 NDP402      0.0000 
     11 O2B       178.1570  179.6660  109.2200 O.3       1 NDP402      0.0000 
     12 C1B       176.6600  180.2390  111.1370 C.3       1 NDP402      0.0000 
     13 N9A       177.4400  180.1310  112.3530 N.pl3     1 NDP402      0.0000 
     14 C8A       177.5850  179.0080  113.1770 C.2       1 NDP402      0.0000 
     15 N7A       178.3730  179.2270  114.2440 N.2       1 NDP402      0.0000 
     16 C5A       178.7530  180.5690  114.1020 C.ar      1 NDP402      0.0000 
     17 C6A       179.5630  181.3920  114.8830 C.ar      1 NDP402      0.0000 
     18 N6A       180.1360  180.8850  116.0170 N.pl3     1 NDP402      0.0000 
     19 N1A       179.8030  182.6940  114.5500 N.ar      1 NDP402      0.0000 
     20 C2A       179.1840  183.1150  113.3960 C.ar      1 NDP402      0.0000 
     21 N3A       178.3830  182.4560  112.5410 N.ar      1 NDP402      0.0000 
     22 C4A       178.1780  181.1490  112.9280 C.ar      1 NDP402      0.0000 
     23 O3        172.1170  176.8290  111.8330 O.3       1 NDP402      0.0000 
     24 PN        171.2920  176.1160  112.9770 P.3       1 NDP402      0.0000 
     25 O1N       170.3660  175.1560  112.3420 O.co2     1 NDP402      0.0000 
     26 O2N       172.1030  175.7840  114.2100 O.co2     1 NDP402      0.0000 
     27 O5D       170.2290  177.3770  113.6390 O.3       1 NDP402      0.0000 
     28 C5D       168.9410  177.1550  113.2250 C.3       1 NDP402      0.0000 
     29 C4D       168.0920  178.3440  113.6230 C.3       1 NDP402      0.0000 
     30 O4D       166.7350  178.0680  113.2550 O.3       1 NDP402      0.0000 
     31 C3D       168.1120  178.5190  115.1690 C.3       1 NDP402      0.0000 
     32 O3D       167.8810  179.8580  115.4590 O.3       1 NDP402      0.0000 
     33 C2D       166.9580  177.6560  115.6170 C.3       1 NDP402      0.0000 
     34 O2D       166.3340  178.1490  116.7450 O.3       1 NDP402      0.0000 
     35 C1D       165.9590  177.8000  114.4050 C.3       1 NDP402      0.0000 
     36 N1N       165.1720  176.5610  114.1720 N.pl3     1 NDP402      0.0000 
     37 C2N       165.7760  175.3450  113.9180 C.2       1 NDP402      0.0000 
     38 C3N       165.0870  174.1920  114.1070 C.2       1 NDP402      0.0000 
     39 C7N       165.7950  172.9520  113.8310 C.2       1 NDP402      0.0000 
     40 O7N       165.5830  172.2220  112.8540 O.2       1 NDP402      0.0000 
     41 N7N       166.7650  172.5770  114.7460 N.am      1 NDP402      0.0000 
     42 C4N       163.6790  174.1940  114.5760 C.3       1 NDP402      0.0000 
     43 C5N       163.0460  175.5210  114.3910 C.2       1 NDP402      0.0000 
     44 C6N       163.7740  176.6240  114.2020 C.2       1 NDP402      0.0000 
     45 P2B       178.0120  181.1640  108.1050 P.3       1 NDP402      0.0000 
     46 O1X       176.9020  180.6550  107.2400 O.co2     1 NDP402      0.0000 
     47 O2X       179.4060  181.2310  107.4730 O.co2     1 NDP402      0.0000 
     48 O3X       177.6690  182.2190  109.1170 O.co2     1 NDP402      0.0000 
     49 H51A      174.4530  177.5050  112.0710 H         1 NDP402      0.0000 
     50 H52A      175.7840  177.2190  111.3860 H         1 NDP402      0.0000 
     51 H4B       173.9670  179.1150  110.3280 H         1 NDP402      0.0000 
     52 H3B       175.8600  178.0180  108.9240 H         1 NDP402      0.0000 
     53 HO3A      175.1310  180.5170  108.9890 H         1 NDP402      0.0000 
     54 H2B       177.3880  178.4360  110.5360 H         1 NDP402      0.0000 
     55 H1B       176.6930  181.1380  110.8470 H         1 NDP402      0.0000 
     56 H8A       177.1680  178.2040  112.9760 H         1 NDP402      0.0000 
     57 H61A      180.7460  181.3280  116.4140 H         1 NDP402      0.0000 
     58 H62A      179.8740  180.1260  116.3160 H         1 NDP402      0.0000 
     59 H2A       179.3570  184.0010  113.1850 H         1 NDP402      0.0000 
     60 H51N      168.9020  177.0980  112.2610 H         1 NDP402      0.0000 
     61 H52N      168.5710  176.3260  113.5470 H         1 NDP402      0.0000 
     62 H4D       168.4130  179.1290  113.1630 H         1 NDP402      0.0000 
     63 H3D       168.9320  178.1970  115.5440 H         1 NDP402      0.0000 
     64 HO3N      168.5050  180.2870  115.0760 H         1 NDP402      0.0000 
     65 H2D       167.2400  176.7550  115.7450 H         1 NDP402      0.0000 
     66 HO2N      166.8460  177.9490  117.3910 H         1 NDP402      0.0000 
     67 H1D       165.3400  178.5270  114.5320 H         1 NDP402      0.0000 
     68 H2N       166.6540  175.3440  113.6300 H         1 NDP402      0.0000 
     69 H71N      167.2060  171.8550  114.6260 H         1 NDP402      0.0000 
     70 H72N      166.9420  173.0510  115.4340 H         1 NDP402      0.0000 
     71 H41N      163.1630  173.5320  114.1010 H         1 NDP402      0.0000 
     72 H42N      163.6450  173.9460  115.5050 H         1 NDP402      0.0000 
     73 H5N       162.1210  175.5810  114.4100 H         1 NDP402      0.0000 
     74 H6N       163.3930  177.4630  114.0850 H         1 NDP402      0.0000 
@<TRIPOS>BOND
     1    1    2 ar   
     2    1    3 ar   
     3    1    4 1    
     4    1   23 1    
     5    4    5 1    
     6    5    6 1    
     7    5   49 1    
     8    5   50 1    
     9    6    7 1    
    10    6    8 1    
    11    6   51 1    
    12    7   12 1    
    13    8    9 1    
    14    8   10 1    
    15    8   52 1    
    16    9   53 1    
    17   10   11 1    
    18   10   12 1    
    19   10   54 1    
    20   11   45 1    
    21   12   13 1    
    22   13   14 1    
    23   12   55 1    
    24   13   22 1    
    25   14   15 2    
    26   15   16 1    
    27   14   56 1    
    28   16   17 ar   
    29   16   22 ar   
    30   17   18 1    
    31   17   19 ar   
    32   19   20 ar   
    33   18   57 1    
    34   18   58 1    
    35   20   21 ar   
    36   21   22 ar   
    37   20   59 1    
    38   23   24 1    
    39   24   25 ar   
    40   24   26 ar   
    41   24   27 1    
    42   27   28 1    
    43   28   29 1    
    44   28   60 1    
    45   28   61 1    
    46   29   30 1    
    47   29   31 1    
    48   29   62 1    
    49   30   35 1    
    50   31   32 1    
    51   31   33 1    
    52   31   63 1    
    53   32   64 1    
    54   34   66 1    
    55   33   34 1    
    56   33   35 1    
    57   33   65 1    
    58   35   36 1    
    59   35   67 1    
    60   36   37 1    
    61   36   44 1    
    62   37   38 2    
    63   38   39 1    
    64   37   68 1    
    65   38   42 1    
    66   39   40 2    
    67   39   41 am   
    68   42   43 1    
    69   41   69 1    
    70   41   70 1    
    71   42   71 1    
    72   42   72 1    
    73   43   44 2    
    74   45   46 ar   
    75   43   73 1    
    76   44   74 1    
    77   45   47 ar   
    78   45   48 ar   
@<TRIPOS>SUBSTRUCTURE
     1 NDP402      1 GROUP   
@<TRIPOS>SET
ATOM$ORANGE STATIC     ATOMS   COLORGROUP SYSTEM 
42 5 5 6 6 8 8 10 10 12 12 14 14 16 16 17 17 20 \
20 22 22 28 28 29 29 31 31 33 33 35 35 37 37 38 38 39 \
39 42 42 43 43 44 44 

