#    Name: 6jcz_2_NDP
#    Modification time : Fri May 22 19:31:47 2020

@<TRIPOS>MOLECULE
6jcz_2_NDP
   74    78     1     0     1
SMALL
NO_CHARGES


@<TRIPOS>ATOM
      1 PA        205.4320  173.3240  140.8880 P.3       1 NDP402      0.0000 
      2 O1A       206.3400  172.3630  141.5700 O.co2     1 NDP402      0.0000 
      3 O2A       204.2720  173.9420  141.6140 O.co2     1 NDP402      0.0000 
      4 O5B       206.3610  174.4790  140.1710 O.3       1 NDP402      0.0000 
      5 C5B       205.5140  175.1270  139.2700 C.3       1 NDP402      0.0000 
      6 C4B       205.9550  174.7950  137.8520 C.3       1 NDP402      0.0000 
      7 O4B       204.9250  175.1150  136.9430 O.3       1 NDP402      0.0000 
      8 C3B       207.1960  175.6120  137.5010 C.3       1 NDP402      0.0000 
      9 O3B       207.9120  174.9520  136.5170 O.3       1 NDP402      0.0000 
     10 C2B       206.6060  176.8870  136.8930 C.3       1 NDP402      0.0000 
     11 O2B       207.3480  177.4030  135.9160 O.3       1 NDP402      0.0000 
     12 C1B       205.2580  176.3420  136.2920 C.3       1 NDP402      0.0000 
     13 N9A       204.1460  177.2390  136.5320 N.pl3     1 NDP402      0.0000 
     14 C8A       203.4610  177.4570  137.7330 C.2       1 NDP402      0.0000 
     15 N7A       202.4590  178.3480  137.6200 N.2       1 NDP402      0.0000 
     16 C5A       202.5000  178.7190  136.2670 C.ar      1 NDP402      0.0000 
     17 C6A       201.7250  179.6070  135.5210 C.ar      1 NDP402      0.0000 
     18 N6A       200.7100  180.2880  136.1330 N.pl3     1 NDP402      0.0000 
     19 N1A       201.9460  179.8170  134.1910 N.ar      1 NDP402      0.0000 
     20 C2A       202.9840  179.0890  133.6600 C.ar      1 NDP402      0.0000 
     21 N3A       203.8160  178.2050  134.2330 N.ar      1 NDP402      0.0000 
     22 C4A       203.5450  178.0340  135.5750 C.ar      1 NDP402      0.0000 
     23 O3        204.8050  172.3490  139.7320 O.3       1 NDP402      0.0000 
     24 PN        203.7420  171.3930  140.4160 P.3       1 NDP402      0.0000 
     25 O1N       204.4510  170.5090  141.3630 O.co2     1 NDP402      0.0000 
     26 O2N       202.4440  172.0890  140.7640 O.co2     1 NDP402      0.0000 
     27 O5D       203.1820  170.2810  139.1360 O.3       1 NDP402      0.0000 
     28 C5D       203.4860  168.9830  139.4880 C.3       1 NDP402      0.0000 
     29 C4D       203.0480  168.0620  138.3680 C.3       1 NDP402      0.0000 
     30 O4D       203.3940  166.7150  138.7310 O.3       1 NDP402      0.0000 
     31 C3D       201.5020  168.1140  138.2280 C.3       1 NDP402      0.0000 
     32 O3D       201.1690  167.8680  136.9020 O.3       1 NDP402      0.0000 
     33 C2D       201.0550  166.9810  139.1230 C.3       1 NDP402      0.0000 
     34 O2D       199.8820  166.3850  138.6980 O.3       1 NDP402      0.0000 
     35 C1D       202.2250  165.9530  138.9250 C.3       1 NDP402      0.0000 
     36 N1N       202.3990  165.0940  140.1190 N.pl3     1 NDP402      0.0000 
     37 C2N       202.7460  165.6240  141.3420 C.2       1 NDP402      0.0000 
     38 C3N       202.3730  164.9730  142.4730 C.2       1 NDP402      0.0000 
     39 C7N       202.7530  165.5840  143.7370 C.2       1 NDP402      0.0000 
     40 O7N       203.7770  165.3050  144.3750 O.2       1 NDP402      0.0000 
     41 N7N       201.8900  166.5420  144.2440 N.am      1 NDP402      0.0000 
     42 C4N       201.6140  163.6920  142.4110 C.3       1 NDP402      0.0000 
     43 C5N       201.8210  163.0200  141.1050 C.2       1 NDP402      0.0000 
     44 C6N       202.1970  163.7120  140.0260 C.2       1 NDP402      0.0000 
     45 P2B       208.3960  178.7940  136.4960 P.3       1 NDP402      0.0000 
     46 O1X       208.7360  178.2060  137.8290 O.co2     1 NDP402      0.0000 
     47 O2X       207.4520  180.0010  136.4790 O.co2     1 NDP402      0.0000 
     48 O3X       209.4420  178.7230  135.4200 O.co2     1 NDP402      0.0000 
     49 H51A      204.5920  174.9110  139.4140 H         1 NDP402      0.0000 
     50 H52A      205.5860  176.0780  139.4080 H         1 NDP402      0.0000 
     51 H4B       206.1160  173.8460  137.7800 H         1 NDP402      0.0000 
     52 H3B       207.7320  175.8390  138.2660 H         1 NDP402      0.0000 
     53 HO3A      207.3440  174.7580  135.9150 H         1 NDP402      0.0000 
     54 H2B       206.3780  177.4720  137.6140 H         1 NDP402      0.0000 
     55 H1B       205.3240  176.2190  135.3450 H         1 NDP402      0.0000 
     56 H8A       203.7010  177.0170  138.5130 H         1 NDP402      0.0000 
     57 H61A      200.2140  180.8070  135.6710 H         1 NDP402      0.0000 
     58 H62A      200.5810  180.1830  136.9720 H         1 NDP402      0.0000 
     59 H2A       203.1200  179.2440  132.7560 H         1 NDP402      0.0000 
     60 H51N      204.4410  168.8730  139.5740 H         1 NDP402      0.0000 
     61 H52N      203.1170  168.7150  140.3400 H         1 NDP402      0.0000 
     62 H4D       203.4980  168.3180  137.5530 H         1 NDP402      0.0000 
     63 H3D       201.1570  168.9490  138.5500 H         1 NDP402      0.0000 
     64 HO3N      201.5700  168.4620  136.4490 H         1 NDP402      0.0000 
     65 H2D       200.9870  167.2740  140.0280 H         1 NDP402      0.0000 
     66 HO2N      199.2650  166.9180  138.9220 H         1 NDP402      0.0000 
     67 H1D       202.0910  165.3860  138.1580 H         1 NDP402      0.0000 
     68 H2N       203.2150  166.4240  141.3640 H         1 NDP402      0.0000 
     69 H71N      202.0710  166.9290  144.9860 H         1 NDP402      0.0000 
     70 H72N      201.1720  166.7650  143.8360 H         1 NDP402      0.0000 
     71 H41N      201.8880  163.0980  143.1190 H         1 NDP402      0.0000 
     72 H42N      200.6680  163.8600  142.5470 H         1 NDP402      0.0000 
     73 H5N       201.6860  162.1040  141.0440 H         1 NDP402      0.0000 
     74 H6N       202.3350  163.3190  139.1950 H         1 NDP402      0.0000 
@<TRIPOS>BOND
     1    1    2 ar   
     2    1    3 ar   
     3    1    4 1    
     4    1   23 1    
     5    4    5 1    
     6    5    6 1    
     7    5   49 1    
     8    5   50 1    
     9    6    7 1    
    10    6    8 1    
    11    6   51 1    
    12    7   12 1    
    13    8    9 1    
    14    8   10 1    
    15    8   52 1    
    16    9   53 1    
    17   10   11 1    
    18   10   12 1    
    19   10   54 1    
    20   11   45 1    
    21   12   13 1    
    22   12   55 1    
    23   13   14 1    
    24   13   22 1    
    25   14   15 2    
    26   15   16 1    
    27   14   56 1    
    28   16   17 ar   
    29   16   22 ar   
    30   17   18 1    
    31   17   19 ar   
    32   19   20 ar   
    33   18   57 1    
    34   18   58 1    
    35   20   21 ar   
    36   21   22 ar   
    37   20   59 1    
    38   23   24 1    
    39   24   25 ar   
    40   24   26 ar   
    41   24   27 1    
    42   27   28 1    
    43   28   29 1    
    44   28   60 1    
    45   28   61 1    
    46   29   30 1    
    47   29   31 1    
    48   29   62 1    
    49   30   35 1    
    50   31   32 1    
    51   31   33 1    
    52   31   63 1    
    53   32   64 1    
    54   34   66 1    
    55   33   34 1    
    56   33   35 1    
    57   33   65 1    
    58   35   36 1    
    59   35   67 1    
    60   36   37 1    
    61   36   44 1    
    62   37   38 2    
    63   38   39 1    
    64   37   68 1    
    65   38   42 1    
    66   39   40 2    
    67   39   41 am   
    68   42   43 1    
    69   41   69 1    
    70   41   70 1    
    71   42   71 1    
    72   42   72 1    
    73   43   44 2    
    74   45   46 ar   
    75   43   73 1    
    76   44   74 1    
    77   45   47 ar   
    78   45   48 ar   
@<TRIPOS>SUBSTRUCTURE
     1 NDP402      1 GROUP   
@<TRIPOS>SET
ATOM$ORANGE STATIC     ATOMS   COLORGROUP SYSTEM 
42 5 5 6 6 8 8 10 10 12 12 14 14 16 16 17 17 20 \
20 22 22 28 28 29 29 31 31 33 33 35 35 37 37 38 38 39 \
39 42 42 43 43 44 44 

