#    Name: 6jcz_5_NDP
#    Modification time : Fri May 22 19:32:13 2020

@<TRIPOS>MOLECULE
6jcz_5_NDP
   74    78     1     0     1
SMALL
NO_CHARGES


@<TRIPOS>ATOM
      1 PA        176.4380  112.1000  172.7880 P.3       1 NDP402      0.0000 
      2 O1A       176.4550  110.9190  171.8800 O.co2     1 NDP402      0.0000 
      3 O2A       175.2240  112.4770  173.5840 O.co2     1 NDP402      0.0000 
      4 O5B       177.7600  112.0720  173.7600 O.3       1 NDP402      0.0000 
      5 C5B       177.6130  110.9660  174.5820 C.3       1 NDP402      0.0000 
      6 C4B       179.0140  110.4020  174.7910 C.3       1 NDP402      0.0000 
      7 O4B       179.8840  111.4130  175.3090 O.3       1 NDP402      0.0000 
      8 C3B       178.9420  109.2530  175.7850 C.3       1 NDP402      0.0000 
      9 O3B       180.0060  108.4050  175.5350 O.3       1 NDP402      0.0000 
     10 C2B       179.1220  110.0310  177.1140 C.3       1 NDP402      0.0000 
     11 O2B       179.4540  109.2800  178.2210 O.3       1 NDP402      0.0000 
     12 C1B       180.1980  111.0820  176.6620 C.3       1 NDP402      0.0000 
     13 N9A       180.0970  112.3230  177.4160 N.pl3     1 NDP402      0.0000 
     14 C8A       178.9800  113.1630  177.5300 C.2       1 NDP402      0.0000 
     15 N7A       179.2010  114.2470  178.2940 N.2       1 NDP402      0.0000 
     16 C5A       180.5380  114.1040  178.6930 C.ar      1 NDP402      0.0000 
     17 C6A       181.3590  114.8990  179.4930 C.ar      1 NDP402      0.0000 
     18 N6A       180.8570  116.0530  180.0330 N.pl3     1 NDP402      0.0000 
     19 N1A       182.6560  114.5630  179.7550 N.ar      1 NDP402      0.0000 
     20 C2A       183.0740  113.3900  179.1700 C.ar      1 NDP402      0.0000 
     21 N3A       182.4180  112.5200  178.3820 N.ar      1 NDP402      0.0000 
     22 C4A       181.1150  112.9100  178.1520 C.ar      1 NDP402      0.0000 
     23 O3        176.7180  113.3170  171.7240 O.3       1 NDP402      0.0000 
     24 PN        175.4330  113.5850  170.8300 P.3       1 NDP402      0.0000 
     25 O1N       174.8980  112.3140  170.2990 O.co2     1 NDP402      0.0000 
     26 O2N       174.5510  114.6980  171.3510 O.co2     1 NDP402      0.0000 
     27 O5D       176.0600  114.3380  169.3460 O.3       1 NDP402      0.0000 
     28 C5D       176.8500  113.3840  168.7410 C.3       1 NDP402      0.0000 
     29 C4D       178.1240  114.0020  168.1250 C.3       1 NDP402      0.0000 
     30 O4D       178.1160  113.7070  166.7340 O.3       1 NDP402      0.0000 
     31 C3D       178.1870  115.5710  168.2050 C.3       1 NDP402      0.0000 
     32 O3D       179.4960  115.9780  167.9690 O.3       1 NDP402      0.0000 
     33 C2D       177.2990  115.9760  167.0590 C.3       1 NDP402      0.0000 
     34 O2D       177.6620  117.1890  166.4850 O.3       1 NDP402      0.0000 
     35 C1D       177.6180  114.8180  166.0080 C.3       1 NDP402      0.0000 
     36 N1N       176.4350  114.3700  165.2150 N.pl3     1 NDP402      0.0000 
     37 C2N       175.2000  114.1160  165.7790 C.2       1 NDP402      0.0000 
     38 C3N       174.0880  114.1250  165.0050 C.2       1 NDP402      0.0000 
     39 C7N       172.8260  113.8650  165.6760 C.2       1 NDP402      0.0000 
     40 O7N       172.0720  112.9180  165.4170 O.2       1 NDP402      0.0000 
     41 N7N       172.4570  114.7610  166.6650 N.am      1 NDP402      0.0000 
     42 C4N       174.1590  114.3910  163.5470 C.3       1 NDP402      0.0000 
     43 C5N       175.5310  114.1940  163.0290 C.2       1 NDP402      0.0000 
     44 C6N       176.5900  114.1890  163.8380 C.2       1 NDP402      0.0000 
     45 P2B       180.9760  108.1760  178.3210 P.3       1 NDP402      0.0000 
     46 O1X       180.6290  107.2660  177.1860 O.co2     1 NDP402      0.0000 
     47 O2X       180.8750  107.5850  179.7310 O.co2     1 NDP402      0.0000 
     48 O3X       182.0530  109.1970  178.0860 O.co2     1 NDP402      0.0000 
     49 H51A      177.1680  111.1880  175.4110 H         1 NDP402      0.0000 
     50 H52A      177.0620  110.2990  174.1560 H         1 NDP402      0.0000 
     51 H4B       179.3780  110.1220  173.9410 H         1 NDP402      0.0000 
     52 H3B       178.0920  108.8020  175.7830 H         1 NDP402      0.0000 
     53 HO3A      180.6060  108.8910  175.1780 H         1 NDP402      0.0000 
     54 H2B       178.3190  110.5430  177.2250 H         1 NDP402      0.0000 
     55 H1B       181.0860  110.7590  176.7380 H         1 NDP402      0.0000 
     56 H8A       178.1790  112.9590  177.1100 H         1 NDP402      0.0000 
     57 H61A      181.1510  116.3280  180.7840 H         1 NDP402      0.0000 
     58 H62A      180.2530  116.4860  179.6080 H         1 NDP402      0.0000 
     59 H2A       183.9570  113.1770  179.3590 H         1 NDP402      0.0000 
     60 H51N      177.1470  112.7360  169.3840 H         1 NDP402      0.0000 
     61 H52N      176.3620  112.8620  168.1010 H         1 NDP402      0.0000 
     62 H4D       178.8870  113.5870  168.5440 H         1 NDP402      0.0000 
     63 H3D       177.8480  115.9060  169.0360 H         1 NDP402      0.0000 
     64 HO3N      179.9940  115.3630  168.2640 H         1 NDP402      0.0000 
     65 H2D       176.3920  115.9820  167.3290 H         1 NDP402      0.0000 
     66 HO2N      176.9330  117.5980  166.3370 H         1 NDP402      0.0000 
     67 H1D       178.3000  115.0920  165.3840 H         1 NDP402      0.0000 
     68 H2N       175.1540  113.9570  166.6890 H         1 NDP402      0.0000 
     69 H71N      172.9680  115.4200  166.8520 H         1 NDP402      0.0000 
     70 H72N      171.7280  114.6760  167.1030 H         1 NDP402      0.0000 
     71 H41N      173.8750  115.2910  163.3500 H         1 NDP402      0.0000 
     72 H42N      173.5500  113.8060  163.0800 H         1 NDP402      0.0000 
     73 H5N       175.6510  114.0740  162.1220 H         1 NDP402      0.0000 
     74 H6N       177.4580  114.0670  163.5290 H         1 NDP402      0.0000 
@<TRIPOS>BOND
     1    1    2 ar   
     2    1    3 ar   
     3    1    4 1    
     4    1   23 1    
     5    4    5 1    
     6    5    6 1    
     7    5   49 1    
     8    5   50 1    
     9    6    7 1    
    10    6    8 1    
    11    6   51 1    
    12    7   12 1    
    13    8    9 1    
    14    8   10 1    
    15    8   52 1    
    16    9   53 1    
    17   10   11 1    
    18   10   12 1    
    19   10   54 1    
    20   11   45 1    
    21   12   13 1    
    22   13   14 1    
    23   12   55 1    
    24   13   22 1    
    25   14   15 2    
    26   15   16 1    
    27   14   56 1    
    28   16   17 ar   
    29   16   22 ar   
    30   17   18 1    
    31   17   19 ar   
    32   19   20 ar   
    33   18   57 1    
    34   18   58 1    
    35   20   21 ar   
    36   21   22 ar   
    37   20   59 1    
    38   23   24 1    
    39   24   25 ar   
    40   24   26 ar   
    41   24   27 1    
    42   27   28 1    
    43   28   29 1    
    44   28   60 1    
    45   28   61 1    
    46   29   30 1    
    47   29   31 1    
    48   29   62 1    
    49   30   35 1    
    50   31   32 1    
    51   31   33 1    
    52   31   63 1    
    53   32   64 1    
    54   34   66 1    
    55   33   34 1    
    56   33   35 1    
    57   35   36 1    
    58   33   65 1    
    59   35   67 1    
    60   36   37 1    
    61   36   44 1    
    62   37   38 2    
    63   38   39 1    
    64   37   68 1    
    65   38   42 1    
    66   39   40 2    
    67   39   41 am   
    68   42   43 1    
    69   41   69 1    
    70   41   70 1    
    71   42   71 1    
    72   42   72 1    
    73   43   44 2    
    74   45   46 ar   
    75   43   73 1    
    76   44   74 1    
    77   45   47 ar   
    78   45   48 ar   
@<TRIPOS>SUBSTRUCTURE
     1 NDP402      1 GROUP   
@<TRIPOS>SET
ATOM$ORANGE STATIC     ATOMS   COLORGROUP SYSTEM 
42 5 5 6 6 8 8 10 10 12 12 14 14 16 16 17 17 20 \
20 22 22 28 28 29 29 31 31 33 33 35 35 37 37 38 38 39 \
39 42 42 43 43 44 44 

