#    Name: 6jcz_3_NDP
#    Modification time : Fri May 22 19:31:56 2020

@<TRIPOS>MOLECULE
6jcz_3_NDP
   74    78     1     0     1
SMALL
NO_CHARGES


@<TRIPOS>ATOM
      1 PA        173.0090  140.8510  205.3670 P.3       1 NDP402      0.0000 
      2 O1A       172.1290  141.7000  206.2160 O.co2     1 NDP402      0.0000 
      3 O2A       173.8930  141.4440  204.3100 O.co2     1 NDP402      0.0000 
      4 O5B       173.8890  139.8690  206.3380 O.3       1 NDP402      0.0000 
      5 C5B       174.5920  139.0620  205.4570 C.3       1 NDP402      0.0000 
      6 C4B       174.7430  137.6840  206.0800 C.3       1 NDP402      0.0000 
      7 O4B       175.2790  136.7830  205.1200 O.3       1 NDP402      0.0000 
      8 C3B       175.6940  137.7870  207.2750 C.3       1 NDP402      0.0000 
      9 O3B       175.3810  136.7920  208.1840 O.3       1 NDP402      0.0000 
     10 C2B       177.0540  137.5220  206.5800 C.3       1 NDP402      0.0000 
     11 O2B       178.0800  137.1310  207.4060 O.3       1 NDP402      0.0000 
     12 C1B       176.6150  136.4670  205.4910 C.3       1 NDP402      0.0000 
     13 N9A       177.4060  136.5790  204.2790 N.pl3     1 NDP402      0.0000 
     14 C8A       177.5530  137.7000  203.4500 C.2       1 NDP402      0.0000 
     15 N7A       178.3510  137.4800  202.3910 N.2       1 NDP402      0.0000 
     16 C5A       178.7380  136.1410  202.5420 C.ar      1 NDP402      0.0000 
     17 C6A       179.5590  135.3180  201.7720 C.ar      1 NDP402      0.0000 
     18 N6A       180.1410  135.8210  200.6400 N.pl3     1 NDP402      0.0000 
     19 N1A       179.8030  134.0190  202.1130 N.ar      1 NDP402      0.0000 
     20 C2A       179.1760  133.6000  203.2640 C.ar      1 NDP402      0.0000 
     21 N3A       178.3640  134.2580  204.1090 N.ar      1 NDP402      0.0000 
     22 C4A       178.1560  135.5620  203.7140 C.ar      1 NDP402      0.0000 
     23 O3        171.8780  139.9440  204.6040 O.3       1 NDP402      0.0000 
     24 PN        171.0900  140.8810  203.6020 P.3       1 NDP402      0.0000 
     25 O1N       170.1360  141.6980  204.3790 O.co2     1 NDP402      0.0000 
     26 O2N       171.9480  141.4500  202.4930 O.co2     1 NDP402      0.0000 
     27 O5D       170.0230  139.8250  202.6610 O.3       1 NDP402      0.0000 
     28 C5D       168.9070  139.5780  203.4200 C.3       1 NDP402      0.0000 
     29 C4D       168.1310  138.3820  202.8610 C.3       1 NDP402      0.0000 
     30 O4D       166.7560  138.5790  203.2170 O.3       1 NDP402      0.0000 
     31 C3D       168.1410  138.3100  201.2940 C.3       1 NDP402      0.0000 
     32 O3D       167.7610  137.0300  200.9190 O.3       1 NDP402      0.0000 
     33 C2D       167.0770  139.3120  200.9520 C.3       1 NDP402      0.0000 
     34 O2D       166.4880  139.0960  199.7120 O.3       1 NDP402      0.0000 
     35 C1D       166.0170  138.9780  202.0730 C.3       1 NDP402      0.0000 
     36 N1N       165.1520  140.1390  202.4290 N.pl3     1 NDP402      0.0000 
     37 C2N       165.6660  141.3800  202.7450 C.2       1 NDP402      0.0000 
     38 C3N       164.8860  142.4840  202.6500 C.2       1 NDP402      0.0000 
     39 C7N       165.5160  143.7520  202.9880 C.2       1 NDP402      0.0000 
     40 O7N       165.2130  144.4520  203.9630 O.2       1 NDP402      0.0000 
     41 N7N       166.5220  144.1900  202.1390 N.am      1 NDP402      0.0000 
     42 C4N       163.4650  142.3980  202.2200 C.3       1 NDP402      0.0000 
     43 C5N       162.9440  141.0170  202.3500 C.2       1 NDP402      0.0000 
     44 C6N       163.7630  139.9670  202.4480 C.2       1 NDP402      0.0000 
     45 P2B       178.0900  135.5100  208.3590 P.3       1 NDP402      0.0000 
     46 O1X       176.8240  135.7180  209.1270 O.co2     1 NDP402      0.0000 
     47 O2X       179.3990  135.6020  209.1500 O.co2     1 NDP402      0.0000 
     48 O3X       178.0520  134.5290  207.2240 O.co2     1 NDP402      0.0000 
     49 H51A      174.1740  139.0140  204.5930 H         1 NDP402      0.0000 
     50 H52A      175.4620  139.4500  205.3090 H         1 NDP402      0.0000 
     51 H4B       173.8740  137.3460  206.3350 H         1 NDP402      0.0000 
     52 H3B       175.7030  138.6650  207.6750 H         1 NDP402      0.0000 
     53 HO3A      175.2750  136.0880  207.7250 H         1 NDP402      0.0000 
     54 H2B       177.2470  138.3160  206.0800 H         1 NDP402      0.0000 
     55 H1B       176.6750  135.5790  205.7970 H         1 NDP402      0.0000 
     56 H8A       177.1290  138.5030  203.6440 H         1 NDP402      0.0000 
     57 H61A      180.8300  135.4370  200.3160 H         1 NDP402      0.0000 
     58 H62A      179.8080  136.5180  200.2720 H         1 NDP402      0.0000 
     59 H2A       179.3530  132.7150  203.4800 H         1 NDP402      0.0000 
     60 H51N      168.3170  140.3330  203.3980 H         1 NDP402      0.0000 
     61 H52N      169.1100  139.4550  204.3570 H         1 NDP402      0.0000 
     62 H4D       168.4690  137.5720  203.2640 H         1 NDP402      0.0000 
     63 H3D       168.9790  138.5640  200.9200 H         1 NDP402      0.0000 
     64 HO3N      168.2710  136.5020  201.3460 H         1 NDP402      0.0000 
     65 H2D       167.4160  140.1960  201.0270 H         1 NDP402      0.0000 
     66 HO2N      166.7030  139.7660  199.2380 H         1 NDP402      0.0000 
     67 H1D       165.4430  138.2490  201.8150 H         1 NDP402      0.0000 
     68 H2N       166.5470  141.4360  203.0060 H         1 NDP402      0.0000 
     69 H71N      166.9200  144.9310  202.2960 H         1 NDP402      0.0000 
     70 H72N      166.7630  143.7380  201.4530 H         1 NDP402      0.0000 
     71 H41N      162.9160  142.9930  202.7450 H         1 NDP402      0.0000 
     72 H42N      163.3800  142.6910  201.3030 H         1 NDP402      0.0000 
     73 H5N       162.0270  140.8840  202.3630 H         1 NDP402      0.0000 
     74 H6N       163.4530  139.0960  202.5300 H         1 NDP402      0.0000 
@<TRIPOS>BOND
     1    1    2 ar   
     2    1    3 ar   
     3    1    4 1    
     4    1   23 1    
     5    4    5 1    
     6    5    6 1    
     7    5   49 1    
     8    5   50 1    
     9    6    7 1    
    10    6    8 1    
    11    6   51 1    
    12    7   12 1    
    13    8    9 1    
    14    8   10 1    
    15    8   52 1    
    16    9   53 1    
    17   10   11 1    
    18   10   12 1    
    19   10   54 1    
    20   11   45 1    
    21   12   13 1    
    22   13   14 1    
    23   12   55 1    
    24   13   22 1    
    25   14   15 2    
    26   15   16 1    
    27   14   56 1    
    28   16   17 ar   
    29   16   22 ar   
    30   17   18 1    
    31   17   19 ar   
    32   19   20 ar   
    33   18   57 1    
    34   18   58 1    
    35   20   21 ar   
    36   21   22 ar   
    37   20   59 1    
    38   23   24 1    
    39   24   25 ar   
    40   24   26 ar   
    41   24   27 1    
    42   27   28 1    
    43   28   29 1    
    44   28   60 1    
    45   28   61 1    
    46   29   30 1    
    47   29   31 1    
    48   29   62 1    
    49   30   35 1    
    50   31   32 1    
    51   31   33 1    
    52   31   63 1    
    53   32   64 1    
    54   34   66 1    
    55   33   34 1    
    56   33   35 1    
    57   35   36 1    
    58   33   65 1    
    59   35   67 1    
    60   36   37 1    
    61   36   44 1    
    62   37   38 2    
    63   38   39 1    
    64   37   68 1    
    65   38   42 1    
    66   39   40 2    
    67   39   41 am   
    68   42   43 1    
    69   41   69 1    
    70   41   70 1    
    71   42   71 1    
    72   42   72 1    
    73   43   44 2    
    74   45   46 ar   
    75   43   73 1    
    76   44   74 1    
    77   45   47 ar   
    78   45   48 ar   
@<TRIPOS>SUBSTRUCTURE
     1 NDP402      1 GROUP   
@<TRIPOS>SET
ATOM$ORANGE STATIC     ATOMS   COLORGROUP SYSTEM 
42 5 5 6 6 8 8 10 10 12 12 14 14 16 16 17 17 20 \
20 22 22 28 28 29 29 31 31 33 33 35 35 37 37 38 38 39 \
39 42 42 43 43 44 44 

