#    Name: 6jcz_4_NDP
#    Modification time : Fri May 22 19:32:05 2020

@<TRIPOS>MOLECULE
6jcz_4_NDP
   74    78     1     0     1
SMALL
NO_CHARGES


@<TRIPOS>ATOM
      1 PA        143.4170  175.7450  205.4020 P.3       1 NDP403      0.0000 
      2 O1A       144.4030  175.0760  206.2930 O.co2     1 NDP403      0.0000 
      3 O2A       142.7790  175.0060  204.2620 O.co2     1 NDP403      0.0000 
      4 O5B       142.2750  176.4540  206.3560 O.3       1 NDP403      0.0000 
      5 C5B       141.5870  177.3330  205.5180 C.3       1 NDP403      0.0000 
      6 C4B       141.8930  178.7600  205.9420 C.3       1 NDP403      0.0000 
      7 O4B       141.6000  179.6400  204.8790 O.3       1 NDP403      0.0000 
      8 C3B       141.0260  179.1200  207.1490 C.3       1 NDP403      0.0000 
      9 O3B       141.6670  180.0810  207.9140 O.3       1 NDP403      0.0000 
     10 C2B       139.7940  179.7610  206.5090 C.3       1 NDP403      0.0000 
     11 O2B       139.2770  180.7560  207.2210 O.3       1 NDP403      0.0000 
     12 C1B       140.3930  180.3360  205.1840 C.3       1 NDP403      0.0000 
     13 N9A       139.4930  180.1180  204.0670 N.pl3     1 NDP403      0.0000 
     14 C8A       139.2780  178.9340  203.3510 C.2       1 NDP403      0.0000 
     15 N7A       138.3780  179.0670  202.3610 N.2       1 NDP403      0.0000 
     16 C5A       137.9920  180.4140  202.4450 C.ar      1 NDP403      0.0000 
     17 C6A       137.0900  181.1730  201.7000 C.ar      1 NDP403      0.0000 
     18 N6A       136.4060  180.5840  200.6730 N.pl3     1 NDP403      0.0000 
     19 N1A       136.8680  182.4940  201.9620 N.ar      1 NDP403      0.0000 
     20 C2A       137.6000  183.0020  203.0090 C.ar      1 NDP403      0.0000 
     21 N3A       138.4980  182.4130  203.8160 N.ar      1 NDP403      0.0000 
     22 C4A       138.6790  181.0830  203.5040 C.ar      1 NDP403      0.0000 
     23 O3        144.3680  176.9060  204.7470 O.3       1 NDP403      0.0000 
     24 PN        145.3340  176.2160  203.6960 P.3       1 NDP403      0.0000 
     25 O1N       146.2660  175.3350  204.4290 O.co2     1 NDP403      0.0000 
     26 O2N       144.6320  175.7900  202.4250 O.co2     1 NDP403      0.0000 
     27 O5D       146.3900  177.5100  203.0630 O.3       1 NDP403      0.0000 
     28 C5D       147.7020  177.2400  203.3910 C.3       1 NDP403      0.0000 
     29 C4D       148.5680  178.3760  202.8900 C.3       1 NDP403      0.0000 
     30 O4D       149.9270  178.0980  203.2530 O.3       1 NDP403      0.0000 
     31 C3D       148.5270  178.4200  201.3370 C.3       1 NDP403      0.0000 
     32 O3D       148.8650  179.7010  200.9190 O.3       1 NDP403      0.0000 
     33 C2D       149.6000  177.4240  200.9780 C.3       1 NDP403      0.0000 
     34 O2D       150.1860  177.6570  199.7420 O.3       1 NDP403      0.0000 
     35 C1D       150.6620  177.7380  202.1010 C.3       1 NDP403      0.0000 
     36 N1N       151.5250  176.5720  202.4290 N.pl3     1 NDP403      0.0000 
     37 C2N       151.0000  175.3390  202.7570 C.2       1 NDP403      0.0000 
     38 C3N       151.7680  174.2260  202.6620 C.2       1 NDP403      0.0000 
     39 C7N       151.1320  172.9650  203.0110 C.2       1 NDP403      0.0000 
     40 O7N       151.3870  172.3030  204.0260 O.2       1 NDP403      0.0000 
     41 N7N       150.1790  172.4860  202.1240 N.am      1 NDP403      0.0000 
     42 C4N       153.1860  174.2900  202.2210 C.3       1 NDP403      0.0000 
     43 C5N       153.7210  175.6690  202.3110 C.2       1 NDP403      0.0000 
     44 C6N       152.9150  176.7280  202.4090 C.2       1 NDP403      0.0000 
     45 P2B       138.5020  180.1360  208.7510 P.3       1 NDP403      0.0000 
     46 O1X       139.7170  180.2530  209.6180 O.co2     1 NDP403      0.0000 
     47 O2X       138.0430  178.7260  208.3660 O.co2     1 NDP403      0.0000 
     48 O3X       137.4400  181.1880  208.9050 O.co2     1 NDP403      0.0000 
     49 H51A      141.7840  177.1880  204.5920 H         1 NDP403      0.0000 
     50 H52A      140.6410  177.1750  205.6150 H         1 NDP403      0.0000 
     51 H4B       142.8340  178.8440  206.1350 H         1 NDP403      0.0000 
     52 H3B       140.7560  178.3540  207.6640 H         1 NDP403      0.0000 
     53 HO3A      141.3140  180.8200  207.6920 H         1 NDP403      0.0000 
     54 H2B       139.1970  179.0560  206.2640 H         1 NDP403      0.0000 
     55 H1B       140.5470  181.2790  205.2500 H         1 NDP403      0.0000 
     56 H8A       139.7290  178.1510  203.5640 H         1 NDP403      0.0000 
     57 H61A      136.0120  181.0730  200.0950 H         1 NDP403      0.0000 
     58 H62A      136.3840  179.7300  200.6190 H         1 NDP403      0.0000 
     59 H2A       137.4380  183.8990  203.1730 H         1 NDP403      0.0000 
     60 H51N      147.8110  177.2130  204.3510 H         1 NDP403      0.0000 
     61 H52N      148.0150  176.3820  203.0730 H         1 NDP403      0.0000 
     62 H4D       148.2720  179.2020  203.2900 H         1 NDP403      0.0000 
     63 H3D       147.6740  178.1310  201.0070 H         1 NDP403      0.0000 
     64 HO3N      148.3630  180.2280  201.3560 H         1 NDP403      0.0000 
     65 H2D       149.2610  176.5380  201.0400 H         1 NDP403      0.0000 
     66 HO2N      150.0070  176.9710  199.2720 H         1 NDP403      0.0000 
     67 H1D       151.2340  178.4750  201.8600 H         1 NDP403      0.0000 
     68 H2N       150.1130  175.2970  203.0270 H         1 NDP403      0.0000 
     69 H71N      149.7790  171.7470  202.2870 H         1 NDP403      0.0000 
     70 H72N      149.9720  172.9100  201.4110 H         1 NDP403      0.0000 
     71 H41N      153.7340  173.7060  202.7580 H         1 NDP403      0.0000 
     72 H42N      153.2620  173.9710  201.3140 H         1 NDP403      0.0000 
     73 H5N       154.6400  175.7940  202.2980 H         1 NDP403      0.0000 
     74 H6N       153.2360  177.5980  202.4660 H         1 NDP403      0.0000 
@<TRIPOS>BOND
     1    1    2 ar   
     2    1    3 ar   
     3    1    4 1    
     4    1   23 1    
     5    4    5 1    
     6    5    6 1    
     7    5   49 1    
     8    5   50 1    
     9    6    7 1    
    10    6    8 1    
    11    6   51 1    
    12    7   12 1    
    13    8    9 1    
    14    8   10 1    
    15    8   52 1    
    16    9   53 1    
    17   10   11 1    
    18   10   12 1    
    19   10   54 1    
    20   11   45 1    
    21   12   13 1    
    22   12   55 1    
    23   13   14 1    
    24   13   22 1    
    25   14   15 2    
    26   15   16 1    
    27   14   56 1    
    28   16   17 ar   
    29   16   22 ar   
    30   17   18 1    
    31   17   19 ar   
    32   19   20 ar   
    33   18   57 1    
    34   18   58 1    
    35   20   21 ar   
    36   21   22 ar   
    37   20   59 1    
    38   23   24 1    
    39   24   25 ar   
    40   24   26 ar   
    41   24   27 1    
    42   27   28 1    
    43   28   29 1    
    44   28   60 1    
    45   28   61 1    
    46   29   30 1    
    47   29   31 1    
    48   29   62 1    
    49   30   35 1    
    50   31   32 1    
    51   31   33 1    
    52   31   63 1    
    53   32   64 1    
    54   34   66 1    
    55   33   34 1    
    56   33   35 1    
    57   33   65 1    
    58   35   36 1    
    59   35   67 1    
    60   36   37 1    
    61   36   44 1    
    62   37   38 2    
    63   38   39 1    
    64   37   68 1    
    65   38   42 1    
    66   39   40 2    
    67   39   41 am   
    68   42   43 1    
    69   41   69 1    
    70   41   70 1    
    71   42   71 1    
    72   42   72 1    
    73   43   44 2    
    74   45   46 ar   
    75   43   73 1    
    76   44   74 1    
    77   45   47 ar   
    78   45   48 ar   
@<TRIPOS>SUBSTRUCTURE
     1 NDP403      1 GROUP   
@<TRIPOS>SET
ATOM$ORANGE STATIC     ATOMS   COLORGROUP SYSTEM 
42 5 5 6 6 8 8 10 10 12 12 14 14 16 16 17 17 20 \
20 22 22 28 28 29 29 31 31 33 33 35 35 37 37 38 38 39 \
39 42 42 43 43 44 44 

