#    Name: 6jcz_7_NDP
#    Modification time : Fri May 22 19:32:30 2020

@<TRIPOS>MOLECULE
6jcz_7_NDP
   74    78     1     0     1
SMALL
NO_CHARGES


@<TRIPOS>ATOM
      1 PA        111.4300  173.1260  175.8460 P.3       1 NDP404      0.0000 
      2 O1A       110.5680  172.2910  174.9670 O.co2     1 NDP404      0.0000 
      3 O2A       112.5800  173.9180  175.2980 O.co2     1 NDP404      0.0000 
      4 O5B       110.4730  174.1050  176.7470 O.3       1 NDP404      0.0000 
      5 C5B       111.3370  174.6940  177.6600 C.3       1 NDP404      0.0000 
      6 C4B       110.6250  174.7800  179.0050 C.3       1 NDP404      0.0000 
      7 O4B       111.5010  175.2970  179.9960 O.3       1 NDP404      0.0000 
      8 C3B       109.4220  175.7100  178.8700 C.3       1 NDP404      0.0000 
      9 O3B       108.4970  175.3790  179.8390 O.3       1 NDP404      0.0000 
     10 C2B       110.0830  177.0770  179.1680 C.3       1 NDP404      0.0000 
     11 O2B       109.2240  178.0870  179.5240 O.3       1 NDP404      0.0000 
     12 C1B       111.1300  176.6460  180.2680 C.3       1 NDP404      0.0000 
     13 N9A       112.3540  177.4200  180.1650 N.pl3     1 NDP404      0.0000 
     14 C8A       113.1940  177.5440  179.0500 C.2       1 NDP404      0.0000 
     15 N7A       114.2630  178.3280  179.2700 N.2       1 NDP404      0.0000 
     16 C5A       114.1080  178.7290  180.6040 C.ar      1 NDP404      0.0000 
     17 C6A       114.8850  179.5460  181.4240 C.ar      1 NDP404      0.0000 
     18 N6A       116.0280  180.1040  180.9210 N.pl3     1 NDP404      0.0000 
     19 N1A       114.5390  179.8070  182.7180 N.ar      1 NDP404      0.0000 
     20 C2A       113.3750  179.2020  183.1350 C.ar      1 NDP404      0.0000 
     21 N3A       112.5220  178.3960  182.4790 N.ar      1 NDP404      0.0000 
     22 C4A       112.9230  178.1690  181.1790 C.ar      1 NDP404      0.0000 
     23 O3        112.0560  171.9610  176.8150 O.3       1 NDP404      0.0000 
     24 PN        112.9860  171.0270  175.9390 P.3       1 NDP404      0.0000 
     25 O1N       112.1280  170.0350  175.2590 O.co2     1 NDP404      0.0000 
     26 O2N       114.1040  171.7610  175.2330 O.co2     1 NDP404      0.0000 
     27 O5D       113.9300  170.0600  177.0970 O.3       1 NDP404      0.0000 
     28 C5D       113.3770  168.8050  177.2030 C.3       1 NDP404      0.0000 
     29 C4D       114.0020  168.0690  178.3860 C.3       1 NDP404      0.0000 
     30 O4D       113.6940  166.6810  178.2470 O.3       1 NDP404      0.0000 
     31 C3D       115.5630  168.1510  178.3760 C.3       1 NDP404      0.0000 
     32 O3D       116.0180  167.8600  179.6540 O.3       1 NDP404      0.0000 
     33 C2D       115.9300  167.0580  177.4060 C.3       1 NDP404      0.0000 
     34 O2D       117.1710  166.4890  177.6610 O.3       1 NDP404      0.0000 
     35 C1D       114.8150  165.9790  177.7360 C.3       1 NDP404      0.0000 
     36 N1N       114.3830  165.1640  176.5510 N.pl3     1 NDP404      0.0000 
     37 C2N       114.1180  165.7090  175.3060 C.2       1 NDP404      0.0000 
     38 C3N       114.1260  164.9260  174.2010 C.2       1 NDP404      0.0000 
     39 C7N       113.8500  165.5890  172.9330 C.2       1 NDP404      0.0000 
     40 O7N       112.9480  165.2640  172.1510 O.2       1 NDP404      0.0000 
     41 N7N       114.6730  166.6520  172.5950 N.am      1 NDP404      0.0000 
     42 C4N       114.4020  163.4700  174.2800 C.3       1 NDP404      0.0000 
     43 C5N       114.2420  162.9630  175.6630 C.2       1 NDP404      0.0000 
     44 C6N       114.2350  163.7830  176.7150 C.2       1 NDP404      0.0000 
     45 P2B       108.2800  178.1050  181.1460 P.3       1 NDP404      0.0000 
     46 O1X       107.6360  176.7610  181.0190 O.co2     1 NDP404      0.0000 
     47 O2X       107.3670  179.3240  180.9790 O.co2     1 NDP404      0.0000 
     48 O3X       109.4180  178.2400  182.1170 O.co2     1 NDP404      0.0000 
     49 H51A      112.1720  174.2280  177.7310 H         1 NDP404      0.0000 
     50 H52A      111.5600  175.5780  177.3500 H         1 NDP404      0.0000 
     51 H4B       110.3660  173.8940  179.2890 H         1 NDP404      0.0000 
     52 H3B       109.0470  175.7180  177.9810 H         1 NDP404      0.0000 
     53 HO3A      107.7590  175.6900  179.5650 H         1 NDP404      0.0000 
     54 H2B       110.6120  177.2810  178.3980 H         1 NDP404      0.0000 
     55 H1B       110.7980  176.7350  181.1470 H         1 NDP404      0.0000 
     56 H8A       113.0000  177.1160  178.2500 H         1 NDP404      0.0000 
     57 H61A      116.4500  179.7010  180.2940 H         1 NDP404      0.0000 
     58 H62A      116.3080  180.8450  181.2340 H         1 NDP404      0.0000 
     59 H2A       113.1550  179.3900  184.0160 H         1 NDP404      0.0000 
     60 H51N      112.4300  168.8710  177.3900 H         1 NDP404      0.0000 
     61 H52N      113.4330  168.2960  176.3990 H         1 NDP404      0.0000 
     62 H4D       113.6250  168.4140  179.2040 H         1 NDP404      0.0000 
     63 H3D       115.8740  168.9970  178.0600 H         1 NDP404      0.0000 
     64 HO3N      115.5790  168.3640  180.1770 H         1 NDP404      0.0000 
     65 H2D       115.8740  167.3780  176.5160 H         1 NDP404      0.0000 
     66 HO2N      117.5430  166.4050  176.9020 H         1 NDP404      0.0000 
     67 H1D       115.1130  165.3660  178.4160 H         1 NDP404      0.0000 
     68 H2N       113.9520  166.6090  175.2490 H         1 NDP404      0.0000 
     69 H71N      114.5480  167.0690  171.8590 H         1 NDP404      0.0000 
     70 H72N      115.3070  166.9100  173.1040 H         1 NDP404      0.0000 
     71 H41N      115.2960  163.2740  173.9750 H         1 NDP404      0.0000 
     72 H42N      113.8050  162.9930  173.6900 H         1 NDP404      0.0000 
     73 H5N       114.1440  162.0540  175.7950 H         1 NDP404      0.0000 
     74 H6N       114.1350  163.4780  177.5870 H         1 NDP404      0.0000 
@<TRIPOS>BOND
     1    1    2 ar   
     2    1    3 ar   
     3    1    4 1    
     4    1   23 1    
     5    4    5 1    
     6    5    6 1    
     7    5   49 1    
     8    5   50 1    
     9    6    7 1    
    10    6    8 1    
    11    6   51 1    
    12    7   12 1    
    13    8    9 1    
    14    8   10 1    
    15    8   52 1    
    16    9   53 1    
    17   10   11 1    
    18   10   12 1    
    19   10   54 1    
    20   11   45 1    
    21   12   13 1    
    22   13   14 1    
    23   12   55 1    
    24   13   22 1    
    25   14   15 2    
    26   15   16 1    
    27   14   56 1    
    28   16   17 ar   
    29   16   22 ar   
    30   17   18 1    
    31   17   19 ar   
    32   19   20 ar   
    33   18   57 1    
    34   18   58 1    
    35   20   21 ar   
    36   21   22 ar   
    37   20   59 1    
    38   23   24 1    
    39   24   25 ar   
    40   24   26 ar   
    41   24   27 1    
    42   27   28 1    
    43   28   29 1    
    44   28   60 1    
    45   28   61 1    
    46   29   30 1    
    47   29   31 1    
    48   29   62 1    
    49   30   35 1    
    50   31   32 1    
    51   31   33 1    
    52   31   63 1    
    53   32   64 1    
    54   34   66 1    
    55   33   34 1    
    56   33   35 1    
    57   35   36 1    
    58   33   65 1    
    59   35   67 1    
    60   36   37 1    
    61   36   44 1    
    62   37   38 2    
    63   38   39 1    
    64   37   68 1    
    65   38   42 1    
    66   39   40 2    
    67   39   41 am   
    68   42   43 1    
    69   41   69 1    
    70   41   70 1    
    71   42   71 1    
    72   42   72 1    
    73   43   44 2    
    74   45   46 ar   
    75   43   73 1    
    76   44   74 1    
    77   45   47 ar   
    78   45   48 ar   
@<TRIPOS>SUBSTRUCTURE
     1 NDP404      1 GROUP   
@<TRIPOS>SET
ATOM$ORANGE STATIC     ATOMS   COLORGROUP SYSTEM 
42 5 5 6 6 8 8 10 10 12 12 14 14 16 16 17 17 20 \
20 22 22 28 28 29 29 31 31 33 33 35 35 37 37 38 38 39 \
39 42 42 43 43 44 44 

