#    Name: 6jcz_6_NDP
#    Modification time : Fri May 22 19:32:22 2020

@<TRIPOS>MOLECULE
6jcz_6_NDP
   74    78     1     0     1
SMALL
NO_CHARGES


@<TRIPOS>ATOM
      1 PA        140.8540  111.3780  143.5870 P.3       1 NDP403      0.0000 
      2 O1A       141.6440  110.5070  144.4980 O.co2     1 NDP403      0.0000 
      3 O2A       141.4960  112.4920  142.8150 O.co2     1 NDP403      0.0000 
      4 O5B       140.0030  110.4200  142.5650 O.3       1 NDP403      0.0000 
      5 C5B       139.1210  111.2810  141.9250 C.3       1 NDP403      0.0000 
      6 C4B       137.7410  110.6300  141.9140 C.3       1 NDP403      0.0000 
      7 O4B       136.7680  111.5430  141.4190 O.3       1 NDP403      0.0000 
      8 C3B       137.7740  109.3990  141.0090 C.3       1 NDP403      0.0000 
      9 O3B       136.7800  108.5320  141.4210 O.3       1 NDP403      0.0000 
     10 C2B       137.4460  110.0500  139.6380 C.3       1 NDP403      0.0000 
     11 O2B       137.0050  109.1980  138.6550 O.3       1 NDP403      0.0000 
     12 C1B       136.4180  111.1610  140.0890 C.3       1 NDP403      0.0000 
     13 N9A       136.5430  112.3630  139.2910 N.pl3     1 NDP403      0.0000 
     14 C8A       137.6760  113.1740  139.1430 C.2       1 NDP403      0.0000 
     15 N7A       137.4730  114.2320  138.3400 N.2       1 NDP403      0.0000 
     16 C5A       136.1320  114.1000  137.9520 C.ar      1 NDP403      0.0000 
     17 C6A       135.3250  114.8800  137.1260 C.ar      1 NDP403      0.0000 
     18 N6A       135.8530  115.9990  136.5430 N.pl3     1 NDP403      0.0000 
     19 N1A       134.0210  114.5600  136.8800 N.ar      1 NDP403      0.0000 
     20 C2A       133.5820  113.4190  137.5110 C.ar      1 NDP403      0.0000 
     21 N3A       134.2240  112.5660  138.3280 N.ar      1 NDP403      0.0000 
     22 C4A       135.5350  112.9400  138.5380 C.ar      1 NDP403      0.0000 
     23 O3        139.8240  112.0660  144.6680 O.3       1 NDP403      0.0000 
     24 PN        140.6550  113.0790  145.5590 P.3       1 NDP403      0.0000 
     25 O1N       141.4680  112.2840  146.5010 O.co2     1 NDP403      0.0000 
     26 O2N       141.2130  114.2510  144.7830 O.co2     1 NDP403      0.0000 
     27 O5D       139.4930  113.9290  146.6190 O.3       1 NDP403      0.0000 
     28 C5D       139.4160  113.2570  147.8170 C.3       1 NDP403      0.0000 
     29 C4D       138.2440  113.7850  148.6530 C.3       1 NDP403      0.0000 
     30 O4D       138.5390  113.5320  150.0290 O.3       1 NDP403      0.0000 
     31 C3D       138.0960  115.3310  148.5800 C.3       1 NDP403      0.0000 
     32 O3D       136.8700  115.6750  149.1260 O.3       1 NDP403      0.0000 
     33 C2D       139.2370  115.7930  149.4550 C.3       1 NDP403      0.0000 
     34 O2D       138.9820  116.9940  150.1000 O.3       1 NDP403      0.0000 
     35 C1D       139.2830  114.6280  150.5650 C.3       1 NDP403      0.0000 
     36 N1N       140.6610  114.1110  150.9670 N.pl3     1 NDP403      0.0000 
     37 C2N       141.8470  114.4260  150.3150 C.2       1 NDP403      0.0000 
     38 C3N       143.0550  114.0390  150.7950 C.2       1 NDP403      0.0000 
     39 C7N       144.2420  114.4330  150.0290 C.2       1 NDP403      0.0000 
     40 O7N       145.3590  114.5860  150.5350 O.2       1 NDP403      0.0000 
     41 N7N       144.1210  114.6470  148.6580 N.am      1 NDP403      0.0000 
     42 C4N       143.1920  113.2720  152.0530 C.3       1 NDP403      0.0000 
     43 C5N       141.8810  112.8500  152.5990 C.2       1 NDP403      0.0000 
     44 C6N       140.7210  113.2560  152.0770 C.2       1 NDP403      0.0000 
     45 P2B       135.4440  108.1630  138.7890 P.3       1 NDP403      0.0000 
     46 O1X       135.8290  107.3780  140.0030 O.co2     1 NDP403      0.0000 
     47 O2X       135.4410  107.4130  137.4530 O.co2     1 NDP403      0.0000 
     48 O3X       134.4150  109.2420  138.9650 O.co2     1 NDP403      0.0000 
     49 H51A      139.0990  112.1520  142.3260 H         1 NDP403      0.0000 
     50 H52A      139.4260  111.4200  141.0230 H         1 NDP403      0.0000 
     51 H4B       137.4860  110.4060  142.8180 H         1 NDP403      0.0000 
     52 H3B       138.6420  108.9810  140.9700 H         1 NDP403      0.0000 
     53 HO3A      136.1260  109.0240  141.6450 H         1 NDP403      0.0000 
     54 H2B       138.2300  110.5390  139.3920 H         1 NDP403      0.0000 
     55 H1B       135.5230  110.8740  140.0450 H         1 NDP403      0.0000 
     56 H8A       138.4740  112.9700  139.5690 H         1 NDP403      0.0000 
     57 H61A      135.3330  116.6160  136.2690 H         1 NDP403      0.0000 
     58 H62A      136.7030  116.0690  136.4660 H         1 NDP403      0.0000 
     59 H2A       132.6940  113.2160  137.3330 H         1 NDP403      0.0000 
     60 H51N      139.2430  112.3240  147.6560 H         1 NDP403      0.0000 
     61 H52N      140.2300  113.2710  148.3180 H         1 NDP403      0.0000 
     62 H4D       137.4360  113.3280  148.3900 H         1 NDP403      0.0000 
     63 H3D       138.2010  115.6550  147.6940 H         1 NDP403      0.0000 
     64 HO3N      136.2860  115.3400  148.6080 H         1 NDP403      0.0000 
     65 H2D       140.0190  115.8430  148.9420 H         1 NDP403      0.0000 
     66 HO2N      139.7230  117.4070  150.1160 H         1 NDP403      0.0000 
     67 H1D       138.8370  114.9110  151.3760 H         1 NDP403      0.0000 
     68 H2N       141.7950  114.9030  149.5300 H         1 NDP403      0.0000 
     69 H71N      144.8100  114.8760  148.2090 H         1 NDP403      0.0000 
     70 H72N      143.3830  114.5580  148.2350 H         1 NDP403      0.0000 
     71 H41N      143.7440  112.4850  151.9120 H         1 NDP403      0.0000 
     72 H42N      143.6540  113.8090  152.7080 H         1 NDP403      0.0000 
     73 H5N       141.8710  112.2840  153.3330 H         1 NDP403      0.0000 
     74 H6N       139.9040  112.9870  152.4240 H         1 NDP403      0.0000 
@<TRIPOS>BOND
     1    1    2 ar   
     2    1    3 ar   
     3    1    4 1    
     4    1   23 1    
     5    4    5 1    
     6    5    6 1    
     7    5   49 1    
     8    5   50 1    
     9    6    7 1    
    10    6    8 1    
    11    6   51 1    
    12    7   12 1    
    13    8    9 1    
    14    8   10 1    
    15    8   52 1    
    16    9   53 1    
    17   10   11 1    
    18   10   12 1    
    19   10   54 1    
    20   11   45 1    
    21   12   13 1    
    22   13   14 1    
    23   12   55 1    
    24   13   22 1    
    25   14   15 2    
    26   15   16 1    
    27   14   56 1    
    28   16   17 ar   
    29   16   22 ar   
    30   17   18 1    
    31   17   19 ar   
    32   19   20 ar   
    33   18   57 1    
    34   18   58 1    
    35   20   21 ar   
    36   21   22 ar   
    37   20   59 1    
    38   23   24 1    
    39   24   25 ar   
    40   24   26 ar   
    41   24   27 1    
    42   27   28 1    
    43   28   29 1    
    44   28   60 1    
    45   28   61 1    
    46   29   30 1    
    47   29   31 1    
    48   29   62 1    
    49   30   35 1    
    50   31   32 1    
    51   31   33 1    
    52   35   67 1    
    53   31   63 1    
    54   32   64 1    
    55   33   34 1    
    56   33   35 1    
    57   35   36 1    
    58   33   65 1    
    59   34   66 1    
    60   36   37 1    
    61   36   44 1    
    62   37   38 2    
    63   38   39 1    
    64   37   68 1    
    65   38   42 1    
    66   39   40 2    
    67   39   41 am   
    68   42   43 1    
    69   41   69 1    
    70   41   70 1    
    71   42   71 1    
    72   42   72 1    
    73   43   44 2    
    74   45   46 ar   
    75   43   73 1    
    76   44   74 1    
    77   45   47 ar   
    78   45   48 ar   
@<TRIPOS>SUBSTRUCTURE
     1 NDP403      1 GROUP   
@<TRIPOS>SET
ATOM$ORANGE STATIC     ATOMS   COLORGROUP SYSTEM 
42 5 5 6 6 8 8 10 10 12 12 14 14 16 16 17 17 20 \
20 22 22 28 28 29 29 31 31 33 33 35 35 37 37 38 38 39 \
39 42 42 43 43 44 44 

