#    Name: 6jcz_9_NDP
#    Modification time : Fri May 22 19:32:47 2020

@<TRIPOS>MOLECULE
6jcz_9_NDP
   74    78     1     0     1
SMALL
NO_CHARGES


@<TRIPOS>ATOM
      1 PA        143.5400  140.9730  111.3020 P.3       1 NDP403      0.0000 
      2 O1A       144.4970  141.6910  110.4180 O.co2     1 NDP403      0.0000 
      3 O2A       142.8530  141.6690  112.4400 O.co2     1 NDP403      0.0000 
      4 O5B       142.4320  140.2130  110.3630 O.3       1 NDP403      0.0000 
      5 C5B       141.7920  139.3220  111.2190 C.3       1 NDP403      0.0000 
      6 C4B       141.8800  137.9260  110.6110 C.3       1 NDP403      0.0000 
      7 O4B       141.4510  136.9480  111.5510 O.3       1 NDP403      0.0000 
      8 C3B       140.9790  137.8600  109.3780 C.3       1 NDP403      0.0000 
      9 O3B       141.4560  136.8750  108.5370 O.3       1 NDP403      0.0000 
     10 C2B       139.6350  137.4440  110.0270 C.3       1 NDP403      0.0000 
     11 O2B       138.7090  136.9030  109.1750 O.3       1 NDP403      0.0000 
     12 C1B       140.1550  136.4870  111.1690 C.3       1 NDP403      0.0000 
     13 N9A       139.3370  136.5830  112.3610 N.pl3     1 NDP403      0.0000 
     14 C8A       139.1580  137.7060  113.1790 C.2       1 NDP403      0.0000 
     15 N7A       138.3430  137.4810  114.2240 N.2       1 NDP403      0.0000 
     16 C5A       137.9790  136.1350  114.0750 C.ar      1 NDP403      0.0000 
     17 C6A       137.1550  135.3070  114.8360 C.ar      1 NDP403      0.0000 
     18 N6A       136.5460  135.8140  115.9520 N.pl3     1 NDP403      0.0000 
     19 N1A       136.9350  134.0030  114.5010 N.ar      1 NDP403      0.0000 
     20 C2A       137.5890  133.5840  113.3650 C.ar      1 NDP403      0.0000 
     21 N3A       138.4080  134.2460  112.5300 N.ar      1 NDP403      0.0000 
     22 C4A       138.5920  135.5570  112.9180 C.ar      1 NDP403      0.0000 
     23 O3        144.5430  139.8540  111.9540 O.3       1 NDP403      0.0000 
     24 PN        145.4640  140.5820  113.0130 P.3       1 NDP403      0.0000 
     25 O1N       146.4320  141.4160  112.2720 O.co2     1 NDP403      0.0000 
     26 O2N       144.7190  141.0750  114.2330 O.co2     1 NDP403      0.0000 
     27 O5D       146.4620  139.3060  113.7500 O.3       1 NDP403      0.0000 
     28 C5D       147.7620  139.4390  113.3240 C.3       1 NDP403      0.0000 
     29 C4D       148.5680  138.2710  113.8540 C.3       1 NDP403      0.0000 
     30 O4D       149.9350  138.4790  113.4890 O.3       1 NDP403      0.0000 
     31 C3D       148.5350  138.2540  115.4100 C.3       1 NDP403      0.0000 
     32 O3D       148.8920  136.9840  115.8430 O.3       1 NDP403      0.0000 
     33 C2D       149.5990  139.2680  115.7410 C.3       1 NDP403      0.0000 
     34 O2D       150.1920  139.0690  116.9790 O.3       1 NDP403      0.0000 
     35 C1D       150.6630  138.9380  114.6140 C.3       1 NDP403      0.0000 
     36 N1N       151.4870  140.1100  114.2000 N.pl3     1 NDP403      0.0000 
     37 C2N       150.9400  141.3490  113.9220 C.2       1 NDP403      0.0000 
     38 C3N       151.7300  142.4460  113.8240 C.2       1 NDP403      0.0000 
     39 C7N       151.0610  143.7080  113.5430 C.2       1 NDP403      0.0000 
     40 O7N       151.3200  144.4410  112.5790 O.2       1 NDP403      0.0000 
     41 N7N       150.0770  144.1050  114.4370 N.am      1 NDP403      0.0000 
     42 C4N       153.2010  142.3740  113.9990 C.3       1 NDP403      0.0000 
     43 C5N       153.6940  140.9770  113.9780 C.2       1 NDP403      0.0000 
     44 C6N       152.8680  139.9350  114.0740 C.2       1 NDP403      0.0000 
     45 P2B       138.9310  135.2410  108.3320 P.3       1 NDP403      0.0000 
     46 O1X       140.2490  135.5050  107.6760 O.co2     1 NDP403      0.0000 
     47 O2X       137.7040  135.1870  107.4160 O.co2     1 NDP403      0.0000 
     48 O3X       138.9270  134.3280  109.5250 O.co2     1 NDP403      0.0000 
     49 H51A      142.1460  139.3450  112.1090 H         1 NDP403      0.0000 
     50 H52A      140.8720  139.5840  111.3030 H         1 NDP403      0.0000 
     51 H4B       142.8010  137.7280  110.3950 H         1 NDP403      0.0000 
     52 H3B       140.8770  138.7100  108.9360 H         1 NDP403      0.0000 
     53 HO3A      141.7200  136.2490  109.0460 H         1 NDP403      0.0000 
     54 H2B       139.3210  138.2200  110.4920 H         1 NDP403      0.0000 
     55 H1B       140.1830  135.5830  110.9050 H         1 NDP403      0.0000 
     56 H8A       139.5740  138.5130  112.9880 H         1 NDP403      0.0000 
     57 H61A      135.9740  135.3410  116.3700 H         1 NDP403      0.0000 
     58 H62A      136.7490  136.6020  116.2190 H         1 NDP403      0.0000 
     59 H2A       137.4280  132.6950  113.1530 H         1 NDP403      0.0000 
     60 H51N      147.8060  139.3920  112.3600 H         1 NDP403      0.0000 
     61 H52N      148.1640  140.2850  113.5570 H         1 NDP403      0.0000 
     62 H4D       148.2350  137.4510  113.4690 H         1 NDP403      0.0000 
     63 H3D       147.6850  138.5370  115.7440 H         1 NDP403      0.0000 
     64 HO3N      148.4070  136.4440  115.4030 H         1 NDP403      0.0000 
     65 H2D       149.2480  140.1460  115.6630 H         1 NDP403      0.0000 
     66 HO2N      149.9980  139.7570  117.4380 H         1 NDP403      0.0000 
     67 H1D       151.2640  138.2380  114.8900 H         1 NDP403      0.0000 
     68 H2N       150.0210  141.4070  113.8160 H         1 NDP403      0.0000 
     69 H71N      149.6590  144.8420  114.3110 H         1 NDP403      0.0000 
     70 H72N      149.8670  143.6320  115.1160 H         1 NDP403      0.0000 
     71 H41N      153.6470  142.8720  113.3020 H         1 NDP403      0.0000 
     72 H42N      153.4520  142.7920  114.8280 H         1 NDP403      0.0000 
     73 H5N       154.6040  140.8270  113.8970 H         1 NDP403      0.0000 
     74 H6N       153.1710  139.0570  114.0620 H         1 NDP403      0.0000 
@<TRIPOS>BOND
     1    1    2 ar   
     2    1    3 ar   
     3    1    4 1    
     4    1   23 1    
     5    4    5 1    
     6    5    6 1    
     7    5   49 1    
     8    5   50 1    
     9    6    7 1    
    10    6    8 1    
    11    6   51 1    
    12    7   12 1    
    13    8    9 1    
    14    8   10 1    
    15    8   52 1    
    16    9   53 1    
    17   10   11 1    
    18   10   12 1    
    19   10   54 1    
    20   11   45 1    
    21   12   13 1    
    22   13   14 1    
    23   12   55 1    
    24   13   22 1    
    25   14   15 2    
    26   15   16 1    
    27   14   56 1    
    28   16   17 ar   
    29   16   22 ar   
    30   17   18 1    
    31   17   19 ar   
    32   19   20 ar   
    33   18   57 1    
    34   18   58 1    
    35   20   21 ar   
    36   21   22 ar   
    37   20   59 1    
    38   23   24 1    
    39   24   25 ar   
    40   24   26 ar   
    41   24   27 1    
    42   27   28 1    
    43   28   29 1    
    44   28   60 1    
    45   28   61 1    
    46   29   30 1    
    47   29   31 1    
    48   29   62 1    
    49   30   35 1    
    50   31   32 1    
    51   31   33 1    
    52   31   63 1    
    53   32   64 1    
    54   34   66 1    
    55   33   34 1    
    56   33   35 1    
    57   35   36 1    
    58   33   65 1    
    59   35   67 1    
    60   36   37 1    
    61   36   44 1    
    62   37   38 2    
    63   38   39 1    
    64   37   68 1    
    65   38   42 1    
    66   39   40 2    
    67   39   41 am   
    68   42   43 1    
    69   41   69 1    
    70   41   70 1    
    71   42   71 1    
    72   42   72 1    
    73   43   44 2    
    74   45   46 ar   
    75   43   73 1    
    76   44   74 1    
    77   45   47 ar   
    78   45   48 ar   
@<TRIPOS>SUBSTRUCTURE
     1 NDP403      1 GROUP   
@<TRIPOS>SET
ATOM$ORANGE STATIC     ATOMS   COLORGROUP SYSTEM 
42 5 5 6 6 8 8 10 10 12 12 14 14 16 16 17 17 20 \
20 22 22 28 28 29 29 31 31 33 33 35 35 37 37 38 38 39 \
39 42 42 43 43 44 44 

