#    Name: 6jcz_1_NDP
#    Modification time : Fri May 22 19:31:37 2020

@<TRIPOS>MOLECULE
6jcz_1_NDP
   74    78     1     0     1
SMALL
NO_CHARGES


@<TRIPOS>ATOM
      1 PA        205.5020  143.1390  175.9060 P.3       1 NDP403      0.0000 
      2 O1A       206.4460  144.0140  175.1600 O.co2     1 NDP403      0.0000 
      3 O2A       204.2750  142.5810  175.2460 O.co2     1 NDP403      0.0000 
      4 O5B       206.3860  141.9480  176.6190 O.3       1 NDP403      0.0000 
      5 C5B       205.5400  141.3860  177.5750 C.3       1 NDP403      0.0000 
      6 C4B       206.0550  141.7250  178.9690 C.3       1 NDP403      0.0000 
      7 O4B       205.0620  141.4410  179.9290 O.3       1 NDP403      0.0000 
      8 C3B       207.2870  140.8800  179.2710 C.3       1 NDP403      0.0000 
      9 O3B       208.0620  141.5120  180.2360 O.3       1 NDP403      0.0000 
     10 C2B       206.6840  139.6090  179.8810 C.3       1 NDP403      0.0000 
     11 O2B       207.4430  139.0590  180.8270 O.3       1 NDP403      0.0000 
     12 C1B       205.3550  140.1760  180.5240 C.3       1 NDP403      0.0000 
     13 N9A       204.1990  139.3320  180.2680 N.pl3     1 NDP403      0.0000 
     14 C8A       203.4880  139.1760  179.0700 C.2       1 NDP403      0.0000 
     15 N7A       202.4530  138.3270  179.1700 N.2       1 NDP403      0.0000 
     16 C5A       202.4920  137.9170  180.5100 C.ar      1 NDP403      0.0000 
     17 C6A       201.6860  137.0440  181.2360 C.ar      1 NDP403      0.0000 
     18 N6A       200.6380  136.4270  180.6120 N.pl3     1 NDP403      0.0000 
     19 N1A       201.9090  136.7850  182.5560 N.ar      1 NDP403      0.0000 
     20 C2A       202.9820  137.4520  183.0980 C.ar      1 NDP403      0.0000 
     21 N3A       203.8470  138.3150  182.5430 N.ar      1 NDP403      0.0000 
     22 C4A       203.5720  138.5370  181.2100 C.ar      1 NDP403      0.0000 
     23 O3        204.9950  144.1720  177.0720 O.3       1 NDP403      0.0000 
     24 PN        204.1370  145.3250  176.4020 P.3       1 NDP403      0.0000 
     25 O1N       205.0320  146.1800  175.5950 O.co2     1 NDP403      0.0000 
     26 O2N       202.7640  144.8850  175.9440 O.co2     1 NDP403      0.0000 
     27 O5D       203.7110  146.4150  177.7320 O.3       1 NDP403      0.0000 
     28 C5D       203.2380  147.5870  177.1960 C.3       1 NDP403      0.0000 
     29 C4D       202.8020  148.4820  178.3400 C.3       1 NDP403      0.0000 
     30 O4D       203.1900  149.8200  178.0490 O.3       1 NDP403      0.0000 
     31 C3D       201.2550  148.4900  178.4410 C.3       1 NDP403      0.0000 
     32 O3D       200.8990  148.9010  179.7200 O.3       1 NDP403      0.0000 
     33 C2D       200.8680  149.5150  177.4010 C.3       1 NDP403      0.0000 
     34 O2D       199.7150  150.2130  177.7180 O.3       1 NDP403      0.0000 
     35 C1D       202.1040  150.5300  177.4830 C.3       1 NDP403      0.0000 
     36 N1N       202.5550  151.1030  176.1640 N.pl3     1 NDP403      0.0000 
     37 C2N       202.4790  150.4300  174.9560 C.2       1 NDP403      0.0000 
     38 C3N       202.4160  151.1300  173.7930 C.2       1 NDP403      0.0000 
     39 C7N       202.3220  150.3890  172.5290 C.2       1 NDP403      0.0000 
     40 O7N       202.6230  150.8740  171.4330 O.2       1 NDP403      0.0000 
     41 N7N       201.8550  149.0770  172.5450 N.am      1 NDP403      0.0000 
     42 C4N       202.4490  152.6130  173.7980 C.3       1 NDP403      0.0000 
     43 C5N       203.0520  153.1310  175.0460 C.2       1 NDP403      0.0000 
     44 C6N       203.0890  152.3930  176.1560 C.2       1 NDP403      0.0000 
     45 P2B       208.5430  137.7330  180.1710 P.3       1 NDP403      0.0000 
     46 O1X       208.6960  138.2890  178.7900 O.co2     1 NDP403      0.0000 
     47 O2X       207.7170  136.4520  180.3230 O.co2     1 NDP403      0.0000 
     48 O3X       209.6840  137.9320  181.1270 O.co2     1 NDP403      0.0000 
     49 H51A      204.6270  141.6550  177.4620 H         1 NDP403      0.0000 
     50 H52A      205.5460  140.4330  177.4610 H         1 NDP403      0.0000 
     51 H4B       206.2430  142.6670  179.0220 H         1 NDP403      0.0000 
     52 H3B       207.7890  140.6490  178.4850 H         1 NDP403      0.0000 
     53 HO3A      207.5870  141.5190  180.9390 H         1 NDP403      0.0000 
     54 H2B       206.4230  139.0410  179.1570 H         1 NDP403      0.0000 
     55 H1B       205.4390  140.2590  181.4750 H         1 NDP403      0.0000 
     56 H8A       203.7350  139.6230  178.3030 H         1 NDP403      0.0000 
     57 H61A      199.8420  136.5600  180.8970 H         1 NDP403      0.0000 
     58 H62A      200.7890  135.9250  179.9360 H         1 NDP403      0.0000 
     59 H2A       203.1190  137.2640  183.9960 H         1 NDP403      0.0000 
     60 H51N      203.9450  148.0550  176.7320 H         1 NDP403      0.0000 
     61 H52N      202.5490  147.4540  176.5330 H         1 NDP403      0.0000 
     62 H4D       203.2210  148.1800  179.1550 H         1 NDP403      0.0000 
     63 H3D       200.8990  147.6330  178.2120 H         1 NDP403      0.0000 
     64 HO3N      201.3470  148.4150  180.2530 H         1 NDP403      0.0000 
     65 H2D       200.7920  149.0980  176.5590 H         1 NDP403      0.0000 
     66 HO2N      199.2310  150.1810  177.0210 H         1 NDP403      0.0000 
     67 H1D       201.9030  151.2740  178.0670 H         1 NDP403      0.0000 
     68 H2N       202.4540  149.5010  174.9680 H         1 NDP403      0.0000 
     69 H71N      201.7970  148.6470  171.8100 H         1 NDP403      0.0000 
     70 H72N      201.6240  148.6740  173.2590 H         1 NDP403      0.0000 
     71 H41N      202.9520  152.9440  173.0440 H         1 NDP403      0.0000 
     72 H42N      201.5540  152.9630  173.7040 H         1 NDP403      0.0000 
     73 H5N       203.4090  153.9840  175.0500 H         1 NDP403      0.0000 
     74 H6N       203.4610  152.6970  176.9500 H         1 NDP403      0.0000 
@<TRIPOS>BOND
     1    1    2 ar   
     2    1    3 ar   
     3    1    4 1    
     4    1   23 1    
     5    4    5 1    
     6    5    6 1    
     7    5   49 1    
     8    5   50 1    
     9    6    7 1    
    10    6    8 1    
    11    6   51 1    
    12    7   12 1    
    13    8    9 1    
    14    8   10 1    
    15    8   52 1    
    16    9   53 1    
    17   10   11 1    
    18   10   12 1    
    19   10   54 1    
    20   11   45 1    
    21   12   13 1    
    22   12   55 1    
    23   13   14 1    
    24   13   22 1    
    25   14   15 2    
    26   15   16 1    
    27   14   56 1    
    28   16   17 ar   
    29   16   22 ar   
    30   17   18 1    
    31   17   19 ar   
    32   19   20 ar   
    33   18   57 1    
    34   18   58 1    
    35   20   21 ar   
    36   21   22 ar   
    37   20   59 1    
    38   23   24 1    
    39   24   25 ar   
    40   24   26 ar   
    41   24   27 1    
    42   27   28 1    
    43   28   29 1    
    44   28   60 1    
    45   28   61 1    
    46   29   30 1    
    47   29   31 1    
    48   29   62 1    
    49   30   35 1    
    50   31   32 1    
    51   31   33 1    
    52   31   63 1    
    53   32   64 1    
    54   34   66 1    
    55   33   34 1    
    56   33   35 1    
    57   35   36 1    
    58   33   65 1    
    59   35   67 1    
    60   36   37 1    
    61   36   44 1    
    62   37   38 2    
    63   38   39 1    
    64   37   68 1    
    65   38   42 1    
    66   39   40 2    
    67   39   41 am   
    68   42   43 1    
    69   41   69 1    
    70   41   70 1    
    71   42   71 1    
    72   42   72 1    
    73   43   44 2    
    74   45   46 ar   
    75   43   73 1    
    76   44   74 1    
    77   45   47 ar   
    78   45   48 ar   
@<TRIPOS>SUBSTRUCTURE
     1 NDP403      1 GROUP   
@<TRIPOS>SET
ATOM$ORANGE STATIC     ATOMS   COLORGROUP SYSTEM 
42 5 5 6 6 8 8 10 10 12 12 14 14 16 16 17 17 20 \
20 22 22 28 28 29 29 31 31 33 33 35 35 37 37 38 38 39 \
39 42 42 43 43 44 44 

