#    Name: 6s85_1_ADP_CAVITY_N1_12
#    Modification time : Fri May 22 19:42:09 2020

@<TRIPOS>MOLECULE
6s85_1_ADP_CAVITY_N1_12
   66     0     7     0     0
SMALL
NO_CHARGES


@<TRIPOS>ATOM
      1 OG         96.1700  151.1200  104.8100 O.3       1 SER1        0.0000 
      2 OG         97.6800  152.4600  105.4700 O.3       1 SER1        0.0000 
      3 OG         98.6100  151.3000  105.6800 O.3       1 SER1        0.0000 
      4 OG         99.5400  150.1500  105.9000 O.3       1 SER1        0.0000 
      5 OG         98.7900  153.2200  104.8000 O.3       1 SER1        0.0000 
      6 OG         99.7200  152.0700  105.0100 O.3       1 SER1        0.0000 
      7 N          96.3400  153.0400  103.9300 N.am      2 ALA2        0.0000 
      8 N          97.4500  153.8100  103.2600 N.am      2 ALA2        0.0000 
      9 N          98.5500  154.5700  102.5900 N.am      2 ALA2        0.0000 
     10 N         100.4800  148.9900  106.1100 N.am      2 ALA2        0.0000 
     11 O         101.1600  156.6700  102.5700 O.2       2 ALA2        0.0000 
     12 N          99.9500  150.7200  107.2200 N.am      2 ALA2        0.0000 
     13 N         100.8800  149.5600  107.4400 N.am      2 ALA2        0.0000 
     14 N         100.4700  156.4800  104.5700 N.am      2 ALA2        0.0000 
     15 N         101.5700  157.2500  103.9000 N.am      2 ALA2        0.0000 
     16 N         101.2900  150.1400  108.7600 N.am      2 ALA2        0.0000 
     17 N         100.8800  157.0600  105.8900 N.am      2 ALA2        0.0000 
     18 OD1        95.6500  152.8500  105.9300 O.co2     3 ASP3        0.0000 
     19 OD1        96.5800  151.7000  106.1400 O.co2     3 ASP3        0.0000 
     20 OD1        96.7500  153.6200  105.2600 O.co2     3 ASP3        0.0000 
     21 OD1        95.1300  154.5800  107.0400 O.co2     3 ASP3        0.0000 
     22 OD1        96.2300  155.3500  106.3700 O.co2     3 ASP3        0.0000 
     23 OD1        98.2600  154.9500  105.9100 O.co2     3 ASP3        0.0000 
     24 OD1        99.1900  153.8000  106.1200 O.co2     3 ASP3        0.0000 
     25 OD1       100.1200  152.6400  106.3400 O.co2     3 ASP3        0.0000 
     26 OD1       100.3600  151.2900  108.5500 O.co2     3 ASP3        0.0000 
     27 OD1        98.6700  155.5300  107.2300 O.co2     3 ASP3        0.0000 
     28 OD1        99.6000  154.3700  107.4500 O.co2     3 ASP3        0.0000 
     29 OD1       100.5300  153.2100  107.6600 O.co2     3 ASP3        0.0000 
     30 NZ        101.5800  149.7600  105.4400 N.4       4 LYS4        0.0000 
     31 NZ        101.7500  151.6800  104.5600 N.4       4 LYS4        0.0000 
     32 NZ        101.0600  151.4800  106.5500 N.4       4 LYS4        0.0000 
     33 NZ        101.9900  150.3300  106.7700 N.4       4 LYS4        0.0000 
     34 NZ        101.2300  153.4100  105.6700 N.4       4 LYS4        0.0000 
     35 NZ        101.4600  152.0600  107.8800 N.4       4 LYS4        0.0000 
     36 CZ        101.9200  153.6000  103.6700 C.ar      5 PHE5        0.0000 
     37 CZ         97.7400  156.6800  107.0200 C.ar      5 PHE5        0.0000 
     38 CZ         98.8400  157.4500  106.3500 C.ar      5 PHE5        0.0000 
     39 CZ         99.7700  156.2900  106.5600 C.ar      5 PHE5        0.0000 
     40 CZ        101.2800  157.6300  107.2200 C.ar      5 PHE5        0.0000 
     41 CA         99.0700  152.8400  101.4800 C.3       6 GLY6        0.0000 
     42 CA         94.1400  151.5100  105.2700 C.3       6 GLY6        0.0000 
     43 CA         95.2400  152.2800  104.6000 C.3       6 GLY6        0.0000 
     44 CA         99.4800  153.4200  102.8000 C.3       6 GLY6        0.0000 
     45 CA        100.5800  154.1800  102.1300 C.3       6 GLY6        0.0000 
     46 CA        101.5200  153.0200  102.3500 C.3       6 GLY6        0.0000 
     47 CA         94.5500  152.0900  106.6000 C.3       6 GLY6        0.0000 
     48 CA        100.6500  150.9100  105.2300 C.3       6 GLY6        0.0000 
     49 CA        100.8200  152.8300  104.3400 C.3       6 GLY6        0.0000 
     50 CA        100.9900  154.7500  103.4600 C.3       6 GLY6        0.0000 
     51 CA        102.0900  155.5200  102.7900 C.3       6 GLY6        0.0000 
     52 CA        101.4000  155.3300  104.7800 C.3       6 GLY6        0.0000 
     53 CA        102.3300  154.1700  105.0000 C.3       6 GLY6        0.0000 
     54 CA        102.5000  156.0900  104.1100 C.3       6 GLY6        0.0000 
     55 CA        100.7000  155.1400  106.7800 C.3       6 GLY6        0.0000 
     56 CA        101.8100  155.9000  106.1100 C.3       6 GLY6        0.0000 
     57 DU         93.6100  153.2400  106.3800 H         7 CUB7        0.0000 
     58 DU         94.7200  154.0100  105.7100 H         7 CUB7        0.0000 
     59 DU         95.8200  154.7700  105.0400 H         7 CUB7        0.0000 
     60 DU         97.8500  154.3800  104.5800 H         7 CUB7        0.0000 
     61 DU         98.9600  155.1400  103.9100 H         7 CUB7        0.0000 
     62 DU         99.8900  153.9900  104.1300 H         7 CUB7        0.0000 
     63 DU        100.0600  155.9100  103.2400 H         7 CUB7        0.0000 
     64 DU         97.3300  156.1100  105.7000 H         7 CUB7        0.0000 
     65 DU         99.3700  155.7200  105.2400 H         7 CUB7        0.0000 
     66 DU        100.3000  154.5600  105.4500 H         7 CUB7        0.0000 
@<TRIPOS>BOND
@<TRIPOS>SUBSTRUCTURE
     1 SER1        1 GROUP   
     2 ALA2        7 GROUP   
     3 ASP3       18 GROUP   
     4 LYS4       30 GROUP   
     5 PHE5       36 GROUP   
     6 GLY6       41 GROUP   
     7 CUB7       57 GROUP   
@<TRIPOS>SET

