#    Name: 6s85_1_ADP_CAVITY_N1_8
#    Modification time : Fri May 22 19:42:09 2020

@<TRIPOS>MOLECULE
6s85_1_ADP_CAVITY_N1_8
   18     0     5     0     0
SMALL
NO_CHARGES


@<TRIPOS>ATOM
      1 OG         98.6100  151.3000  105.6800 O.3       1 SER1        0.0000 
      2 OG         99.5400  150.1500  105.9000 O.3       1 SER1        0.0000 
      3 N         100.4800  148.9900  106.1100 N.am      2 ALA2        0.0000 
      4 N          99.9500  150.7200  107.2200 N.am      2 ALA2        0.0000 
      5 N         100.8800  149.5600  107.4400 N.am      2 ALA2        0.0000 
      6 N         101.2900  150.1400  108.7600 N.am      2 ALA2        0.0000 
      7 OD1        99.1900  153.8000  106.1200 O.co2     3 ASP3        0.0000 
      8 OD1       100.1200  152.6400  106.3400 O.co2     3 ASP3        0.0000 
      9 OD1       100.3600  151.2900  108.5500 O.co2     3 ASP3        0.0000 
     10 OD1        99.6000  154.3700  107.4500 O.co2     3 ASP3        0.0000 
     11 OD1       100.5300  153.2100  107.6600 O.co2     3 ASP3        0.0000 
     12 NZ        101.5800  149.7600  105.4400 N.4       4 LYS4        0.0000 
     13 NZ        101.0600  151.4800  106.5500 N.4       4 LYS4        0.0000 
     14 NZ        101.9900  150.3300  106.7700 N.4       4 LYS4        0.0000 
     15 NZ        101.2300  153.4100  105.6700 N.4       4 LYS4        0.0000 
     16 NZ        101.4600  152.0600  107.8800 N.4       4 LYS4        0.0000 
     17 CA        100.6500  150.9100  105.2300 C.3       5 GLY6        0.0000 
     18 CA        100.7000  155.1400  106.7800 C.3       5 GLY6        0.0000 
@<TRIPOS>BOND
@<TRIPOS>SUBSTRUCTURE
     1 SER1        1 GROUP   
     2 ALA2        3 GROUP   
     3 ASP3        7 GROUP   
     4 LYS4       12 GROUP   
     5 GLY6       17 GROUP   
@<TRIPOS>SET

