#    Name: 6s85_1_ADP_CAVITY_N1_6
#    Modification time : Fri May 22 19:42:09 2020

@<TRIPOS>MOLECULE
6s85_1_ADP_CAVITY_N1_6
    5     0     3     0     0
SMALL
NO_CHARGES


@<TRIPOS>ATOM
      1 N          99.9500  150.7200  107.2200 N.am      1 ALA2        0.0000 
      2 N         100.8800  149.5600  107.4400 N.am      1 ALA2        0.0000 
      3 N         101.2900  150.1400  108.7600 N.am      1 ALA2        0.0000 
      4 OD1       100.3600  151.2900  108.5500 O.co2     2 ASP3        0.0000 
      5 NZ        101.4600  152.0600  107.8800 N.4       3 LYS4        0.0000 
@<TRIPOS>BOND
@<TRIPOS>SUBSTRUCTURE
     1 ALA2        1 GROUP   
     2 ASP3        4 GROUP   
     3 LYS4        5 GROUP   
@<TRIPOS>SET

