#    Name: 6s85_1_ADP
#    Modification time : Fri May 22 19:42:08 2020

@<TRIPOS>MOLECULE
6s85_1_ADP
   27    29     1     0     1
SMALL
NO_CHARGES


@<TRIPOS>ATOM
      1 PB        100.8370  143.1290  111.8050 P.3       1 ADP1101     0.0000 
      2 O1B       100.3830  144.0130  110.6770 O.co2     1 ADP1101     0.0000 
      3 O2B       101.9960  142.2260  111.4800 O.co2     1 ADP1101     0.0000 
      4 O3B        99.7160  142.4450  112.5250 O.co2     1 ADP1101     0.0000 
      5 PA        100.4610  145.1440  113.6960 P.3       1 ADP1101     0.0000 
      6 O1A        99.1740  145.3170  112.9370 O.co2     1 ADP1101     0.0000 
      7 O2A       100.4270  144.7670  115.1480 O.co2     1 ADP1101     0.0000 
      8 O3A       101.4250  144.1500  112.8930 O.3       1 ADP1101     0.0000 
      9 O5'       101.3060  146.4900  113.6020 O.3       1 ADP1101     0.0000 
     10 C5'       101.7170  147.0960  114.8120 C.3       1 ADP1101     0.0000 
     11 C4'       101.4730  148.5930  114.7280 C.3       1 ADP1101     0.0000 
     12 O4'       102.1850  149.2430  115.7700 O.3       1 ADP1101     0.0000 
     13 C3'       101.9660  149.1980  113.4340 C.3       1 ADP1101     0.0000 
     14 O3'       100.9430  150.0540  112.9340 O.3       1 ADP1101     0.0000 
     15 C2'       103.1260  150.0780  113.7830 C.3       1 ADP1101     0.0000 
     16 O2'       103.0190  151.3010  113.0660 O.3       1 ADP1101     0.0000 
     17 C1'       102.9060  150.3430  115.2450 C.3       1 ADP1101     0.0000 
     18 N9        104.1950  150.3900  115.9290 N.pl3     1 ADP1101     0.0000 
     19 C8        105.3410  149.8260  115.5430 C.2       1 ADP1101     0.0000 
     20 N7        106.3200  150.0910  116.4380 N.2       1 ADP1101     0.0000 
     21 C5        105.7780  150.8460  117.4030 C.ar      1 ADP1101     0.0000 
     22 C6        106.2300  151.4840  118.6470 C.ar      1 ADP1101     0.0000 
     23 N6        107.5090  151.3670  119.0590 N.pl3     1 ADP1101     0.0000 
     24 N1        105.3310  152.1840  119.3590 N.ar      1 ADP1101     0.0000 
     25 C2        104.0600  152.3050  118.9600 C.ar      1 ADP1101     0.0000 
     26 N3        103.5750  151.7540  117.8500 N.ar      1 ADP1101     0.0000 
     27 C4        104.3800  151.0380  117.0530 C.ar      1 ADP1101     0.0000 
@<TRIPOS>BOND
     1    1    2 ar   
     2    1    3 ar   
     3    1    4 ar   
     4    1    8 1    
     5    5    6 ar   
     6    5    7 ar   
     7    5    8 1    
     8    5    9 1    
     9    9   10 1    
    10   10   11 1    
    11   11   12 1    
    12   11   13 1    
    13   12   17 1    
    14   13   14 1    
    15   13   15 1    
    16   15   16 1    
    17   15   17 1    
    18   17   18 1    
    19   18   19 1    
    20   18   27 1    
    21   19   20 2    
    22   20   21 1    
    23   21   22 ar   
    24   21   27 ar   
    25   22   23 1    
    26   22   24 ar   
    27   24   25 ar   
    28   25   26 ar   
    29   26   27 ar   
@<TRIPOS>SUBSTRUCTURE
     1 ADP1101     1 GROUP   
@<TRIPOS>SET
ATOM$ORANGE STATIC     ATOMS   COLORGROUP SYSTEM 
20 10 10 11 11 13 13 15 15 17 17 19 19 21 21 22 22 25 \
25 27 27 

