#    Name: 6an2_2_D4T
#    Modification time : Fri May 22 19:34:06 2020

@<TRIPOS>MOLECULE
6an2_2_D4T
   28    29     1     0     0
SMALL
NO_CHARGES


@<TRIPOS>ATOM
      1 PC         18.5990  -42.3980  -11.3570 P.3       1 D4T603      0.0000 
      2 O1C        17.2200  -41.9650  -10.9830 O.co2     1 D4T603      0.0000 
      3 O2C        19.5760  -41.8640  -10.3660 O.co2     1 D4T603      0.0000 
      4 O3C        18.9330  -41.8780  -12.7190 O.co2     1 D4T603      0.0000 
      5 O7'        18.6700  -43.9640  -11.3600 O.3       1 D4T603      0.0000 
      6 PB         19.0510  -44.8050  -10.1010 P.3       1 D4T603      0.0000 
      7 O1B        19.0530  -46.2830  -10.4640 O.co2     1 D4T603      0.0000 
      8 O2B        20.4240  -44.4030   -9.6220 O.co2     1 D4T603      0.0000 
      9 O6'        17.9960  -44.5470   -8.9620 O.3       1 D4T603      0.0000 
     10 PA         18.3660  -44.3440   -7.4790 P.3       1 D4T603      0.0000 
     11 O1A        19.5050  -43.3830   -7.3730 O.co2     1 D4T603      0.0000 
     12 O2A        17.1830  -43.7940   -6.7400 O.co2     1 D4T603      0.0000 
     13 O5'        18.7910  -45.7950   -6.8240 O.3       1 D4T603      0.0000 
     14 C5'        20.1740  -46.0360   -6.5260 C.3       1 D4T603      0.0000 
     15 C4'        20.4760  -47.4820   -6.5810 C.3       1 D4T603      0.0000 
     16 O4'        19.7190  -48.1990   -5.5680 O.3       1 D4T603      0.0000 
     17 C1'        18.8580  -49.1510   -6.1780 C.3       1 D4T603      0.0000 
     18 N1         17.4740  -48.9640   -5.7430 N.am      1 D4T603      0.0000 
     19 C6         17.0330  -47.7770   -5.3750 C.2       1 D4T603      0.0000 
     20 C2         16.6270  -50.0440   -5.7170 C.2       1 D4T603      0.0000 
     21 O2         17.0370  -51.1560   -6.0580 O.2       1 D4T603      0.0000 
     22 N3         15.3270  -49.8910   -5.3130 N.am      1 D4T603      0.0000 
     23 C4         14.8790  -48.6800   -4.9400 C.2       1 D4T603      0.0000 
     24 O4         13.6930  -48.5390   -4.5710 O.2       1 D4T603      0.0000 
     25 C5         15.7110  -47.6190   -4.9650 C.2       1 D4T603      0.0000 
     26 C5A        15.1950  -46.2110   -4.5330 C.3       1 D4T603      0.0000 
     27 C2'        19.0810  -48.9800   -7.6480 C.2       1 D4T603      0.0000 
     28 C3'        19.9820  -48.0500   -7.8490 C.2       1 D4T603      0.0000 
@<TRIPOS>BOND
     1    1    2 ar   
     2    1    3 ar   
     3    1    4 ar   
     4    1    5 1    
     5    5    6 1    
     6    6    7 ar   
     7    6    8 ar   
     8    6    9 1    
     9    9   10 1    
    10   10   11 ar   
    11   10   12 ar   
    12   10   13 1    
    13   13   14 1    
    14   14   15 1    
    15   15   16 1    
    16   15   28 1    
    17   16   17 1    
    18   17   18 1    
    19   17   27 1    
    20   18   19 1    
    21   18   20 1    
    22   19   25 2    
    23   20   21 2    
    24   20   22 1    
    25   22   23 1    
    26   23   24 2    
    27   23   25 1    
    28   25   26 1    
    29   27   28 2    
@<TRIPOS>SUBSTRUCTURE
     1 D4T603      1 GROUP   
@<TRIPOS>SET

