#    Name: 6an2_1_D4T_CAVITY_N1_4
#    Modification time : Fri May 22 19:34:00 2020

@<TRIPOS>MOLECULE
6an2_1_D4T_CAVITY_N1_4
   79     0     7     0     0
SMALL
NO_CHARGES


@<TRIPOS>ATOM
      1 OG         35.0100   22.3100   33.8800 O.3       1 SER1        0.0000 
      2 OG         39.0100   33.7100   33.5800 O.3       1 SER1        0.0000 
      3 OG         38.6000   33.1000   34.8900 O.3       1 SER1        0.0000 
      4 O          35.8300   23.5300   31.2700 O.2       2 ALA2        0.0000 
      5 O          37.3200   27.3100   30.0600 O.2       2 ALA2        0.0000 
      6 O          39.7200   25.7300   31.7900 O.2       2 ALA2        0.0000 
      7 O          38.3200   26.2100   31.5800 O.2       2 ALA2        0.0000 
      8 O          36.9100   26.7000   31.3700 O.2       2 ALA2        0.0000 
      9 O          41.2100   29.5100   30.5900 O.2       2 ALA2        0.0000 
     10 O          40.8000   28.9000   31.8900 O.2       2 ALA2        0.0000 
     11 OD1        36.1700   24.8100   31.9700 O.co2     3 ASP3        0.0000 
     12 OD1        35.7600   24.2000   33.2800 O.co2     3 ASP3        0.0000 
     13 OD1        39.3100   25.1200   33.1000 O.co2     3 ASP3        0.0000 
     14 OD1        37.9100   25.6000   32.8900 O.co2     3 ASP3        0.0000 
     15 OD1        36.5000   26.0900   32.6800 O.co2     3 ASP3        0.0000 
     16 OD1        36.0900   25.4800   33.9800 O.co2     3 ASP3        0.0000 
     17 OD1        38.0700   29.2000   29.4600 O.co2     3 ASP3        0.0000 
     18 OD1        39.0600   28.1000   30.9800 O.co2     3 ASP3        0.0000 
     19 OD1        40.0600   27.0100   32.5000 O.co2     3 ASP3        0.0000 
     20 OD1        38.6500   27.4900   32.2800 O.co2     3 ASP3        0.0000 
     21 OD1        37.2500   27.9800   32.0700 O.co2     3 ASP3        0.0000 
     22 OD1        38.2400   26.8800   33.5900 O.co2     3 ASP3        0.0000 
     23 OD1        37.8400   26.2700   34.9000 O.co2     3 ASP3        0.0000 
     24 OD1        39.8100   30.0000   30.3700 O.co2     3 ASP3        0.0000 
     25 OD1        38.9900   28.7700   32.9900 O.co2     3 ASP3        0.0000 
     26 OD1        38.5800   28.1600   34.3000 O.co2     3 ASP3        0.0000 
     27 OD1        38.1700   27.5500   35.6000 O.co2     3 ASP3        0.0000 
     28 OD1        36.7700   28.0400   35.3900 O.co2     3 ASP3        0.0000 
     29 OD1        37.7600   26.9400   36.9100 O.co2     3 ASP3        0.0000 
     30 OD1        41.9600   31.4000   29.9800 O.co2     3 ASP3        0.0000 
     31 OD1        40.5600   31.8900   29.7700 O.co2     3 ASP3        0.0000 
     32 OD1        40.1500   31.2800   31.0800 O.co2     3 ASP3        0.0000 
     33 OD1        41.1400   30.1800   32.6000 O.co2     3 ASP3        0.0000 
     34 OD1        42.1400   29.0800   34.1200 O.co2     3 ASP3        0.0000 
     35 OD1        40.7300   29.5700   33.9000 O.co2     3 ASP3        0.0000 
     36 OD1        39.3300   30.0500   33.6900 O.co2     3 ASP3        0.0000 
     37 OD1        37.5200   29.9300   34.7900 O.co2     3 ASP3        0.0000 
     38 OD1        35.7100   29.8100   35.8900 O.co2     3 ASP3        0.0000 
     39 OD1        43.7000   32.2000   30.9000 O.co2     3 ASP3        0.0000 
     40 OD1        41.8900   32.0700   31.9900 O.co2     3 ASP3        0.0000 
     41 OD1        40.0800   31.9500   33.0900 O.co2     3 ASP3        0.0000 
     42 OD1        39.6700   31.3400   34.4000 O.co2     3 ASP3        0.0000 
     43 OD1        38.2600   31.8200   34.1900 O.co2     3 ASP3        0.0000 
     44 OD1        36.0400   31.0900   36.5900 O.co2     3 ASP3        0.0000 
     45 OD1        35.6300   30.4700   37.9000 O.co2     3 ASP3        0.0000 
     46 OD1        42.2300   33.3500   32.7000 O.co2     3 ASP3        0.0000 
     47 NZ         37.7300   27.9200   28.7500 N.4       4 LYS4        0.0000 
     48 NZ         37.5000   24.9900   34.1900 N.4       4 LYS4        0.0000 
     49 NZ         43.0200   29.6300   29.4900 N.4       4 LYS4        0.0000 
     50 CZ         37.2300   23.0400   31.4800 C.ar      5 PHE5        0.0000 
     51 CZ         36.8200   22.4300   32.7900 C.ar      5 PHE5        0.0000 
     52 CZ         35.4200   22.9200   32.5700 C.ar      5 PHE5        0.0000 
     53 CZ         36.4100   21.8200   34.0900 C.ar      5 PHE5        0.0000 
     54 CA         38.2200   21.9400   33.0000 C.3       6 GLY6        0.0000 
     55 CA         37.5700   24.3200   32.1800 C.3       6 GLY6        0.0000 
     56 CA         38.5600   23.2200   33.7000 C.3       6 GLY6        0.0000 
     57 CA         37.1600   23.7100   33.4900 C.3       6 GLY6        0.0000 
     58 CA         36.7500   23.1000   34.8000 C.3       6 GLY6        0.0000 
     59 CA         35.3500   23.5900   34.5900 C.3       6 GLY6        0.0000 
     60 CA         38.7200   26.8200   30.2700 C.3       6 GLY6        0.0000 
     61 CA         37.0900   24.3800   35.5000 C.3       6 GLY6        0.0000 
     62 CA         37.4300   25.6600   36.2100 C.3       6 GLY6        0.0000 
     63 CA         44.7700   30.4300   30.4100 C.3       6 GLY6        0.0000 
     64 CA         43.3600   30.9200   30.1900 C.3       6 GLY6        0.0000 
     65 CA         42.9500   30.3000   31.5000 C.3       6 GLY6        0.0000 
     66 CA         41.5500   30.7900   31.2900 C.3       6 GLY6        0.0000 
     67 CA         42.5400   29.6900   32.8100 C.3       6 GLY6        0.0000 
     68 CA         43.2900   31.5800   32.2100 C.3       6 GLY6        0.0000 
     69 CA         40.4800   32.5600   31.7800 C.3       6 GLY6        0.0000 
     70 CA         42.8800   30.9700   33.5100 C.3       6 GLY6        0.0000 
     71 CA         42.4700   30.3600   34.8200 C.3       6 GLY6        0.0000 
     72 CA         41.0700   30.8500   34.6100 C.3       6 GLY6        0.0000 
     73 CA         36.4500   31.7000   35.2800 C.3       6 GLY6        0.0000 
     74 CA         43.6300   32.8700   32.9100 C.3       6 GLY6        0.0000 
     75 CA         43.2200   32.2500   34.2200 C.3       6 GLY6        0.0000 
     76 CA         41.8200   32.7400   34.0100 C.3       6 GLY6        0.0000 
     77 CA         40.4100   33.2300   33.7900 C.3       6 GLY6        0.0000 
     78 CA         40.0100   32.6200   35.1000 C.3       6 GLY6        0.0000 
     79 DU         41.4800   31.4600   33.3000 H         7 CUB7        0.0000 
@<TRIPOS>BOND
@<TRIPOS>SUBSTRUCTURE
     1 SER1        1 GROUP   
     2 ALA2        4 GROUP   
     3 ASP3       11 GROUP   
     4 LYS4       47 GROUP   
     5 PHE5       50 GROUP   
     6 GLY6       54 GROUP   
     7 CUB7       79 GROUP   
@<TRIPOS>SET

