#    Name: 6an2_1_D4T
#    Modification time : Fri May 22 19:33:59 2020

@<TRIPOS>MOLECULE
6an2_1_D4T
   28    29     1     0     0
SMALL
NO_CHARGES


@<TRIPOS>ATOM
      1 PC         40.3830   29.2020   33.0010 P.3       1 D4T603      0.0000 
      2 O1C        39.3950   30.2190   33.4700 O.co2     1 D4T603      0.0000 
      3 O2C        40.9400   28.4710   34.1730 O.co2     1 D4T603      0.0000 
      4 O3C        41.4930   29.8880   32.2690 O.co2     1 D4T603      0.0000 
      5 O7'        39.6720   28.1860   32.0420 O.3       1 D4T603      0.0000 
      6 PB         38.9350   26.9010   32.5390 P.3       1 D4T603      0.0000 
      7 O1B        38.4100   26.1220   31.3410 O.co2     1 D4T603      0.0000 
      8 O2B        39.8970   26.0340   33.3130 O.co2     1 D4T603      0.0000 
      9 O6'        37.7290   27.3100   33.4630 O.3       1 D4T603      0.0000 
     10 PA         37.4230   26.6310   34.8110 P.3       1 D4T603      0.0000 
     11 O1A        36.3960   27.4300   35.5570 O.co2     1 D4T603      0.0000 
     12 O2A        38.6780   26.5520   35.6190 O.co2     1 D4T603      0.0000 
     13 O5'        36.8440   25.1150   34.5330 O.3       1 D4T603      0.0000 
     14 C5'        37.6810   24.0110   34.9030 C.3       1 D4T603      0.0000 
     15 C4'        37.3630   22.8060   34.1130 C.3       1 D4T603      0.0000 
     16 O4'        36.0930   22.2580   34.5520 O.3       1 D4T603      0.0000 
     17 C1'        35.1560   22.2870   33.4870 C.3       1 D4T603      0.0000 
     18 N1         33.9550   23.0130   33.8840 N.am      1 D4T603      0.0000 
     19 C6         34.0030   23.9400   34.8200 C.2       1 D4T603      0.0000 
     20 C2         32.7660   22.7200   33.2700 C.2       1 D4T603      0.0000 
     21 O2         32.7250   21.8510   32.3960 O.2       1 D4T603      0.0000 
     22 N3         31.6250   23.3880   33.6260 N.am      1 D4T603      0.0000 
     23 C4         31.6720   24.3340   34.5790 C.2       1 D4T603      0.0000 
     24 O4         30.6320   24.9450   34.9040 O.2       1 D4T603      0.0000 
     25 C5         32.8440   24.6220   35.1830 C.2       1 D4T603      0.0000 
     26 C5A        32.9040   25.7200   36.2900 C.3       1 D4T603      0.0000 
     27 C2'        35.8930   22.9060   32.3420 C.2       1 D4T603      0.0000 
     28 C3'        37.1180   23.1870   32.7120 C.2       1 D4T603      0.0000 
@<TRIPOS>BOND
     1    1    2 ar   
     2    1    3 ar   
     3    1    4 ar   
     4    1    5 1    
     5    5    6 1    
     6    6    7 ar   
     7    6    8 ar   
     8    6    9 1    
     9    9   10 1    
    10   10   11 ar   
    11   10   12 ar   
    12   10   13 1    
    13   13   14 1    
    14   14   15 1    
    15   15   16 1    
    16   15   28 1    
    17   16   17 1    
    18   17   18 1    
    19   17   27 1    
    20   18   19 1    
    21   18   20 1    
    22   19   25 2    
    23   20   21 2    
    24   20   22 1    
    25   22   23 1    
    26   23   24 2    
    27   23   25 1    
    28   25   26 1    
    29   27   28 2    
@<TRIPOS>SUBSTRUCTURE
     1 D4T603      1 GROUP   
@<TRIPOS>SET

