#    Name: 6bq4_2_ADN
#    Modification time : Fri May 22 19:30:53 2020

@<TRIPOS>MOLECULE
6bq4_2_ADN
   19    21     1     0     0
SMALL
NO_CHARGES


@<TRIPOS>ATOM
      1 O5'        22.2430   44.7320   14.1760 O.3       1 ADN401      0.0000 
      2 C5'        21.1980   44.9850   15.0680 C.3       1 ADN401      0.0000 
      3 C4'        20.6810   46.3900   14.9200 C.3       1 ADN401      0.0000 
      4 O4'        21.6600   47.2840   15.3320 O.3       1 ADN401      0.0000 
      5 C3'        20.3420   46.7540   13.5050 C.3       1 ADN401      0.0000 
      6 O3'        19.0420   47.2770   13.5330 O.3       1 ADN401      0.0000 
      7 C2'        21.3420   47.8440   13.1910 C.3       1 ADN401      0.0000 
      8 O2'        20.8200   48.8110   12.3290 O.3       1 ADN401      0.0000 
      9 C1'        21.6270   48.4210   14.5440 C.3       1 ADN401      0.0000 
     10 N9         22.9430   49.0490   14.6850 N.pl3     1 ADN401      0.0000 
     11 C8         24.1200   48.6360   14.2560 C.2       1 ADN401      0.0000 
     12 N7         25.0670   49.4850   14.6210 N.2       1 ADN401      0.0000 
     13 C5         24.5100   50.4380   15.3270 C.ar      1 ADN401      0.0000 
     14 C6         24.9440   51.6400   16.0190 C.ar      1 ADN401      0.0000 
     15 N6         26.2160   52.0210   16.0330 N.pl3     1 ADN401      0.0000 
     16 N1         24.0120   52.3430   16.6300 N.ar      1 ADN401      0.0000 
     17 C2         22.7450   51.9940   16.6140 C.ar      1 ADN401      0.0000 
     18 N3         22.2800   50.9240   16.0180 N.ar      1 ADN401      0.0000 
     19 C4         23.1040   50.1330   15.3650 C.ar      1 ADN401      0.0000 
@<TRIPOS>BOND
     1    1    2 1    
     2    2    3 1    
     3    3    4 1    
     4    3    5 1    
     5    4    9 1    
     6    5    6 1    
     7    5    7 1    
     8    7    8 1    
     9    7    9 1    
    10    9   10 1    
    11   10   11 1    
    12   10   19 1    
    13   11   12 2    
    14   12   13 1    
    15   13   14 ar   
    16   13   19 ar   
    17   14   15 1    
    18   14   16 ar   
    19   16   17 ar   
    20   17   18 ar   
    21   18   19 ar   
@<TRIPOS>SUBSTRUCTURE
     1 ADN401      1 GROUP   
@<TRIPOS>SET

