#    Name: 6bq4_1_ADN
#    Modification time : Fri May 22 19:30:48 2020

@<TRIPOS>MOLECULE
6bq4_1_ADN
   19    21     1     0     0
SMALL
NO_CHARGES


@<TRIPOS>ATOM
      1 O5'        19.3240    3.0320   19.8860 O.3       1 ADN401      0.0000 
      2 C5'        20.3320    3.1140   20.8540 C.3       1 ADN401      0.0000 
      3 C4'        20.7930    1.7170   21.1720 C.3       1 ADN401      0.0000 
      4 O4'        19.7430    0.9590   21.7120 O.3       1 ADN401      0.0000 
      5 C3'        21.2160    0.9950   19.9280 C.3       1 ADN401      0.0000 
      6 O3'        22.5410    0.5870   20.1510 O.3       1 ADN401      0.0000 
      7 C2'        20.2550   -0.1580   19.8430 C.3       1 ADN401      0.0000 
      8 O2'        20.8890   -1.3030   19.3710 O.3       1 ADN401      0.0000 
      9 C1'        19.8350   -0.3510   21.2640 C.3       1 ADN401      0.0000 
     10 N9         18.5200   -0.9660   21.4280 N.pl3     1 ADN401      0.0000 
     11 C8         17.4240   -0.7710   20.7290 C.2       1 ADN401      0.0000 
     12 N7         16.4130   -1.5070   21.1800 N.2       1 ADN401      0.0000 
     13 C5         16.8720   -2.1750   22.2130 C.ar      1 ADN401      0.0000 
     14 C6         16.3640   -3.1490   23.1620 C.ar      1 ADN401      0.0000 
     15 N6         15.0990   -3.5350   23.1030 N.pl3     1 ADN401      0.0000 
     16 N1         17.1890   -3.6300   24.0860 N.ar      1 ADN401      0.0000 
     17 C2         18.4460   -3.2540   24.1660 C.ar      1 ADN401      0.0000 
     18 N3         18.9790   -2.3730   23.3420 N.ar      1 ADN401      0.0000 
     19 C4         18.2600   -1.8210   22.3680 C.ar      1 ADN401      0.0000 
@<TRIPOS>BOND
     1    1    2 1    
     2    2    3 1    
     3    3    4 1    
     4    3    5 1    
     5    4    9 1    
     6    5    6 1    
     7    5    7 1    
     8    7    8 1    
     9    7    9 1    
    10    9   10 1    
    11   10   11 1    
    12   10   19 1    
    13   11   12 2    
    14   12   13 1    
    15   13   14 ar   
    16   13   19 ar   
    17   14   15 1    
    18   14   16 ar   
    19   16   17 ar   
    20   17   18 ar   
    21   18   19 ar   
@<TRIPOS>SUBSTRUCTURE
     1 ADN401      1 GROUP   
@<TRIPOS>SET

