#    Name: 6bq4_2_ADN_CAVITY_N1_4
#    Modification time : Fri May 22 19:30:54 2020

@<TRIPOS>MOLECULE
6bq4_2_ADN_CAVITY_N1_4
   68     0     4     0     0
SMALL
NO_CHARGES


@<TRIPOS>ATOM
      1 N          24.2900   42.9300   11.2800 N.am      1 ALA2        0.0000 
      2 N          23.1000   43.5000   10.5800 N.am      1 ALA2        0.0000 
      3 N          22.2600   43.2700   11.8000 N.am      1 ALA2        0.0000 
      4 N          22.6200   42.4800   13.7400 N.am      1 ALA2        0.0000 
      5 N          21.7900   42.2500   14.9600 N.am      1 ALA2        0.0000 
      6 N          20.6000   42.8200   14.2600 N.am      1 ALA2        0.0000 
      7 N          20.9600   42.0200   16.1900 N.am      1 ALA2        0.0000 
      8 N          19.7600   42.5900   15.4800 N.am      1 ALA2        0.0000 
      9 N          18.5700   43.1700   14.7800 N.am      1 ALA2        0.0000 
     10 N          22.6200   44.6400   12.3000 N.am      1 ALA2        0.0000 
     11 O          22.1500   43.6200   15.4600 O.2       1 ALA2        0.0000 
     12 N          21.3200   43.3900   16.6900 N.am      1 ALA2        0.0000 
     13 N          20.1200   43.9600   15.9800 N.am      1 ALA2        0.0000 
     14 N          23.8200   46.2400   11.5700 N.am      1 ALA2        0.0000 
     15 N          22.9800   46.0100   12.8000 N.am      1 ALA2        0.0000 
     16 N          21.7900   46.5800   12.0900 N.am      1 ALA2        0.0000 
     17 O          23.3400   45.2100   14.7300 O.2       1 ALA2        0.0000 
     18 N          20.9600   46.3500   13.3200 N.am      1 ALA2        0.0000 
     19 N          21.3200   45.5600   15.2500 N.am      1 ALA2        0.0000 
     20 O          23.8200   48.4000   10.1400 O.2       1 ALA2        0.0000 
     21 N          24.1800   47.6000   12.0700 N.am      1 ALA2        0.0000 
     22 O          22.9900   48.1700   11.3600 O.2       1 ALA2        0.0000 
     23 N          24.5400   46.8100   14.0000 N.am      1 ALA2        0.0000 
     24 O          22.1500   47.9500   12.5900 O.2       1 ALA2        0.0000 
     25 O          23.7100   46.5800   15.2300 O.2       1 ALA2        0.0000 
     26 N          21.6800   46.9300   15.7500 N.am      1 ALA2        0.0000 
     27 N          24.9000   48.1700   14.5000 N.am      1 ALA2        0.0000 
     28 N          25.2600   49.5400   15.0000 N.am      1 ALA2        0.0000 
     29 O          22.0400   50.4600   14.8100 O.2       1 ALA2        0.0000 
     30 N          26.4500   51.1400   14.2700 N.am      1 ALA2        0.0000 
     31 N          25.6200   50.9100   15.4900 N.am      1 ALA2        0.0000 
     32 NZ         18.9300   42.3700   16.7100 N.4       2 LYS4        0.0000 
     33 NZ         20.1200   46.1300   14.5500 N.4       2 LYS4        0.0000 
     34 NZ         21.3200   47.7200   13.8200 N.4       2 LYS4        0.0000 
     35 NZ         20.4800   47.5000   15.0400 N.4       2 LYS4        0.0000 
     36 NZ         21.6800   49.0900   14.3100 N.4       2 LYS4        0.0000 
     37 NZ         20.8500   48.8700   15.5400 N.4       2 LYS4        0.0000 
     38 CA         23.4600   42.7000   12.5100 C.3       3 GLY6        0.0000 
     39 CA         21.4300   43.0500   13.0300 C.3       3 GLY6        0.0000 
     40 CA         22.9800   41.6800   15.6700 C.3       3 GLY6        0.0000 
     41 CA         19.4000   43.3900   13.5500 C.3       3 GLY6        0.0000 
     42 CA         24.6500   44.3000   11.7800 C.3       3 GLY6        0.0000 
     43 CA         23.8200   44.0700   13.0100 C.3       3 GLY6        0.0000 
     44 CA         22.9800   43.8400   14.2300 C.3       3 GLY6        0.0000 
     45 CA         21.7900   44.4100   13.5300 C.3       3 GLY6        0.0000 
     46 CA         20.6000   44.9900   12.8200 C.3       3 GLY6        0.0000 
     47 CA         19.7600   44.7600   14.0500 C.3       3 GLY6        0.0000 
     48 CA         25.0100   45.6600   12.2800 C.3       3 GLY6        0.0000 
     49 CA         24.1800   45.4400   13.5000 C.3       3 GLY6        0.0000 
     50 CA         25.0100   47.8300   10.8400 C.3       3 GLY6        0.0000 
     51 CA         25.3700   47.0300   12.7800 C.3       3 GLY6        0.0000 
     52 CA         24.5400   48.9700   12.5700 C.3       3 GLY6        0.0000 
     53 CA         23.7100   48.7500   13.7900 C.3       3 GLY6        0.0000 
     54 CA         22.5100   49.3200   13.0900 C.3       3 GLY6        0.0000 
     55 CA         24.0700   47.9500   15.7300 C.3       3 GLY6        0.0000 
     56 CA         22.8700   48.5200   15.0200 C.3       3 GLY6        0.0000 
     57 CA         22.0400   48.2900   16.2500 C.3       3 GLY6        0.0000 
     58 CA         24.0700   50.1100   14.2900 C.3       3 GLY6        0.0000 
     59 CA         23.2300   49.8900   15.5200 C.3       3 GLY6        0.0000 
     60 CA         21.2100   50.2300   16.0400 C.3       3 GLY6        0.0000 
     61 CA         24.4300   51.4800   14.7900 C.3       3 GLY6        0.0000 
     62 CA         24.7900   50.6900   16.7200 C.3       3 GLY6        0.0000 
     63 CA         23.5900   51.2600   16.0100 C.3       3 GLY6        0.0000 
     64 CA         22.7600   51.0300   17.2400 C.3       3 GLY6        0.0000 
     65 DU         20.9600   44.1900   14.7500 H         4 CUB7        0.0000 
     66 DU         22.1500   45.7800   14.0300 H         4 CUB7        0.0000 
     67 DU         23.3500   47.3800   13.3000 H         4 CUB7        0.0000 
     68 DU         22.5100   47.1500   14.5200 H         4 CUB7        0.0000 
@<TRIPOS>BOND
@<TRIPOS>SUBSTRUCTURE
     1 ALA2        1 GROUP   
     2 LYS4       32 GROUP   
     3 GLY6       38 GROUP   
     4 CUB7       65 GROUP   
@<TRIPOS>SET

