#    Name: 6bq4_1_ADN_CAVITY_N1_4
#    Modification time : Fri May 22 19:30:49 2020

@<TRIPOS>MOLECULE
6bq4_1_ADN_CAVITY_N1_4
   67     0     4     0     0
SMALL
NO_CHARGES


@<TRIPOS>ATOM
      1 O          18.1500   -1.9900   17.1800 O.2       1 ALA2        0.0000 
      2 N          15.6500   -2.6700   20.8600 N.am      1 ALA2        0.0000 
      3 O          17.2000   -4.0400   23.5000 O.2       1 ALA2        0.0000 
      4 O          19.7000   -1.2000   18.3800 O.2       1 ALA2        0.0000 
      5 O          18.5100   -0.6200   17.6800 O.2       1 ALA2        0.0000 
      6 N          17.3200   -0.0500   16.9700 N.am      1 ALA2        0.0000 
      7 N          16.8400   -1.0800   20.1300 N.am      1 ALA2        0.0000 
      8 N          16.0100   -1.3000   21.3600 N.am      1 ALA2        0.0000 
      9 O          22.0900   -0.1700   18.3600 O.2       1 ALA2        0.0000 
     10 O          20.0600    0.1700   18.8800 O.2       1 ALA2        0.0000 
     11 N          18.8700    0.7400   18.1800 N.am      1 ALA2        0.0000 
     12 N          17.6800    1.3200   17.4700 N.am      1 ALA2        0.0000 
     13 N          18.0400    0.5200   19.4000 N.am      1 ALA2        0.0000 
     14 N          16.8400    1.0900   18.7000 N.am      1 ALA2        0.0000 
     15 N          17.2000    0.2900   20.6300 N.am      1 ALA2        0.0000 
     16 N          19.2300    2.1100   18.6700 N.am      1 ALA2        0.0000 
     17 N          18.0400    2.6800   17.9700 N.am      1 ALA2        0.0000 
     18 O          18.4000    1.8900   19.9000 O.2       1 ALA2        0.0000 
     19 N          17.5600    1.6600   21.1300 N.am      1 ALA2        0.0000 
     20 N          19.2300    4.2800   17.2400 N.am      1 ALA2        0.0000 
     21 N          21.1500    2.1100   21.8100 N.am      1 ALA2        0.0000 
     22 N          19.9500    2.6800   21.1000 N.am      1 ALA2        0.0000 
     23 O          18.7600    3.2600   20.4000 O.2       1 ALA2        0.0000 
     24 N          21.1500    4.2800   20.3700 N.am      1 ALA2        0.0000 
     25 N          19.9500    4.8500   19.6700 N.am      1 ALA2        0.0000 
     26 N          20.3100    4.0500   21.6000 N.am      1 ALA2        0.0000 
     27 O          19.1200    4.6200   20.8900 O.2       1 ALA2        0.0000 
     28 N          19.1200    6.7900   19.4600 N.am      1 ALA2        0.0000 
     29 N          20.6700    5.4200   22.1000 N.am      1 ALA2        0.0000 
     30 N          19.4800    5.9900   21.3900 N.am      1 ALA2        0.0000 
     31 NZ         16.0100   -3.4700   22.7900 N.4       2 LYS4        0.0000 
     32 NZ         21.2600   -0.4000   19.5900 N.4       2 LYS4        0.0000 
     33 NZ         20.4200   -0.6200   20.8100 N.4       2 LYS4        0.0000 
     34 NZ         19.5900   -0.8500   22.0400 N.4       2 LYS4        0.0000 
     35 NZ         21.6200    0.9700   20.0800 N.4       2 LYS4        0.0000 
     36 NZ         20.7900    0.7400   21.3100 N.4       2 LYS4        0.0000 
     37 CA         17.3200   -2.2200   18.4100 C.3       3 GLY6        0.0000 
     38 CA         16.4800   -2.4400   19.6300 C.3       3 GLY6        0.0000 
     39 CA         16.8400   -3.2400   21.5700 C.3       3 GLY6        0.0000 
     40 CA         18.8700   -1.4200   19.6100 C.3       3 GLY6        0.0000 
     41 CA         17.6800   -0.8500   18.9000 C.3       3 GLY6        0.0000 
     42 CA         16.4800   -0.2800   18.2000 C.3       3 GLY6        0.0000 
     43 CA         19.2300   -2.2200   21.5400 C.3       3 GLY6        0.0000 
     44 CA         18.0400   -1.6500   20.8400 C.3       3 GLY6        0.0000 
     45 CA         15.6500   -0.5000   19.4200 C.3       3 GLY6        0.0000 
     46 CA         18.4000   -2.4400   22.7700 C.3       3 GLY6        0.0000 
     47 CA         17.2000   -1.8700   22.0600 C.3       3 GLY6        0.0000 
     48 CA         17.5600   -2.6700   24.0000 C.3       3 GLY6        0.0000 
     49 CA         16.3700   -2.1000   23.2900 C.3       3 GLY6        0.0000 
     50 CA         18.4000   -0.2800   21.3300 C.3       3 GLY6        0.0000 
     51 CA         18.7600   -1.0800   23.2700 C.3       3 GLY6        0.0000 
     52 CA         21.2600    1.7700   18.1500 C.3       3 GLY6        0.0000 
     53 CA         16.8400    3.2600   17.2600 C.3       3 GLY6        0.0000 
     54 CA         17.2000    2.4600   19.1900 C.3       3 GLY6        0.0000 
     55 CA         19.9500    0.5200   22.5400 C.3       3 GLY6        0.0000 
     56 CA         18.7600    1.0900   21.8300 C.3       3 GLY6        0.0000 
     57 CA         21.6200    3.1400   18.6500 C.3       3 GLY6        0.0000 
     58 CA         20.4300    3.7100   17.9400 C.3       3 GLY6        0.0000 
     59 CA         19.5900    3.4800   19.1700 C.3       3 GLY6        0.0000 
     60 CA         18.4000    4.0500   18.4600 C.3       3 GLY6        0.0000 
     61 CA         19.1200    2.4600   22.3300 C.3       3 GLY6        0.0000 
     62 CA         18.7600    5.4200   18.9600 C.3       3 GLY6        0.0000 
     63 CA         17.5700    5.9900   18.2500 C.3       3 GLY6        0.0000 
     64 DU         19.2300   -0.0500   20.1100 H         4 CUB7        0.0000 
     65 DU         20.4300    1.5400   19.3800 H         4 CUB7        0.0000 
     66 DU         19.5900    1.3200   20.6100 H         4 CUB7        0.0000 
     67 DU         20.7900    2.9100   19.8800 H         4 CUB7        0.0000 
@<TRIPOS>BOND
@<TRIPOS>SUBSTRUCTURE
     1 ALA2        1 GROUP   
     2 LYS4       31 GROUP   
     3 GLY6       37 GROUP   
     4 CUB7       64 GROUP   
@<TRIPOS>SET

