#    Name: 6v35_6_CLR
#    Modification time : Fri May 22 19:28:09 2020

@<TRIPOS>MOLECULE
6v35_6_CLR
   28    31     1     0     0
SMALL
NO_CHARGES


@<TRIPOS>ATOM
      1 C1        177.9310  127.7250  200.0370 C.3       1 CLR2306     0.0000 
      2 C2        177.9170  127.6510  201.5910 C.3       1 CLR2306     0.0000 
      3 C3        178.7840  128.6900  202.3350 C.3       1 CLR2306     0.0000 
      4 C4        179.6710  129.5350  201.3970 C.3       1 CLR2306     0.0000 
      5 C5        178.7760  130.1860  200.3040 C.2       1 CLR2306     0.0000 
      6 C6        179.5860  131.3310  199.5890 C.2       1 CLR2306     0.0000 
      7 C7        180.1560  131.0010  198.1200 C.3       1 CLR2306     0.0000 
      8 C8        179.0810  130.3370  197.2100 C.3       1 CLR2306     0.0000 
      9 C9        178.7290  128.9050  197.9910 C.3       1 CLR2306     0.0000 
     10 C10       178.0730  129.1390  199.3970 C.3       1 CLR2306     0.0000 
     11 C11       177.8670  128.0190  197.1280 C.3       1 CLR2306     0.0000 
     12 C12       178.2790  127.9800  195.5180 C.3       1 CLR2306     0.0000 
     13 C13       178.5470  129.3240  194.8830 C.3       1 CLR2306     0.0000 
     14 C14       179.5400  130.1860  195.8100 C.3       1 CLR2306     0.0000 
     15 C15       179.9300  131.4990  194.9430 C.3       1 CLR2306     0.0000 
     16 C16       179.5830  131.2010  193.4290 C.3       1 CLR2306     0.0000 
     17 C17       179.1190  129.5250  193.3630 C.3       1 CLR2306     0.0000 
     18 C18       177.2220  130.1450  194.8800 C.3       1 CLR2306     0.0000 
     19 C19       176.6800  129.6840  199.1850 C.3       1 CLR2306     0.0000 
     20 C20       178.2460  129.2870  192.3320 C.3       1 CLR2306     0.0000 
     21 C21       178.1730  127.7460  191.9150 C.3       1 CLR2306     0.0000 
     22 C22       178.7110  130.0410  190.9810 C.3       1 CLR2306     0.0000 
     23 C23       177.5470  130.8520  190.3350 C.3       1 CLR2306     0.0000 
     24 C24       177.9980  132.3170  190.0930 C.3       1 CLR2306     0.0000 
     25 C25       178.1520  132.6090  188.5580 C.3       1 CLR2306     0.0000 
     26 C26       177.7490  134.0040  188.2100 C.3       1 CLR2306     0.0000 
     27 C27       179.5990  132.2420  188.0110 C.3       1 CLR2306     0.0000 
     28 O1        177.9200  129.5440  203.0510 O.3       1 CLR2306     0.0000 
@<TRIPOS>BOND
     1    1    2 1    
     2    1   10 1    
     3    2    3 1    
     4    3    4 1    
     5    3   28 1    
     6    4    5 1    
     7    5    6 2    
     8    5   10 1    
     9    6    7 1    
    10    7    8 1    
    11    8    9 1    
    12    8   14 1    
    13    9   10 1    
    14    9   11 1    
    15   10   19 1    
    16   11   12 1    
    17   12   13 1    
    18   13   14 1    
    19   13   17 1    
    20   13   18 1    
    21   14   15 1    
    22   15   16 1    
    23   16   17 1    
    24   17   20 1    
    25   20   21 1    
    26   20   22 1    
    27   22   23 1    
    28   23   24 1    
    29   24   25 1    
    30   25   26 1    
    31   25   27 1    
@<TRIPOS>SUBSTRUCTURE
     1 CLR2306     1 GROUP   
@<TRIPOS>SET

