#    Name: 6v35_5_CLR
#    Modification time : Fri May 22 19:28:02 2020

@<TRIPOS>MOLECULE
6v35_5_CLR
   28    31     1     0     0
SMALL
NO_CHARGES


@<TRIPOS>ATOM
      1 C1        127.7650  154.7850  200.0090 C.3       1 CLR2305     0.0000 
      2 C2        127.6900  154.8000  201.5630 C.3       1 CLR2305     0.0000 
      3 C3        128.7300  153.9370  202.3090 C.3       1 CLR2305     0.0000 
      4 C4        129.5790  153.0510  201.3720 C.3       1 CLR2305     0.0000 
      5 C5        130.2280  153.9470  200.2790 C.2       1 CLR2305     0.0000 
      6 C6        131.3760  153.1390  199.5660 C.2       1 CLR2305     0.0000 
      7 C7        131.0490  152.5670  198.0970 C.3       1 CLR2305     0.0000 
      8 C8        130.3830  153.6390  197.1850 C.3       1 CLR2305     0.0000 
      9 C9        128.9500  153.9880  197.9650 C.3       1 CLR2305     0.0000 
     10 C10       129.1800  154.6460  199.3700 C.3       1 CLR2305     0.0000 
     11 C11       128.0620  154.8470  197.1000 C.3       1 CLR2305     0.0000 
     12 C12       128.0260  154.4330  195.4900 C.3       1 CLR2305     0.0000 
     13 C13       129.3710  154.1680  194.8570 C.3       1 CLR2305     0.0000 
     14 C14       130.2350  153.1780  195.7860 C.3       1 CLR2305     0.0000 
     15 C15       131.5500  152.7910  194.9200 C.3       1 CLR2305     0.0000 
     16 C16       131.2520  153.1350  193.4060 C.3       1 CLR2305     0.0000 
     17 C17       129.5750  153.5950  193.3380 C.3       1 CLR2305     0.0000 
     18 C18       130.1890  155.4950  194.8530 C.3       1 CLR2305     0.0000 
     19 C19       129.7220  156.0400  199.1570 C.3       1 CLR2305     0.0000 
     20 C20       129.3360  154.4660  192.3060 C.3       1 CLR2305     0.0000 
     21 C21       127.7950  154.5350  191.8870 C.3       1 CLR2305     0.0000 
     22 C22       130.0920  154.0020  190.9560 C.3       1 CLR2305     0.0000 
     23 C23       130.9010  155.1670  190.3090 C.3       1 CLR2305     0.0000 
     24 C24       132.3670  154.7200  190.0690 C.3       1 CLR2305     0.0000 
     25 C25       132.6610  154.5650  188.5350 C.3       1 CLR2305     0.0000 
     26 C26       134.0550  154.9710  188.1880 C.3       1 CLR2305     0.0000 
     27 C27       132.2990  153.1160  187.9890 C.3       1 CLR2305     0.0000 
     28 O1        129.5810  154.8040  203.0240 O.3       1 CLR2305     0.0000 
@<TRIPOS>BOND
     1    1    2 1    
     2    1   10 1    
     3    2    3 1    
     4    3    4 1    
     5    3   28 1    
     6    4    5 1    
     7    5    6 2    
     8    5   10 1    
     9    6    7 1    
    10    7    8 1    
    11    8    9 1    
    12    8   14 1    
    13    9   10 1    
    14    9   11 1    
    15   10   19 1    
    16   11   12 1    
    17   12   13 1    
    18   13   14 1    
    19   13   17 1    
    20   13   18 1    
    21   14   15 1    
    22   15   16 1    
    23   16   17 1    
    24   17   20 1    
    25   20   21 1    
    26   20   22 1    
    27   22   23 1    
    28   23   24 1    
    29   24   25 1    
    30   25   26 1    
    31   25   27 1    
@<TRIPOS>SUBSTRUCTURE
     1 CLR2305     1 GROUP   
@<TRIPOS>SET

