#    Name: 6v35_7_CLR
#    Modification time : Fri May 22 19:28:16 2020

@<TRIPOS>MOLECULE
6v35_7_CLR
   28    31     1     0     0
SMALL
NO_CHARGES


@<TRIPOS>ATOM
      1 C1        205.0280  178.0130  200.0040 C.3       1 CLR2305     0.0000 
      2 C2        205.1030  177.9980  201.5580 C.3       1 CLR2305     0.0000 
      3 C3        204.0630  178.8610  202.3030 C.3       1 CLR2305     0.0000 
      4 C4        203.2140  179.7470  201.3660 C.3       1 CLR2305     0.0000 
      5 C5        202.5650  178.8510  200.2730 C.2       1 CLR2305     0.0000 
      6 C6        201.4170  179.6590  199.5600 C.2       1 CLR2305     0.0000 
      7 C7        201.7450  180.2300  198.0910 C.3       1 CLR2305     0.0000 
      8 C8        202.4110  179.1580  197.1790 C.3       1 CLR2305     0.0000 
      9 C9        203.8440  178.8090  197.9590 C.3       1 CLR2305     0.0000 
     10 C10       203.6130  178.1520  199.3640 C.3       1 CLR2305     0.0000 
     11 C11       204.7320  177.9500  197.0950 C.3       1 CLR2305     0.0000 
     12 C12       204.7680  178.3640  195.4850 C.3       1 CLR2305     0.0000 
     13 C13       203.4230  178.6290  194.8510 C.3       1 CLR2305     0.0000 
     14 C14       202.5590  179.6190  195.7800 C.3       1 CLR2305     0.0000 
     15 C15       201.2440  180.0060  194.9140 C.3       1 CLR2305     0.0000 
     16 C16       201.5420  179.6610  193.4000 C.3       1 CLR2305     0.0000 
     17 C17       203.2190  179.2010  193.3320 C.3       1 CLR2305     0.0000 
     18 C18       202.6050  177.3020  194.8480 C.3       1 CLR2305     0.0000 
     19 C19       203.0710  176.7580  199.1520 C.3       1 CLR2305     0.0000 
     20 C20       203.4580  178.3300  192.3000 C.3       1 CLR2305     0.0000 
     21 C21       204.9990  178.2610  191.8820 C.3       1 CLR2305     0.0000 
     22 C22       202.7030  178.7940  190.9500 C.3       1 CLR2305     0.0000 
     23 C23       201.8940  177.6280  190.3030 C.3       1 CLR2305     0.0000 
     24 C24       200.4280  178.0750  190.0630 C.3       1 CLR2305     0.0000 
     25 C25       200.1340  178.2300  188.5290 C.3       1 CLR2305     0.0000 
     26 C26       198.7400  177.8240  188.1820 C.3       1 CLR2305     0.0000 
     27 C27       200.4960  179.6790  187.9830 C.3       1 CLR2305     0.0000 
     28 O1        203.2120  177.9950  203.0180 O.3       1 CLR2305     0.0000 
@<TRIPOS>BOND
     1    1    2 1    
     2    1   10 1    
     3    2    3 1    
     4    3    4 1    
     5    3   28 1    
     6    4    5 1    
     7    5    6 2    
     8    5   10 1    
     9    6    7 1    
    10    7    8 1    
    11    8    9 1    
    12    8   14 1    
    13    9   10 1    
    14    9   11 1    
    15   10   19 1    
    16   11   12 1    
    17   12   13 1    
    18   13   14 1    
    19   13   17 1    
    20   13   18 1    
    21   14   15 1    
    22   15   16 1    
    23   16   17 1    
    24   17   20 1    
    25   20   21 1    
    26   20   22 1    
    27   22   23 1    
    28   23   24 1    
    29   24   25 1    
    30   25   26 1    
    31   25   27 1    
@<TRIPOS>SUBSTRUCTURE
     1 CLR2305     1 GROUP   
@<TRIPOS>SET

