#    Name: 6v35_8_CLR
#    Modification time : Fri May 22 19:28:24 2020

@<TRIPOS>MOLECULE
6v35_8_CLR
   28    31     1     0     0
SMALL
NO_CHARGES


@<TRIPOS>ATOM
      1 C1        154.9450  205.0850  200.0410 C.3       1 CLR2306     0.0000 
      2 C2        154.9620  205.1600  201.5950 C.3       1 CLR2306     0.0000 
      3 C3        154.0980  204.1220  202.3420 C.3       1 CLR2306     0.0000 
      4 C4        153.2090  203.2740  201.4070 C.3       1 CLR2306     0.0000 
      5 C5        154.1030  202.6230  200.3130 C.2       1 CLR2306     0.0000 
      6 C6        153.2910  201.4770  199.6010 C.2       1 CLR2306     0.0000 
      7 C7        152.7180  201.8050  198.1330 C.3       1 CLR2306     0.0000 
      8 C8        153.7900  202.4690  197.2190 C.3       1 CLR2306     0.0000 
      9 C9        154.1420  203.9010  197.9980 C.3       1 CLR2306     0.0000 
     10 C10       154.8020  203.6700  199.4020 C.3       1 CLR2306     0.0000 
     11 C11       155.0020  204.7870  197.1320 C.3       1 CLR2306     0.0000 
     12 C12       154.5850  204.8240  195.5230 C.3       1 CLR2306     0.0000 
     13 C13       154.3170  203.4790  194.8900 C.3       1 CLR2306     0.0000 
     14 C14       153.3270  202.6170  195.8210 C.3       1 CLR2306     0.0000 
     15 C15       152.9360  201.3030  194.9560 C.3       1 CLR2306     0.0000 
     16 C16       153.2780  201.6000  193.4410 C.3       1 CLR2306     0.0000 
     17 C17       153.7410  203.2760  193.3720 C.3       1 CLR2306     0.0000 
     18 C18       155.6420  202.6590  194.8840 C.3       1 CLR2306     0.0000 
     19 C19       156.1950  203.1260  199.1870 C.3       1 CLR2306     0.0000 
     20 C20       154.6110  203.5130  192.3390 C.3       1 CLR2306     0.0000 
     21 C21       154.6820  205.0540  191.9190 C.3       1 CLR2306     0.0000 
     22 C22       154.1440  202.7580  190.9890 C.3       1 CLR2306     0.0000 
     23 C23       155.3060  201.9470  190.3410 C.3       1 CLR2306     0.0000 
     24 C24       154.8560  200.4820  190.1020 C.3       1 CLR2306     0.0000 
     25 C25       154.6980  200.1880  188.5680 C.3       1 CLR2306     0.0000 
     26 C26       155.1010  198.7930  188.2210 C.3       1 CLR2306     0.0000 
     27 C27       153.2490  200.5520  188.0240 C.3       1 CLR2306     0.0000 
     28 O1        154.9650  203.2690  203.0560 O.3       1 CLR2306     0.0000 
@<TRIPOS>BOND
     1    1    2 1    
     2    1   10 1    
     3    2    3 1    
     4    3    4 1    
     5    3   28 1    
     6    4    5 1    
     7    5    6 2    
     8    5   10 1    
     9    6    7 1    
    10    7    8 1    
    11    8    9 1    
    12    8   14 1    
    13    9   10 1    
    14    9   11 1    
    15   10   19 1    
    16   11   12 1    
    17   12   13 1    
    18   13   14 1    
    19   13   17 1    
    20   13   18 1    
    21   14   15 1    
    22   15   16 1    
    23   16   17 1    
    24   17   20 1    
    25   20   21 1    
    26   20   22 1    
    27   22   23 1    
    28   23   24 1    
    29   24   25 1    
    30   25   26 1    
    31   25   27 1    
@<TRIPOS>SUBSTRUCTURE
     1 CLR2306     1 GROUP   
@<TRIPOS>SET

