#    Name: 6igz_4_XAT_CAVITY_N1_4
#    Modification time : Fri May 22 19:26:35 2020

@<TRIPOS>MOLECULE
6igz_4_XAT_CAVITY_N1_4
   20     0     5     0     0
SMALL
NO_CHARGES


@<TRIPOS>ATOM
      1 OD1       239.5000  177.0100  246.0800 O.co2     1 ASP3        0.0000 
      2 NZ        232.2900  178.6600  244.8500 N.4       2 LYS4        0.0000 
      3 NZ        233.1200  177.6500  244.1200 N.4       2 LYS4        0.0000 
      4 NZ        233.9500  176.6400  243.3800 N.4       2 LYS4        0.0000 
      5 CZ        231.4600  179.6700  245.5800 C.ar      3 PHE5        0.0000 
      6 CA        230.2800  179.3300  244.7200 C.3       4 GLY6        0.0000 
      7 CA        231.1100  178.3200  243.9900 C.3       4 GLY6        0.0000 
      8 CA        231.9400  177.3000  243.2600 C.3       4 GLY6        0.0000 
      9 CA        233.5300  178.7000  243.1300 C.3       4 GLY6        0.0000 
     10 CA        238.7300  177.7100  244.2400 C.3       4 GLY6        0.0000 
     11 DU        234.3600  177.6900  242.3900 H         5 CUB7        0.0000 
     12 DU        234.3000  177.9900  244.9700 H         5 CUB7        0.0000 
     13 DU        235.1300  176.9800  244.2400 H         5 CUB7        0.0000 
     14 DU        235.9500  179.0800  242.2600 H         5 CUB7        0.0000 
     15 DU        236.3100  177.3300  245.1000 H         5 CUB7        0.0000 
     16 DU        237.1400  176.3200  244.3700 H         5 CUB7        0.0000 
     17 DU        236.7200  178.3800  244.1100 H         5 CUB7        0.0000 
     18 DU        237.4900  177.6700  245.9600 H         5 CUB7        0.0000 
     19 DU        238.3200  176.6600  245.2300 H         5 CUB7        0.0000 
     20 DU        237.9000  178.7200  244.9700 H         5 CUB7        0.0000 
@<TRIPOS>BOND
@<TRIPOS>SUBSTRUCTURE
     1 ASP3        1 GROUP   
     2 LYS4        2 GROUP   
     3 PHE5        5 GROUP   
     4 GLY6        6 GROUP   
     5 CUB7       11 GROUP   
@<TRIPOS>SET

