#    Name: 6igz_4_XAT_CAVITY_N1_6
#    Modification time : Fri May 22 19:26:35 2020

@<TRIPOS>MOLECULE
6igz_4_XAT_CAVITY_N1_6
   48     0     6     0     0
SMALL
NO_CHARGES


@<TRIPOS>ATOM
      1 N         235.6000  177.7300  240.6700 N.am      1 ALA2        0.0000 
      2 OD1       237.9600  175.3000  243.6300 O.co2     2 ASP3        0.0000 
      3 OD1       239.1500  175.6500  244.4900 O.co2     2 ASP3        0.0000 
      4 OD1       239.5000  177.0100  246.0800 O.co2     2 ASP3        0.0000 
      5 OD1       239.9100  178.0600  245.0900 O.co2     2 ASP3        0.0000 
      6 NZ        232.7600  176.2900  242.5200 N.4       3 LYS4        0.0000 
      7 NZ        232.2900  178.6600  244.8500 N.4       3 LYS4        0.0000 
      8 NZ        233.1200  177.6500  244.1200 N.4       3 LYS4        0.0000 
      9 NZ        233.9500  176.6400  243.3800 N.4       3 LYS4        0.0000 
     10 CZ        231.4600  179.6700  245.5800 C.ar      4 PHE5        0.0000 
     11 CA        230.2800  179.3300  244.7200 C.3       5 GLY6        0.0000 
     12 CA        231.1100  178.3200  243.9900 C.3       5 GLY6        0.0000 
     13 CA        231.9400  177.3000  243.2600 C.3       5 GLY6        0.0000 
     14 CA        233.5900  175.2800  241.7900 C.3       5 GLY6        0.0000 
     15 CA        232.3500  178.3500  242.2700 C.3       5 GLY6        0.0000 
     16 CA        233.1700  177.3400  241.5400 C.3       5 GLY6        0.0000 
     17 CA        234.0000  176.3300  240.8000 C.3       5 GLY6        0.0000 
     18 CA        232.7600  179.4100  241.2800 C.3       5 GLY6        0.0000 
     19 CA        233.5900  178.3900  240.5500 C.3       5 GLY6        0.0000 
     20 CA        233.5300  178.7000  243.1300 C.3       5 GLY6        0.0000 
     21 CA        235.1800  179.7900  240.4200 C.3       5 GLY6        0.0000 
     22 CA        237.1900  176.0100  241.7900 C.3       5 GLY6        0.0000 
     23 CA        236.7800  178.0700  241.5300 C.3       5 GLY6        0.0000 
     24 CA        237.1900  179.1200  240.5400 C.3       5 GLY6        0.0000 
     25 CA        237.5500  177.3700  243.3800 C.3       5 GLY6        0.0000 
     26 CA        238.3800  176.3500  242.6500 C.3       5 GLY6        0.0000 
     27 CA        237.9600  178.4200  242.3900 C.3       5 GLY6        0.0000 
     28 CA        238.3700  179.4700  241.4000 C.3       5 GLY6        0.0000 
     29 CA        238.7300  177.7100  244.2400 C.3       5 GLY6        0.0000 
     30 CA        239.5600  176.7000  243.5000 C.3       5 GLY6        0.0000 
     31 CA        239.1400  178.7600  243.2500 C.3       5 GLY6        0.0000 
     32 CA        240.3200  179.1100  244.1100 C.3       5 GLY6        0.0000 
     33 DU        234.7700  175.6200  242.6500 H         6 CUB7        0.0000 
     34 DU        234.3600  177.6900  242.3900 H         6 CUB7        0.0000 
     35 DU        235.1800  176.6700  241.6600 H         6 CUB7        0.0000 
     36 DU        234.7700  178.7400  241.4100 H         6 CUB7        0.0000 
     37 DU        234.3000  177.9900  244.9700 H         6 CUB7        0.0000 
     38 DU        235.1300  176.9800  244.2400 H         6 CUB7        0.0000 
     39 DU        235.9500  175.9700  243.5100 H         6 CUB7        0.0000 
     40 DU        236.7800  174.9600  242.7800 H         6 CUB7        0.0000 
     41 DU        236.3700  177.0200  242.5200 H         6 CUB7        0.0000 
     42 DU        235.9500  179.0800  242.2600 H         6 CUB7        0.0000 
     43 DU        236.3100  177.3300  245.1000 H         6 CUB7        0.0000 
     44 DU        237.1400  176.3200  244.3700 H         6 CUB7        0.0000 
     45 DU        236.7200  178.3800  244.1100 H         6 CUB7        0.0000 
     46 DU        237.4900  177.6700  245.9600 H         6 CUB7        0.0000 
     47 DU        238.3200  176.6600  245.2300 H         6 CUB7        0.0000 
     48 DU        237.9000  178.7200  244.9700 H         6 CUB7        0.0000 
@<TRIPOS>BOND
@<TRIPOS>SUBSTRUCTURE
     1 ALA2        1 GROUP   
     2 ASP3        2 GROUP   
     3 LYS4        6 GROUP   
     4 PHE5       10 GROUP   
     5 GLY6       11 GROUP   
     6 CUB7       33 GROUP   
@<TRIPOS>SET

