#    Name: 6igz_4_XAT
#    Modification time : Fri May 22 19:26:33 2020

@<TRIPOS>MOLECULE
6igz_4_XAT
   44    47     1     0     0
SMALL
NO_CHARGES


@<TRIPOS>ATOM
      1 C1        251.1530  194.5120  237.5880 C.3       1 XAT315      0.0000 
      2 C2        252.1710  195.5750  237.9590 C.3       1 XAT315      0.0000 
      3 C3        253.1500  195.1000  238.9980 C.3       1 XAT315      0.0000 
      4 C4        253.8170  193.8970  238.3780 C.3       1 XAT315      0.0000 
      5 C5        252.8200  192.7670  238.5450 C.3       1 XAT315      0.0000 
      6 C6        251.3700  193.1180  238.2000 C.3       1 XAT315      0.0000 
      7 C7        250.5820  191.9510  237.6260 C.2       1 XAT315      0.0000 
      8 C8        249.7500  191.3980  238.5050 C.2       1 XAT315      0.0000 
      9 C9        248.8220  190.2730  238.3000 C.2       1 XAT315      0.0000 
     10 C10       247.9870  190.0040  239.3100 C.2       1 XAT315      0.0000 
     11 C11       246.9730  188.9540  239.3050 C.2       1 XAT315      0.0000 
     12 C12       246.3350  188.7380  240.4540 C.2       1 XAT315      0.0000 
     13 C13       245.2560  187.7510  240.6350 C.2       1 XAT315      0.0000 
     14 C14       244.6430  187.6860  241.8210 C.2       1 XAT315      0.0000 
     15 C15       243.5330  186.7730  242.0560 C.2       1 XAT315      0.0000 
     16 C16       251.1200  194.4030  236.0750 C.3       1 XAT315      0.0000 
     17 C17       249.7970  195.0090  238.0490 C.3       1 XAT315      0.0000 
     18 C18       253.1870  191.3730  238.0490 C.3       1 XAT315      0.0000 
     19 C19       248.8010  189.4750  237.0350 C.3       1 XAT315      0.0000 
     20 C20       244.8270  186.8610  239.5130 C.3       1 XAT315      0.0000 
     21 O3        254.1170  196.1180  239.2420 O.3       1 XAT315      0.0000 
     22 O4        251.8260  192.9640  239.5440 O.3       1 XAT315      0.0000 
     23 C21       233.2730  180.9590  247.1070 C.3       1 XAT315      0.0000 
     24 C22       232.2910  179.8250  247.3140 C.3       1 XAT315      0.0000 
     25 C23       232.5380  178.7340  246.3080 C.3       1 XAT315      0.0000 
     26 C24       233.8220  178.1030  246.7830 C.3       1 XAT315      0.0000 
     27 C25       234.9630  179.0470  246.4570 C.3       1 XAT315      0.0000 
     28 C26       234.6590  180.5430  246.5910 C.3       1 XAT315      0.0000 
     29 C27       235.8390  181.3520  247.0940 C.2       1 XAT315      0.0000 
     30 C28       236.4150  182.1720  246.2220 C.2       1 XAT315      0.0000 
     31 C29       237.5590  183.0300  246.5600 C.2       1 XAT315      0.0000 
     32 C30       238.1640  183.6850  245.5670 C.2       1 XAT315      0.0000 
     33 C31       239.2990  184.5740  245.7620 C.2       1 XAT315      0.0000 
     34 C32       239.9710  184.8660  244.6590 C.2       1 XAT315      0.0000 
     35 C33       241.1380  185.7570  244.6070 C.2       1 XAT315      0.0000 
     36 C34       241.7450  185.9220  243.4280 C.2       1 XAT315      0.0000 
     37 C35       242.8890  186.8000  243.2220 C.2       1 XAT315      0.0000 
     38 C36       233.4520  181.7010  248.4200 C.3       1 XAT315      0.0000 
     39 C37       232.6580  181.9230  246.1090 C.3       1 XAT315      0.0000 
     40 C38       236.3490  178.7290  247.0050 C.3       1 XAT315      0.0000 
     41 C39       238.0210  183.1710  247.9750 C.3       1 XAT315      0.0000 
     42 C40       241.6220  186.4500  245.8360 C.3       1 XAT315      0.0000 
     43 O23       231.4830  177.7750  246.3790 O.3       1 XAT315      0.0000 
     44 O24       234.8050  179.8980  245.3270 O.3       1 XAT315      0.0000 
@<TRIPOS>BOND
     1    1    2 1    
     2    1    6 1    
     3    1   16 1    
     4    1   17 1    
     5    2    3 1    
     6    3    4 1    
     7    3   21 1    
     8    4    5 1    
     9    5    6 1    
    10    5   18 1    
    11    5   22 1    
    12    6    7 1    
    13    6   22 1    
    14    7    8 2    
    15    8    9 1    
    16    9   10 2    
    17    9   19 1    
    18   10   11 1    
    19   11   12 2    
    20   12   13 1    
    21   13   14 2    
    22   13   20 1    
    23   14   15 1    
    24   15   37 2    
    25   23   24 1    
    26   23   28 1    
    27   23   38 1    
    28   23   39 1    
    29   24   25 1    
    30   25   26 1    
    31   25   43 1    
    32   26   27 1    
    33   27   28 1    
    34   27   40 1    
    35   27   44 1    
    36   28   29 1    
    37   28   44 1    
    38   29   30 2    
    39   30   31 1    
    40   31   32 2    
    41   31   41 1    
    42   32   33 1    
    43   33   34 2    
    44   34   35 1    
    45   35   36 2    
    46   35   42 1    
    47   36   37 1    
@<TRIPOS>SUBSTRUCTURE
     1 XAT315      1 GROUP   
@<TRIPOS>SET

