#    Name: 6nes_2_FAD
#    Modification time : Fri May 22 19:24:58 2020

@<TRIPOS>MOLECULE
6nes_2_FAD
   84    89     1     0     1
SMALL
NO_CHARGES


@<TRIPOS>ATOM
      1 PA         60.7280   92.4350   97.7460 P.3       1 FAD504      0.0000 
      2 O1A        60.6240   93.8860   98.1410 O.co2     1 FAD504      0.0000 
      3 O2A        62.0720   91.9230   97.2690 O.co2     1 FAD504      0.0000 
      4 O5B        59.6360   92.0280   96.6050 O.3       1 FAD504      0.0000 
      5 C5B        58.3830   92.6350   96.7290 C.3       1 FAD504      0.0000 
      6 C4B        57.6740   92.6240   95.3470 C.3       1 FAD504      0.0000 
      7 O4B        56.4070   93.0290   95.5440 O.3       1 FAD504      0.0000 
      8 C3B        58.3440   93.6060   94.3390 C.3       1 FAD504      0.0000 
      9 O3B        58.6900   92.8970   93.2170 O.3       1 FAD504      0.0000 
     10 C2B        57.2260   94.6690   94.2430 C.3       1 FAD504      0.0000 
     11 O2B        57.2970   95.3450   92.9200 O.3       1 FAD504      0.0000 
     12 C1B        56.0590   94.0530   94.3940 C.3       1 FAD504      0.0000 
     13 N9A        55.0210   94.9430   94.8650 N.pl3     1 FAD504      0.0000 
     14 C8A        55.1110   95.9840   95.7170 C.2       1 FAD504      0.0000 
     15 N7A        53.8880   96.5380   95.8440 N.2       1 FAD504      0.0000 
     16 C5A        53.0490   95.8470   95.0310 C.ar      1 FAD504      0.0000 
     17 C6A        51.7110   95.9990   94.7570 C.ar      1 FAD504      0.0000 
     18 N6A        50.7340   96.9450   95.2500 N.pl3     1 FAD504      0.0000 
     19 N1A        51.1050   95.1660   93.9090 N.ar      1 FAD504      0.0000 
     20 C2A        51.8060   94.1660   93.3130 C.ar      1 FAD504      0.0000 
     21 N3A        53.1320   94.0390   93.5460 N.ar      1 FAD504      0.0000 
     22 C4A        53.7410   94.8700   94.4340 C.ar      1 FAD504      0.0000 
     23 N1         68.6070   89.1620  102.7960 N.2       1 FAD504      0.0000 
     24 C2         69.2990   87.9180  102.8670 C.2       1 FAD504      0.0000 
     25 O2         68.6920   86.9590  103.2720 O.2       1 FAD504      0.0000 
     26 N3         70.7020   87.8580  102.4890 N.am      1 FAD504      0.0000 
     27 C4         71.4130   89.0340  102.0330 C.2       1 FAD504      0.0000 
     28 O4         72.5430   88.9470  101.7210 O.2       1 FAD504      0.0000 
     29 C4X        70.6770   90.3170  102.0170 C.2       1 FAD504      0.0000 
     30 N5         71.3220   91.5300  101.6210 N.2       1 FAD504      0.0000 
     31 C5X        70.5330   92.7640  101.6200 C.ar      1 FAD504      0.0000 
     32 C6         71.1720   93.9450  101.2240 C.ar      1 FAD504      0.0000 
     33 C7         70.4640   95.1310  101.1980 C.ar      1 FAD504      0.0000 
     34 C7M        71.3040   96.3240  100.7450 C.3       1 FAD504      0.0000 
     35 C8         69.1190   95.1710  101.5550 C.ar      1 FAD504      0.0000 
     36 C8M        68.4270   96.5350  101.4940 C.3       1 FAD504      0.0000 
     37 C9         68.4790   93.9810  101.9220 C.ar      1 FAD504      0.0000 
     38 C9A        69.1800   92.7810  101.9640 C.ar      1 FAD504      0.0000 
     39 N10        68.5090   91.5330  102.3590 N.pl3     1 FAD504      0.0000 
     40 C10        69.2810   90.3420  102.3830 C.2       1 FAD504      0.0000 
     41 C1'        67.0940   91.4810  102.7120 C.3       1 FAD504      0.0000 
     42 C2'        66.3810   91.0340  101.3980 C.3       1 FAD504      0.0000 
     43 O2'        66.7480   91.8180  100.2540 O.3       1 FAD504      0.0000 
     44 C3'        64.8570   91.1660  101.5360 C.3       1 FAD504      0.0000 
     45 O3'        64.4710   90.5730  102.7560 O.3       1 FAD504      0.0000 
     46 C4'        64.0880   90.4280  100.4440 C.3       1 FAD504      0.0000 
     47 O4'        64.2120   91.0960   99.2100 O.3       1 FAD504      0.0000 
     48 C5'        62.5860   90.4610  100.7970 C.3       1 FAD504      0.0000 
     49 O5'        61.9220   89.9290   99.6950 O.3       1 FAD504      0.0000 
     50 P          60.3400   90.1440   99.5240 P.3       1 FAD504      0.0000 
     51 O1P        59.8990   89.2260   98.3880 O.co2     1 FAD504      0.0000 
     52 O2P        59.5380   90.0340  100.8130 O.co2     1 FAD504      0.0000 
     53 O3P        60.1740   91.6570   99.0930 O.3       1 FAD504      0.0000 
     54 H51A       58.4940   93.5500   97.0300 H         1 FAD504      0.0000 
     55 H52A       57.8480   92.1450   97.3730 H         1 FAD504      0.0000 
     56 H4B        57.6990   91.7480   94.9320 H         1 FAD504      0.0000 
     57 H3B        59.1610   94.0600   94.6010 H         1 FAD504      0.0000 
     58 HO3A       58.1100   92.2920   93.0740 H         1 FAD504      0.0000 
     59 H2B        57.3250   95.3020   94.9720 H         1 FAD504      0.0000 
     60 HO2A       57.3660   94.7610   92.3070 H         1 FAD504      0.0000 
     61 H1B        55.7660   93.6490   93.5620 H         1 FAD504      0.0000 
     62 H8A        55.8850   96.2720   96.1450 H         1 FAD504      0.0000 
     63 H61A       50.9890   97.7060   95.5570 H         1 FAD504      0.0000 
     64 H62A       49.8970   96.7460   95.2350 H         1 FAD504      0.0000 
     65 H2A        51.3740   93.5700   92.7450 H         1 FAD504      0.0000 
     66 HN3        71.1190   87.1070  102.5370 H         1 FAD504      0.0000 
     67 H6         72.0690   93.9310  100.9790 H         1 FAD504      0.0000 
     68 HM71       71.0560   96.5700   99.8400 H         1 FAD504      0.0000 
     69 HM72       72.2440   96.0850  100.7690 H         1 FAD504      0.0000 
     70 HM73       71.1470   97.0750  101.3390 H         1 FAD504      0.0000 
     71 HM81       67.4760   96.4220  101.6490 H         1 FAD504      0.0000 
     72 HM82       68.5670   96.9300  100.6190 H         1 FAD504      0.0000 
     73 HM83       68.7990   97.1160  102.1750 H         1 FAD504      0.0000 
     74 H9         67.5750   93.9930  102.1400 H         1 FAD504      0.0000 
     75 H1'1       66.7780   92.3540  102.9930 H         1 FAD504      0.0000 
     76 H1'2       66.9410   90.8380  103.4210 H         1 FAD504      0.0000 
     77 H2'        66.6600   90.1150  101.2640 H         1 FAD504      0.0000 
     78 HO2'       66.1290   92.3740  100.0800 H         1 FAD504      0.0000 
     79 H3'        64.6510   92.1120  101.4780 H         1 FAD504      0.0000 
     80 HO3'       63.9480   91.0970  103.1730 H         1 FAD504      0.0000 
     81 H4'        64.4400   89.5260  100.3810 H         1 FAD504      0.0000 
     82 HO4'       63.4660   91.4490   99.0030 H         1 FAD504      0.0000 
     83 H5'1       62.2970   91.3720  100.9580 H         1 FAD504      0.0000 
     84 H5'2       62.4130   89.9230  101.5860 H         1 FAD504      0.0000 
@<TRIPOS>BOND
     1    1    2 ar   
     2    1    3 ar   
     3    1    4 1    
     4    1   53 1    
     5    4    5 1    
     6    5    6 1    
     7    5   54 1    
     8    5   55 1    
     9    6    7 1    
    10    6    8 1    
    11    6   56 1    
    12    7   12 1    
    13    8    9 1    
    14    8   10 1    
    15    8   57 1    
    16    9   58 1    
    17   10   11 1    
    18   10   12 1    
    19   10   59 1    
    20   12   13 1    
    21   11   60 1    
    22   12   61 1    
    23   13   14 1    
    24   13   22 1    
    25   14   15 2    
    26   15   16 1    
    27   14   62 1    
    28   16   17 ar   
    29   16   22 ar   
    30   17   18 1    
    31   17   19 ar   
    32   19   20 ar   
    33   18   63 1    
    34   18   64 1    
    35   20   21 ar   
    36   21   22 ar   
    37   20   65 1    
    38   23   24 1    
    39   23   40 2    
    40   24   25 2    
    41   24   26 am   
    42   26   27 am   
    43   27   28 2    
    44   26   66 1    
    45   27   29 1    
    46   29   30 2    
    47   29   40 1    
    48   30   31 1    
    49   31   32 ar   
    50   31   38 ar   
    51   32   33 ar   
    52   33   34 1    
    53   32   67 1    
    54   33   35 ar   
    55   34   68 1    
    56   34   69 1    
    57   34   70 1    
    58   35   36 1    
    59   35   37 ar   
    60   36   71 1    
    61   36   72 1    
    62   36   73 1    
    63   37   38 ar   
    64   38   39 1    
    65   37   74 1    
    66   39   40 1    
    67   39   41 1    
    68   41   42 1    
    69   41   75 1    
    70   41   76 1    
    71   42   43 1    
    72   42   44 1    
    73   42   77 1    
    74   43   78 1    
    75   44   45 1    
    76   44   46 1    
    77   44   79 1    
    78   45   80 1    
    79   46   47 1    
    80   46   48 1    
    81   46   81 1    
    82   47   82 1    
    83   48   49 1    
    84   48   83 1    
    85   48   84 1    
    86   49   50 1    
    87   50   51 ar   
    88   50   52 ar   
    89   50   53 1    
@<TRIPOS>SUBSTRUCTURE
     1 FAD504      1 GROUP   
@<TRIPOS>SET
ATOM$ORANGE STATIC     ATOMS   COLORGROUP SYSTEM 
54 5 5 6 6 8 8 10 10 12 12 14 14 16 16 17 17 20 \
20 22 22 24 24 27 27 29 29 31 31 32 32 33 33 34 34 35 \
35 36 36 37 37 38 38 40 40 41 41 42 42 44 44 46 46 48 \
48 

