#    Name: 6cgg_4_GNP
#    Modification time : Fri May 22 19:27:45 2020

@<TRIPOS>MOLECULE
6cgg_4_GNP
   32    34     1     0     1
SMALL
NO_CHARGES


@<TRIPOS>ATOM
      1 PG         71.0940   33.9910   40.0670 P.3       1 GNP500      0.0000 
      2 O1G        69.8770   34.0840   38.9860 O.co2     1 GNP500      0.0000 
      3 O2G        72.3970   33.7520   39.2310 O.co2     1 GNP500      0.0000 
      4 O3G        71.1840   35.2610   40.7730 O.co2     1 GNP500      0.0000 
      5 N3B        70.9790   32.7030   41.0730 N.3       1 GNP500      0.0000 
      6 PB         70.3250   31.2070   40.9290 P.3       1 GNP500      0.0000 
      7 O1B        69.5320   31.0140   39.4990 O.co2     1 GNP500      0.0000 
      8 O2B        69.2810   30.9560   41.9040 O.co2     1 GNP500      0.0000 
      9 O3A        71.4590   30.0650   41.0890 O.3       1 GNP500      0.0000 
     10 PA         72.5350   29.3220   40.1820 P.3       1 GNP500      0.0000 
     11 O1A        73.2740   30.3350   39.4100 O.co2     1 GNP500      0.0000 
     12 O2A        72.0060   28.0980   39.4690 O.co2     1 GNP500      0.0000 
     13 O5'        73.3990   28.6480   41.4250 O.3       1 GNP500      0.0000 
     14 C5'        74.0440   29.6440   42.2740 C.3       1 GNP500      0.0000 
     15 C4'        75.5390   29.4070   42.2800 C.3       1 GNP500      0.0000 
     16 O4'        75.7940   28.0360   42.6390 O.3       1 GNP500      0.0000 
     17 C3'        76.2610   29.5630   40.9450 C.3       1 GNP500      0.0000 
     18 O3'        76.5430   30.9020   40.5740 O.3       1 GNP500      0.0000 
     19 C2'        77.5220   28.7710   41.2150 C.3       1 GNP500      0.0000 
     20 O2'        78.3320   29.5190   42.0850 O.3       1 GNP500      0.0000 
     21 C1'        76.9550   27.5820   41.9900 C.3       1 GNP500      0.0000 
     22 N9         76.5880   26.4350   41.1690 N.pl3     1 GNP500      0.0000 
     23 C8         75.3340   25.9730   40.8610 C.2       1 GNP500      0.0000 
     24 N7         75.3470   24.8520   40.1730 N.2       1 GNP500      0.0000 
     25 C5         76.6950   24.5750   40.0060 C.2       1 GNP500      0.0000 
     26 C6         77.3590   23.4840   39.3560 C.2       1 GNP500      0.0000 
     27 O6         76.8670   22.5590   38.7180 O.2       1 GNP500      0.0000 
     28 N1         78.7290   23.5510   39.4940 N.am      1 GNP500      0.0000 
     29 C2         79.4120   24.5490   40.1480 C.2       1 GNP500      0.0000 
     30 N2         80.7380   24.4440   40.1560 N.pl3     1 GNP500      0.0000 
     31 N3         78.8130   25.5990   40.7300 N.2       1 GNP500      0.0000 
     32 C4         77.4690   25.5450   40.6260 C.2       1 GNP500      0.0000 
@<TRIPOS>BOND
     1    1    2 ar   
     2    1    3 ar   
     3    1    4 ar   
     4    1    5 1    
     5    5    6 1    
     6    6    7 ar   
     7    6    8 ar   
     8    6    9 1    
     9    9   10 1    
    10   10   11 ar   
    11   10   12 ar   
    12   10   13 1    
    13   13   14 1    
    14   14   15 1    
    15   15   16 1    
    16   15   17 1    
    17   16   21 1    
    18   17   18 1    
    19   17   19 1    
    20   19   20 1    
    21   19   21 1    
    22   21   22 1    
    23   22   23 1    
    24   22   32 1    
    25   23   24 2    
    26   24   25 1    
    27   25   26 1    
    28   25   32 2    
    29   26   27 2    
    30   26   28 am   
    31   28   29 1    
    32   29   30 1    
    33   29   31 2    
    34   31   32 1    
@<TRIPOS>SUBSTRUCTURE
     1 GNP500      1 GROUP   
@<TRIPOS>SET
ATOM$ORANGE STATIC     ATOMS   COLORGROUP SYSTEM 
20 14 14 15 15 17 17 19 19 21 21 23 23 25 25 26 26 29 \
29 32 32 

