#    Name: 6cgg_2_GNP
#    Modification time : Fri May 22 19:27:39 2020

@<TRIPOS>MOLECULE
6cgg_2_GNP
   32    34     1     0     1
SMALL
NO_CHARGES


@<TRIPOS>ATOM
      1 PG         43.2880    1.6030   20.9750 P.3       1 GNP500      0.0000 
      2 O1G        44.3900    2.1920   22.0230 O.co2     1 GNP500      0.0000 
      3 O2G        43.6080    0.2130   20.6560 O.co2     1 GNP500      0.0000 
      4 O3G        43.4050    2.5450   19.5980 O.co2     1 GNP500      0.0000 
      5 N3B        41.8810    1.9200   21.7510 N.3       1 GNP500      0.0000 
      6 PB         40.2850    1.7830   21.4340 P.3       1 GNP500      0.0000 
      7 O1B        39.6010    0.9890   22.5170 O.co2     1 GNP500      0.0000 
      8 O2B        39.9410    0.8040   20.4230 O.co2     1 GNP500      0.0000 
      9 O3A        39.7660    3.2930   21.3280 O.3       1 GNP500      0.0000 
     10 PA         38.7610    4.0450   20.3220 P.3       1 GNP500      0.0000 
     11 O1A        37.9750    3.1110   19.4810 O.co2     1 GNP500      0.0000 
     12 O2A        39.3910    5.3000   19.7350 O.co2     1 GNP500      0.0000 
     13 O5'        37.7850    4.6530   21.4660 O.3       1 GNP500      0.0000 
     14 C5'        37.1420    3.6730   22.2950 C.3       1 GNP500      0.0000 
     15 C4'        35.6590    3.9510   22.3570 C.3       1 GNP500      0.0000 
     16 O4'        35.4320    5.3000   22.8100 O.3       1 GNP500      0.0000 
     17 C3'        34.8790    3.8770   21.0820 C.3       1 GNP500      0.0000 
     18 O3'        34.5100    2.5620   20.7810 O.3       1 GNP500      0.0000 
     19 C2'        33.6370    4.6740   21.4720 C.3       1 GNP500      0.0000 
     20 O2'        32.8400    3.9560   22.3720 O.3       1 GNP500      0.0000 
     21 C1'        34.2550    5.8210   22.2500 C.3       1 GNP500      0.0000 
     22 N9         34.6480    6.9770   21.4150 N.pl3     1 GNP500      0.0000 
     23 C8         35.9180    7.3760   21.0900 C.2       1 GNP500      0.0000 
     24 N7         35.9590    8.5150   20.4390 N.2       1 GNP500      0.0000 
     25 C5         34.6290    8.8870   20.3130 C.2       1 GNP500      0.0000 
     26 C6         34.0290   10.0240   19.7010 C.2       1 GNP500      0.0000 
     27 O6         34.5860   10.9990   19.1900 O.2       1 GNP500      0.0000 
     28 N1         32.6570   10.0070   19.7920 N.am      1 GNP500      0.0000 
     29 C2         31.9170    9.0320   20.3910 C.2       1 GNP500      0.0000 
     30 N2         30.6120    9.2040   20.3830 N.pl3     1 GNP500      0.0000 
     31 N3         32.4440    7.9490   20.9560 N.2       1 GNP500      0.0000 
     32 C4         33.8060    7.9470   20.8940 C.2       1 GNP500      0.0000 
@<TRIPOS>BOND
     1    1    2 ar   
     2    1    3 ar   
     3    1    4 ar   
     4    1    5 1    
     5    5    6 1    
     6    6    7 ar   
     7    6    8 ar   
     8    6    9 1    
     9    9   10 1    
    10   10   11 ar   
    11   10   12 ar   
    12   10   13 1    
    13   13   14 1    
    14   14   15 1    
    15   15   16 1    
    16   15   17 1    
    17   16   21 1    
    18   17   18 1    
    19   17   19 1    
    20   19   20 1    
    21   19   21 1    
    22   21   22 1    
    23   22   23 1    
    24   22   32 1    
    25   23   24 2    
    26   24   25 1    
    27   25   26 1    
    28   25   32 2    
    29   26   27 2    
    30   26   28 am   
    31   28   29 1    
    32   29   30 1    
    33   29   31 2    
    34   31   32 1    
@<TRIPOS>SUBSTRUCTURE
     1 GNP500      1 GROUP   
@<TRIPOS>SET
ATOM$ORANGE STATIC     ATOMS   COLORGROUP SYSTEM 
20 14 14 15 15 17 17 19 19 21 21 23 23 25 25 26 26 29 \
29 32 32 

