#    Name: 6e4w_1_STU
#    Modification time : Fri May 22 19:24:57 2020

@<TRIPOS>MOLECULE
6e4w_1_STU
   35    42     1     0     0
SMALL
NO_CHARGES


@<TRIPOS>ATOM
      1 O4         42.5750  -86.1740  -26.4830 O.3       1 STU601      0.0000 
      2 C25        43.0960  -87.1880  -25.6150 C.3       1 STU601      0.0000 
      3 C24        42.0920  -87.7100  -24.5870 C.3       1 STU601      0.0000 
      4 C23        40.6800  -87.2400  -24.8840 C.3       1 STU601      0.0000 
      5 C22        40.6680  -85.7210  -24.9410 C.3       1 STU601      0.0000 
      6 C21        41.6690  -85.1870  -25.9720 C.3       1 STU601      0.0000 
      7 C26        40.9160  -84.7120  -27.2100 C.3       1 STU601      0.0000 
      8 N2         42.4320  -84.0350  -25.3950 N.pl3     1 STU601      0.0000 
      9 C18        43.6460  -84.1570  -24.8020 C.ar      1 STU601      0.0000 
     10 C19        44.5100  -85.3540  -24.5830 C.ar      1 STU601      0.0000 
     11 C6         45.8010  -85.1980  -23.9100 C.ar      1 STU601      0.0000 
     12 C7         46.1960  -83.8340  -23.4710 C.ar      1 STU601      0.0000 
     13 C10        45.3820  -82.6310  -23.6660 C.ar      1 STU601      0.0000 
     14 C11        44.0700  -82.8170  -24.3540 C.ar      1 STU601      0.0000 
     15 C12        42.9780  -81.9250  -24.7430 C.ar      1 STU601      0.0000 
     16 C17        41.9390  -82.7530  -25.4070 C.ar      1 STU601      0.0000 
     17 C16        40.8030  -82.0920  -25.8600 C.ar      1 STU601      0.0000 
     18 C15        40.6900  -80.7110  -25.6730 C.ar      1 STU601      0.0000 
     19 C14        41.6860  -79.9590  -25.0420 C.ar      1 STU601      0.0000 
     20 C13        42.8480  -80.5600  -24.5670 C.ar      1 STU601      0.0000 
     21 C9         46.0550  -81.4590  -23.1230 C.3       1 STU601      0.0000 
     22 N1         47.3260  -82.0100  -22.5840 N.am      1 STU601      0.0000 
     23 C8         47.4060  -83.3480  -22.7810 C.2       1 STU601      0.0000 
     24 O5         48.3930  -84.0870  -22.4180 O.2       1 STU601      0.0000 
     25 C5         46.3590  -86.5380  -23.8670 C.ar      1 STU601      0.0000 
     26 C20        45.3600  -87.4170  -24.5220 C.ar      1 STU601      0.0000 
     27 C1         45.6770  -88.7660  -24.6020 C.ar      1 STU601      0.0000 
     28 C2         46.8880  -89.2270  -24.0770 C.ar      1 STU601      0.0000 
     29 C3         47.8090  -88.3680  -23.4650 C.ar      1 STU601      0.0000 
     30 C4         47.5540  -87.0040  -23.3520 C.ar      1 STU601      0.0000 
     31 N3         44.2890  -86.6510  -24.9180 N.pl3     1 STU601      0.0000 
     32 O6         40.9690  -85.2150  -23.6360 O.3       1 STU601      0.0000 
     33 C27        39.8170  -84.8210  -22.8900 C.3       1 STU601      0.0000 
     34 N4         39.7590  -87.7370  -23.8800 N.4       1 STU601      0.0000 
     35 C28        38.4660  -87.1100  -23.6800 C.3       1 STU601      0.0000 
@<TRIPOS>BOND
     1    1    2 1    
     2    1    6 1    
     3    2    3 1    
     4    2   31 1    
     5    3    4 1    
     6    4    5 1    
     7    4   34 1    
     8    5    6 1    
     9    5   32 1    
    10    6    7 1    
    11    6    8 1    
    12    8    9 1    
    13    8   16 1    
    14    9   10 ar   
    15    9   14 ar   
    16   10   11 ar   
    17   10   31 1    
    18   11   12 ar   
    19   11   25 1    
    20   12   13 ar   
    21   12   23 1    
    22   13   14 ar   
    23   13   21 1    
    24   14   15 1    
    25   15   16 ar   
    26   15   20 ar   
    27   16   17 ar   
    28   17   18 ar   
    29   18   19 ar   
    30   19   20 ar   
    31   21   22 1    
    32   22   23 am   
    33   23   24 2    
    34   25   26 ar   
    35   25   30 ar   
    36   26   27 ar   
    37   26   31 1    
    38   27   28 ar   
    39   28   29 ar   
    40   29   30 ar   
    41   32   33 1    
    42   34   35 1    
@<TRIPOS>SUBSTRUCTURE
     1 STU601      1 GROUP   
@<TRIPOS>SET

