#    Name: 6e4w_4_ADP
#    Modification time : Fri May 22 19:25:11 2020

@<TRIPOS>MOLECULE
6e4w_4_ADP
   27    29     1     0     1
SMALL
NO_CHARGES


@<TRIPOS>ATOM
      1 PB         21.2040  -39.8750   14.7650 P.3       1 ADP403      0.0000 
      2 O1B        22.1660  -40.6520   13.8730 O.co2     1 ADP403      0.0000 
      3 O2B        19.9840  -40.6880   15.0990 O.co2     1 ADP403      0.0000 
      4 O3B        21.9840  -39.4450   16.0310 O.co2     1 ADP403      0.0000 
      5 PA         21.6210  -37.5670   12.9820 P.3       1 ADP403      0.0000 
      6 O1A        22.2700  -38.4450   11.9180 O.co2     1 ADP403      0.0000 
      7 O2A        22.6920  -36.8830   13.7430 O.co2     1 ADP403      0.0000 
      8 O3A        20.8220  -38.5500   13.9570 O.3       1 ADP403      0.0000 
      9 O5'        20.6710  -36.5000   12.2320 O.3       1 ADP403      0.0000 
     10 C5'        20.3230  -35.1300   12.5490 C.3       1 ADP403      0.0000 
     11 C4'        19.8440  -34.3420   11.3480 C.3       1 ADP403      0.0000 
     12 O4'        20.7390  -34.5030   10.2240 O.3       1 ADP403      0.0000 
     13 C3'        18.4290  -34.6120   10.8280 C.3       1 ADP403      0.0000 
     14 O3'        17.7810  -33.3720   10.5820 O.3       1 ADP403      0.0000 
     15 C2'        18.6730  -35.3720    9.5180 C.3       1 ADP403      0.0000 
     16 O2'        17.6250  -35.2020    8.5660 O.3       1 ADP403      0.0000 
     17 C1'        19.9910  -34.7550    9.0490 C.3       1 ADP403      0.0000 
     18 N9         20.7920  -35.6060    8.1650 N.pl3     1 ADP403      0.0000 
     19 C8         21.0960  -36.9300    8.3590 C.2       1 ADP403      0.0000 
     20 N7         21.9240  -37.4280    7.4700 N.2       1 ADP403      0.0000 
     21 C5         22.1660  -36.3640    6.6170 C.ar      1 ADP403      0.0000 
     22 C6         22.9550  -36.2400    5.4550 C.ar      1 ADP403      0.0000 
     23 N6         23.6690  -37.2410    4.9350 N.pl3     1 ADP403      0.0000 
     24 N1         22.9790  -35.0380    4.8370 N.ar      1 ADP403      0.0000 
     25 C2         22.2590  -34.0320    5.3510 C.ar      1 ADP403      0.0000 
     26 N3         21.4770  -34.0300    6.4370 N.ar      1 ADP403      0.0000 
     27 C4         21.4730  -35.2350    7.0300 C.ar      1 ADP403      0.0000 
@<TRIPOS>BOND
     1    1    2 ar   
     2    1    3 ar   
     3    1    4 ar   
     4    1    8 1    
     5    5    6 ar   
     6    5    7 ar   
     7    5    8 1    
     8    5    9 1    
     9    9   10 1    
    10   10   11 1    
    11   11   12 1    
    12   11   13 1    
    13   12   17 1    
    14   13   14 1    
    15   13   15 1    
    16   15   16 1    
    17   15   17 1    
    18   17   18 1    
    19   18   19 1    
    20   18   27 1    
    21   19   20 2    
    22   20   21 1    
    23   21   22 ar   
    24   21   27 ar   
    25   22   23 1    
    26   22   24 ar   
    27   24   25 ar   
    28   25   26 ar   
    29   26   27 ar   
@<TRIPOS>SUBSTRUCTURE
     1 ADP403      1 GROUP   
@<TRIPOS>SET
ATOM$ORANGE STATIC     ATOMS   COLORGROUP SYSTEM 
20 10 10 11 11 13 13 15 15 17 17 19 19 21 21 22 22 25 \
25 27 27 

