#    Name: 6e4w_3_AMP
#    Modification time : Fri May 22 19:25:07 2020

@<TRIPOS>MOLECULE
6e4w_3_AMP
   23    25     1     0     1
SMALL
NO_CHARGES


@<TRIPOS>ATOM
      1 P          22.7400  -45.0180   21.5760 P.3       1 AMP402      0.0000 
      2 O1P        23.0130  -45.3990   20.1460 O.co2     1 AMP402      0.0000 
      3 O2P        21.9860  -43.7250   21.6460 O.co2     1 AMP402      0.0000 
      4 O3P        24.0570  -44.9990   22.3240 O.co2     1 AMP402      0.0000 
      5 O5'        22.0160  -46.2820   22.2170 O.3       1 AMP402      0.0000 
      6 C5'        20.9920  -46.3050   23.2280 C.3       1 AMP402      0.0000 
      7 C4'        21.1440  -47.4200   24.2340 C.3       1 AMP402      0.0000 
      8 O4'        22.4780  -47.3970   24.7950 O.3       1 AMP402      0.0000 
      9 C3'        20.1810  -47.3150   25.4180 C.3       1 AMP402      0.0000 
     10 O3'        19.6740  -48.5780   25.8370 O.3       1 AMP402      0.0000 
     11 C2'        21.0280  -46.6240   26.4880 C.3       1 AMP402      0.0000 
     12 O2'        20.5940  -46.9150   27.8110 O.3       1 AMP402      0.0000 
     13 C1'        22.4130  -47.2030   26.1960 C.3       1 AMP402      0.0000 
     14 N9         23.5210  -46.3390   26.6080 N.pl3     1 AMP402      0.0000 
     15 C8         24.0430  -45.2680   25.9280 C.2       1 AMP402      0.0000 
     16 N7         24.9830  -44.6270   26.5790 N.2       1 AMP402      0.0000 
     17 C5         25.0980  -45.3320   27.7680 C.ar      1 AMP402      0.0000 
     18 C6         25.9150  -45.1540   28.9040 C.ar      1 AMP402      0.0000 
     19 N6         26.8390  -44.1960   29.0110 N.pl3     1 AMP402      0.0000 
     20 N1         25.7540  -46.0160   29.9330 N.ar      1 AMP402      0.0000 
     21 C2         24.8520  -46.9970   29.8210 C.ar      1 AMP402      0.0000 
     22 N3         24.0340  -47.2700   28.8000 N.ar      1 AMP402      0.0000 
     23 C4         24.2050  -46.3920   27.7980 C.ar      1 AMP402      0.0000 
@<TRIPOS>BOND
     1    1    2 ar   
     2    1    3 ar   
     3    1    4 ar   
     4    1    5 1    
     5    5    6 1    
     6    6    7 1    
     7    7    8 1    
     8    7    9 1    
     9    8   13 1    
    10    9   10 1    
    11    9   11 1    
    12   11   12 1    
    13   11   13 1    
    14   13   14 1    
    15   14   15 1    
    16   14   23 1    
    17   15   16 2    
    18   16   17 1    
    19   17   18 ar   
    20   17   23 ar   
    21   18   19 1    
    22   18   20 ar   
    23   20   21 ar   
    24   21   22 ar   
    25   22   23 ar   
@<TRIPOS>SUBSTRUCTURE
     1 AMP402      1 GROUP   
@<TRIPOS>SET
ATOM$ORANGE STATIC     ATOMS   COLORGROUP SYSTEM 
20 6 6 7 7 9 9 11 11 13 13 15 15 17 17 18 18 21 \
21 23 23 

