#    Name: 6e4w_2_AMP
#    Modification time : Fri May 22 19:25:02 2020

@<TRIPOS>MOLECULE
6e4w_2_AMP
   23    25     1     0     1
SMALL
NO_CHARGES


@<TRIPOS>ATOM
      1 P          26.9560  -36.8600   20.3170 P.3       1 AMP401      0.0000 
      2 O1P        27.4180  -37.9570   19.4110 O.co2     1 AMP401      0.0000 
      3 O2P        26.6760  -37.3720   21.7410 O.co2     1 AMP401      0.0000 
      4 O3P        25.6960  -36.1060   19.8050 O.co2     1 AMP401      0.0000 
      5 O5'        28.1100  -35.7890   20.4860 O.3       1 AMP401      0.0000 
      6 C5'        28.2700  -34.4400   19.9980 C.3       1 AMP401      0.0000 
      7 C4'        28.7290  -33.5400   21.1220 C.3       1 AMP401      0.0000 
      8 O4'        27.7220  -33.4840   22.1560 O.3       1 AMP401      0.0000 
      9 C3'        30.0370  -33.9270   21.8150 C.3       1 AMP401      0.0000 
     10 O3'        30.8960  -32.8020   21.9640 O.3       1 AMP401      0.0000 
     11 C2'        29.5680  -34.4980   23.1550 C.3       1 AMP401      0.0000 
     12 O2'        30.5170  -34.3930   24.2070 O.3       1 AMP401      0.0000 
     13 C1'        28.3470  -33.6330   23.4130 C.3       1 AMP401      0.0000 
     14 N9         27.3820  -34.2030   24.3450 N.pl3     1 AMP401      0.0000 
     15 C8         26.8170  -35.4510   24.3040 C.2       1 AMP401      0.0000 
     16 N7         25.9450  -35.6730   25.2550 N.2       1 AMP401      0.0000 
     17 C5         25.9280  -34.4850   25.9710 C.ar      1 AMP401      0.0000 
     18 C6         25.1680  -34.0530   27.0790 C.ar      1 AMP401      0.0000 
     19 N6         24.2840  -34.8220   27.7220 N.pl3     1 AMP401      0.0000 
     20 N1         25.3560  -32.7850   27.5130 N.ar      1 AMP401      0.0000 
     21 C2         26.2500  -32.0120   26.8830 C.ar      1 AMP401      0.0000 
     22 N3         27.0290  -32.3130   25.8390 N.ar      1 AMP401      0.0000 
     23 C4         26.8150  -33.5720   25.4240 C.ar      1 AMP401      0.0000 
@<TRIPOS>BOND
     1    1    2 ar   
     2    1    3 ar   
     3    1    4 ar   
     4    1    5 1    
     5    5    6 1    
     6    6    7 1    
     7    7    8 1    
     8    7    9 1    
     9    8   13 1    
    10    9   10 1    
    11    9   11 1    
    12   11   12 1    
    13   11   13 1    
    14   13   14 1    
    15   14   15 1    
    16   14   23 1    
    17   15   16 2    
    18   16   17 1    
    19   17   18 ar   
    20   17   23 ar   
    21   18   19 1    
    22   18   20 ar   
    23   20   21 ar   
    24   21   22 ar   
    25   22   23 ar   
@<TRIPOS>SUBSTRUCTURE
     1 AMP401      1 GROUP   
@<TRIPOS>SET
ATOM$ORANGE STATIC     ATOMS   COLORGROUP SYSTEM 
20 6 6 7 7 9 9 11 11 13 13 15 15 17 17 18 18 21 \
21 23 23 

