#    Name: 6j79_3_FAD
#    Modification time : Fri May 22 19:34:04 2020

@<TRIPOS>MOLECULE
6j79_3_FAD
   53    58     1     0     1
SMALL
NO_CHARGES


@<TRIPOS>ATOM
      1 PA         33.7520   -9.9620  -83.9080 P.3       1 FAD901      0.0000 
      2 O1A        34.5880  -10.6850  -84.9390 O.co2     1 FAD901      0.0000 
      3 O2A        32.9600  -10.9690  -83.0990 O.co2     1 FAD901      0.0000 
      4 O5B        34.7450   -9.1020  -82.8930 O.3       1 FAD901      0.0000 
      5 C5B        34.1720   -8.3790  -81.8250 C.3       1 FAD901      0.0000 
      6 C4B        35.3160   -7.9610  -80.8550 C.3       1 FAD901      0.0000 
      7 O4B        35.9730   -6.9470  -81.3410 O.3       1 FAD901      0.0000 
      8 C3B        34.7510   -7.4290  -79.5280 C.3       1 FAD901      0.0000 
      9 O3B        34.5790   -8.4460  -78.6470 O.3       1 FAD901      0.0000 
     10 C2B        35.8400   -6.4530  -79.0270 C.3       1 FAD901      0.0000 
     11 O2B        36.6480   -7.1020  -77.9490 O.3       1 FAD901      0.0000 
     12 C1B        36.6030   -6.1880  -80.0570 C.3       1 FAD901      0.0000 
     13 N9A        36.6430   -4.7660  -80.3020 N.pl3     1 FAD901      0.0000 
     14 C8A        35.6830   -4.0340  -80.8740 C.2       1 FAD901      0.0000 
     15 N7A        36.1050   -2.7640  -80.9180 N.2       1 FAD901      0.0000 
     16 C5A        37.3290   -2.7140  -80.3710 C.ar      1 FAD901      0.0000 
     17 C6A        38.2110   -1.6720  -80.1630 C.ar      1 FAD901      0.0000 
     18 N6A        38.3030   -0.2420  -80.3860 N.pl3     1 FAD901      0.0000 
     19 N1A        39.3840   -1.8980  -79.5890 N.ar      1 FAD901      0.0000 
     20 C2A        39.7190   -3.1530  -79.2040 C.ar      1 FAD901      0.0000 
     21 N3A        38.8570   -4.1780  -79.4070 N.ar      1 FAD901      0.0000 
     22 C4A        37.6630   -3.9500  -79.9910 C.ar      1 FAD901      0.0000 
     23 N1         25.0730   -6.1490  -83.2860 N.2       1 FAD901      0.0000 
     24 C2         24.5420   -5.1600  -84.2520 C.2       1 FAD901      0.0000 
     25 O2         25.2890   -4.5210  -84.9120 O.2       1 FAD901      0.0000 
     26 N3         23.0680   -4.9770  -84.3820 N.am      1 FAD901      0.0000 
     27 C4         22.1630   -5.7720  -83.5600 C.2       1 FAD901      0.0000 
     28 O4         20.9900   -5.6360  -83.6560 O.2       1 FAD901      0.0000 
     29 C4X        22.7280   -6.7770  -82.5810 C.2       1 FAD901      0.0000 
     30 N5         21.8330   -7.5720  -81.7580 N.2       1 FAD901      0.0000 
     31 C5X        22.3910   -8.5630  -80.7930 C.ar      1 FAD901      0.0000 
     32 C6         21.5300   -9.3300  -79.9990 C.ar      1 FAD901      0.0000 
     33 C7         22.0560  -10.2540  -79.0970 C.ar      1 FAD901      0.0000 
     34 C7M        20.9080  -10.9530  -78.3610 C.3       1 FAD901      0.0000 
     35 C8         23.4450  -10.4170  -78.9830 C.ar      1 FAD901      0.0000 
     36 C8M        23.9780  -11.4420  -77.9830 C.3       1 FAD901      0.0000 
     37 C9         24.3050   -9.6540  -79.7740 C.ar      1 FAD901      0.0000 
     38 C9A        23.7830   -8.7270  -80.6780 C.ar      1 FAD901      0.0000 
     39 N10        24.7070   -7.9090  -81.5210 N.pl3     1 FAD901      0.0000 
     40 C10        24.1650   -6.9460  -82.4620 C.2       1 FAD901      0.0000 
     41 C1'        26.1600   -8.0840  -81.4060 C.3       1 FAD901      0.0000 
     42 C2'        26.6250   -9.0220  -82.5370 C.3       1 FAD901      0.0000 
     43 O2'        26.1830  -10.3130  -82.2810 O.3       1 FAD901      0.0000 
     44 C3'        28.1520   -9.0190  -82.6310 C.3       1 FAD901      0.0000 
     45 O3'        28.6940   -9.1230  -81.3510 O.3       1 FAD901      0.0000 
     46 C4'        28.6220   -7.7200  -83.2960 C.3       1 FAD901      0.0000 
     47 O4'        27.7480   -7.3800  -84.3250 O.3       1 FAD901      0.0000 
     48 C5'        30.0230   -7.9280  -83.8810 C.3       1 FAD901      0.0000 
     49 O5'        30.0050   -9.0540  -84.7370 O.3       1 FAD901      0.0000 
     50 P          31.4040   -9.4580  -85.5380 P.3       1 FAD901      0.0000 
     51 O1P        31.4840  -10.9620  -85.6720 O.co2     1 FAD901      0.0000 
     52 O2P        31.4150   -8.8260  -86.9090 O.co2     1 FAD901      0.0000 
     53 O3P        32.7150   -8.9250  -84.6770 O.3       1 FAD901      0.0000 
@<TRIPOS>BOND
     1    1    2 ar   
     2    1    3 ar   
     3    1    4 1    
     4    1   53 1    
     5    4    5 1    
     6    5    6 1    
     7    6    7 1    
     8    6    8 1    
     9    7   12 1    
    10    8    9 1    
    11    8   10 1    
    12   10   11 1    
    13   10   12 1    
    14   12   13 1    
    15   13   14 1    
    16   13   22 1    
    17   14   15 2    
    18   15   16 1    
    19   16   17 ar   
    20   16   22 ar   
    21   17   18 1    
    22   17   19 ar   
    23   19   20 ar   
    24   20   21 ar   
    25   21   22 ar   
    26   23   24 1    
    27   23   40 2    
    28   24   25 2    
    29   24   26 am   
    30   26   27 am   
    31   27   28 2    
    32   27   29 1    
    33   29   30 2    
    34   29   40 1    
    35   30   31 1    
    36   31   32 ar   
    37   31   38 ar   
    38   32   33 ar   
    39   33   34 1    
    40   33   35 ar   
    41   35   36 1    
    42   35   37 ar   
    43   37   38 ar   
    44   38   39 1    
    45   39   40 1    
    46   39   41 1    
    47   41   42 1    
    48   42   43 1    
    49   42   44 1    
    50   44   45 1    
    51   44   46 1    
    52   46   47 1    
    53   46   48 1    
    54   48   49 1    
    55   49   50 1    
    56   50   51 ar   
    57   50   52 ar   
    58   50   53 1    
@<TRIPOS>SUBSTRUCTURE
     1 FAD901      1 GROUP   
@<TRIPOS>SET
ATOM$ORANGE STATIC     ATOMS   COLORGROUP SYSTEM 
54 5 5 6 6 8 8 10 10 12 12 14 14 16 16 17 17 20 \
20 22 22 24 24 27 27 29 29 31 31 32 32 33 33 34 34 35 \
35 36 36 37 37 38 38 40 40 41 41 42 42 44 44 46 46 48 \
48 

