#    Name: 6j79_2_FMN
#    Modification time : Fri May 22 19:33:49 2020

@<TRIPOS>MOLECULE
6j79_2_FMN
   31    33     1     0     1
SMALL
NO_CHARGES


@<TRIPOS>ATOM
      1 N1         26.9780    6.1660  -50.6960 N.2       1 FMN902      0.0000 
      2 C2         27.3190    5.1010  -51.4700 C.2       1 FMN902      0.0000 
      3 O2         28.3730    4.5790  -51.3380 O.2       1 FMN902      0.0000 
      4 N3         26.4540    4.6260  -52.4090 N.am      1 FMN902      0.0000 
      5 C4         25.2700    5.2020  -52.5690 C.2       1 FMN902      0.0000 
      6 O4         24.5180    4.7860  -53.3850 O.2       1 FMN902      0.0000 
      7 C4A        24.9180    6.2790  -51.7880 C.2       1 FMN902      0.0000 
      8 N5         23.7080    6.8620  -51.9590 N.2       1 FMN902      0.0000 
      9 C5A        23.3570    7.9120  -51.2030 C.ar      1 FMN902      0.0000 
     10 C6         22.0930    8.5110  -51.3870 C.ar      1 FMN902      0.0000 
     11 C7         21.7180    9.5980  -50.6110 C.ar      1 FMN902      0.0000 
     12 C7M        20.3260   10.1440  -50.9200 C.3       1 FMN902      0.0000 
     13 C8         22.5890   10.0970  -49.6500 C.ar      1 FMN902      0.0000 
     14 C8M        22.2040   11.2910  -48.7800 C.3       1 FMN902      0.0000 
     15 C9         23.8310    9.5060  -49.4680 C.ar      1 FMN902      0.0000 
     16 C9A        24.2210    8.3990  -50.2560 C.ar      1 FMN902      0.0000 
     17 N10        25.4280    7.8250  -50.0870 N.pl3     1 FMN902      0.0000 
     18 C10        25.7790    6.7560  -50.8530 C.2       1 FMN902      0.0000 
     19 C1'        26.4530    8.2220  -49.1250 C.3       1 FMN902      0.0000 
     20 C2'        27.2090    9.4750  -49.5820 C.3       1 FMN902      0.0000 
     21 O2'        27.9760    9.1890  -50.7180 O.3       1 FMN902      0.0000 
     22 C3'        28.1210    9.9600  -48.4530 C.3       1 FMN902      0.0000 
     23 O3'        27.3400   10.5030  -47.4250 O.3       1 FMN902      0.0000 
     24 C4'        29.1170   11.0050  -48.9660 C.3       1 FMN902      0.0000 
     25 O4'        30.0870   11.2550  -47.9880 O.3       1 FMN902      0.0000 
     26 C5'        28.4180   12.3220  -49.3050 C.3       1 FMN902      0.0000 
     27 O5'        29.3710   13.2020  -49.8380 O.3       1 FMN902      0.0000 
     28 P          29.0800   14.8270  -49.8480 P.3       1 FMN902      0.0000 
     29 O1P        30.3570   15.5700  -50.1610 O.co2     1 FMN902      0.0000 
     30 O2P        28.5790   15.2530  -48.4890 O.co2     1 FMN902      0.0000 
     31 O3P        28.0460   15.1560  -50.8980 O.co2     1 FMN902      0.0000 
@<TRIPOS>BOND
     1    1    2 1    
     2    1   18 2    
     3    2    3 2    
     4    2    4 am   
     5    4    5 am   
     6    5    6 2    
     7    5    7 1    
     8    7    8 2    
     9    7   18 1    
    10    8    9 1    
    11    9   10 ar   
    12    9   16 ar   
    13   10   11 ar   
    14   11   12 1    
    15   11   13 ar   
    16   13   14 1    
    17   13   15 ar   
    18   15   16 ar   
    19   16   17 1    
    20   17   18 1    
    21   17   19 1    
    22   19   20 1    
    23   20   21 1    
    24   20   22 1    
    25   22   23 1    
    26   22   24 1    
    27   24   25 1    
    28   24   26 1    
    29   26   27 1    
    30   27   28 1    
    31   28   29 ar   
    32   28   30 ar   
    33   28   31 ar   
@<TRIPOS>SUBSTRUCTURE
     1 FMN902      1 GROUP   
@<TRIPOS>SET
ATOM$ORANGE STATIC     ATOMS   COLORGROUP SYSTEM 
34 2 2 5 5 7 7 9 9 10 10 11 11 12 12 13 13 14 \
14 15 15 16 16 18 18 19 19 20 20 22 22 24 24 26 26 

