#    Name: 6j79_4_FMN
#    Modification time : Fri May 22 19:34:15 2020

@<TRIPOS>MOLECULE
6j79_4_FMN
   31    33     1     0     1
SMALL
NO_CHARGES


@<TRIPOS>ATOM
      1 N1         25.3480  -20.0650  -56.3540 N.2       1 FMN902      0.0000 
      2 C2         26.0090  -19.0340  -55.7620 C.2       1 FMN902      0.0000 
      3 O2         26.9180  -18.5090  -56.3100 O.2       1 FMN902      0.0000 
      4 N3         25.6300  -18.5940  -54.5300 N.am      1 FMN902      0.0000 
      5 C4         24.6130  -19.1720  -53.9040 C.2       1 FMN902      0.0000 
      6 O4         24.2890  -18.7840  -52.8320 O.2       1 FMN902      0.0000 
      7 C4A        23.9400  -20.2170  -54.4970 C.2       1 FMN902      0.0000 
      8 N5         22.9020  -20.8050  -53.8530 N.2       1 FMN902      0.0000 
      9 C5A        22.2410  -21.8240  -54.4260 C.ar      1 FMN902      0.0000 
     10 C6         21.1610  -22.4300  -53.7490 C.ar      1 FMN902      0.0000 
     11 C7         20.4720  -23.4840  -54.3350 C.ar      1 FMN902      0.0000 
     12 C7M        19.3300  -24.0440  -53.4900 C.3       1 FMN902      0.0000 
     13 C8         20.8490  -23.9420  -55.5920 C.ar      1 FMN902      0.0000 
     14 C8M        20.1120  -25.0990  -56.2640 C.3       1 FMN902      0.0000 
     15 C9         21.9090  -23.3460  -56.2590 C.ar      1 FMN902      0.0000 
     16 C9A        22.6160  -22.2740  -55.6660 C.ar      1 FMN902      0.0000 
     17 N10        23.6490  -21.6910  -56.3080 N.pl3     1 FMN902      0.0000 
     18 C10        24.3140  -20.6560  -55.7250 C.2       1 FMN902      0.0000 
     19 C1'        24.1660  -22.0510  -57.6230 C.3       1 FMN902      0.0000 
     20 C2'        25.0260  -23.3150  -57.5390 C.3       1 FMN902      0.0000 
     21 O2'        26.2680  -23.0030  -56.9750 O.3       1 FMN902      0.0000 
     22 C3'        25.2280  -23.8950  -58.9380 C.3       1 FMN902      0.0000 
     23 O3'        24.0450  -24.5020  -59.3770 O.3       1 FMN902      0.0000 
     24 C4'        26.3470  -24.9340  -58.9070 C.3       1 FMN902      0.0000 
     25 O4'        26.8020  -25.1590  -60.2090 O.3       1 FMN902      0.0000 
     26 C5'        25.8310  -26.2500  -58.3260 C.3       1 FMN902      0.0000 
     27 O5'        26.8950  -27.1610  -58.2660 O.3       1 FMN902      0.0000 
     28 P          26.5780  -28.7730  -58.1230 P.3       1 FMN902      0.0000 
     29 O1P        27.8380  -29.5530  -58.4060 O.co2     1 FMN902      0.0000 
     30 O2P        25.5120  -29.1670  -59.1140 O.co2     1 FMN902      0.0000 
     31 O3P        26.0970  -29.0800  -56.7260 O.co2     1 FMN902      0.0000 
@<TRIPOS>BOND
     1    1    2 1    
     2    1   18 2    
     3    2    3 2    
     4    2    4 am   
     5    4    5 am   
     6    5    6 2    
     7    5    7 1    
     8    7    8 2    
     9    7   18 1    
    10    8    9 1    
    11    9   10 ar   
    12    9   16 ar   
    13   10   11 ar   
    14   11   12 1    
    15   11   13 ar   
    16   13   14 1    
    17   13   15 ar   
    18   15   16 ar   
    19   16   17 1    
    20   17   18 1    
    21   17   19 1    
    22   19   20 1    
    23   20   21 1    
    24   20   22 1    
    25   22   23 1    
    26   22   24 1    
    27   24   25 1    
    28   24   26 1    
    29   26   27 1    
    30   27   28 1    
    31   28   29 ar   
    32   28   30 ar   
    33   28   31 ar   
@<TRIPOS>SUBSTRUCTURE
     1 FMN902      1 GROUP   
@<TRIPOS>SET
ATOM$ORANGE STATIC     ATOMS   COLORGROUP SYSTEM 
34 2 2 5 5 7 7 9 9 10 10 11 11 12 12 13 13 14 \
14 15 15 16 16 18 18 19 19 20 20 22 22 24 24 26 26 

