#    Name: 6j79_2_FMN_CAVITY_N1_4
#    Modification time : Fri May 22 19:33:50 2020

@<TRIPOS>MOLECULE
6j79_2_FMN_CAVITY_N1_4
   82     0     6     0     0
SMALL
NO_CHARGES


@<TRIPOS>ATOM
      1 OG         22.2600    8.2600  -50.1400 O.3       1 SER1        0.0000 
      2 OG         23.0000    8.9700  -49.0400 O.3       1 SER1        0.0000 
      3 OG         24.2800    8.8100  -49.8100 O.3       1 SER1        0.0000 
      4 OG         22.4600    9.8400  -47.1800 O.3       1 SER1        0.0000 
      5 OG         22.7000    8.5300  -46.5000 O.3       1 SER1        0.0000 
      6 OG         23.7400    9.6800  -47.9500 O.3       1 SER1        0.0000 
      7 OG         23.9800    8.3700  -47.2600 O.3       1 SER1        0.0000 
      8 OG         25.5100   11.5400  -48.3000 O.3       1 SER1        0.0000 
      9 OG         26.7900   11.3900  -49.0700 O.3       1 SER1        0.0000 
     10 OG         26.0100   13.5700  -47.8900 O.3       1 SER1        0.0000 
     11 OG         26.2500   12.2500  -47.2100 O.3       1 SER1        0.0000 
     12 OG         27.5300   12.1000  -47.9700 O.3       1 SER1        0.0000 
     13 OG         28.5700   13.2500  -49.4200 O.3       1 SER1        0.0000 
     14 OG         28.2700   12.8100  -46.8800 O.3       1 SER1        0.0000 
     15 OG         29.3100   13.9600  -48.3300 O.3       1 SER1        0.0000 
     16 OG         29.5600   12.6500  -47.6400 O.3       1 SER1        0.0000 
     17 OG         29.0200   13.5200  -45.7800 O.3       1 SER1        0.0000 
     18 O          22.8000    7.3900  -51.9900 O.2       2 ALA2        0.0000 
     19 N          25.0600    6.6300  -50.9800 N.am      2 ALA2        0.0000 
     20 N          25.5600    8.6500  -50.5700 N.am      2 ALA2        0.0000 
     21 N          25.8100    7.3400  -49.8900 N.am      2 ALA2        0.0000 
     22 N          27.0900    7.1800  -50.6500 N.am      2 ALA2        0.0000 
     23 N          26.3000    9.3600  -49.4800 N.am      2 ALA2        0.0000 
     24 N          27.3300   10.5200  -50.9300 N.am      2 ALA2        0.0000 
     25 N          27.5800    9.2100  -50.2400 N.am      2 ALA2        0.0000 
     26 O          24.9700    7.7700  -45.4900 O.2       2 ALA2        0.0000 
     27 O          26.2500    7.6100  -46.2500 O.2       2 ALA2        0.0000 
     28 N          28.3200    9.9200  -49.1500 N.am      2 ALA2        0.0000 
     29 N          28.5700    8.6000  -48.4600 N.am      2 ALA2        0.0000 
     30 N          29.6000    9.7600  -49.9100 N.am      2 ALA2        0.0000 
     31 N          29.3100    9.3100  -47.3700 N.am      2 ALA2        0.0000 
     32 NZ         24.7300    9.0800  -46.1700 N.4       3 LYS4        0.0000 
     33 NZ         25.7600   10.2300  -47.6200 N.4       3 LYS4        0.0000 
     34 NZ         26.0100    8.9200  -46.9300 N.4       3 LYS4        0.0000 
     35 NZ         27.0400   10.0700  -48.3800 N.4       3 LYS4        0.0000 
     36 NZ         27.2900    8.7600  -47.7000 N.4       3 LYS4        0.0000 
     37 NZ         25.2200   11.1000  -45.7600 N.4       3 LYS4        0.0000 
     38 NZ         26.5000   10.9400  -46.5200 N.4       3 LYS4        0.0000 
     39 NZ         27.7800   10.7800  -47.2900 N.4       3 LYS4        0.0000 
     40 NZ         29.0600   10.6300  -48.0500 N.4       3 LYS4        0.0000 
     41 NZ         28.5200   11.4900  -46.1900 N.4       3 LYS4        0.0000 
     42 NZ         29.2600   12.2000  -45.1000 N.4       3 LYS4        0.0000 
     43 CZ         21.5200    7.5500  -51.2300 C.ar      4 PHE5        0.0000 
     44 CZ         23.2900    9.4100  -51.5800 C.ar      4 PHE5        0.0000 
     45 CZ         23.5400    8.1000  -50.9000 C.ar      4 PHE5        0.0000 
     46 CZ         22.7500   10.2800  -49.7300 C.ar      4 PHE5        0.0000 
     47 CZ         24.0300   10.1200  -50.4900 C.ar      4 PHE5        0.0000 
     48 CZ         24.5200    7.5000  -49.1200 C.ar      4 PHE5        0.0000 
     49 CZ         26.0500    6.0300  -49.2000 C.ar      4 PHE5        0.0000 
     50 CZ         23.4900   10.9900  -48.6300 C.ar      4 PHE5        0.0000 
     51 CZ         24.7700   10.8300  -49.4000 C.ar      4 PHE5        0.0000 
     52 CZ         25.2700    8.2100  -48.0300 C.ar      4 PHE5        0.0000 
     53 CZ         26.0500   10.6800  -50.1600 C.ar      4 PHE5        0.0000 
     54 CZ         23.9800   13.0100  -48.2200 C.ar      4 PHE5        0.0000 
     55 CZ         24.2300   11.7000  -47.5400 C.ar      4 PHE5        0.0000 
     56 CZ         27.8300   12.5400  -50.5200 C.ar      4 PHE5        0.0000 
     57 CZ         28.0700   11.2300  -49.8300 C.ar      4 PHE5        0.0000 
     58 CA         20.6800   12.6200  -47.7900 C.3       5 GLY6        0.0000 
     59 CA         20.9300   11.3100  -47.1000 C.3       5 GLY6        0.0000 
     60 CA         21.9600   12.4600  -48.5500 C.3       5 GLY6        0.0000 
     61 CA         22.2100   11.1500  -47.8700 C.3       5 GLY6        0.0000 
     62 CA         25.5100    6.9000  -47.3400 C.3       5 GLY6        0.0000 
     63 CA         26.5500    8.0500  -48.7900 C.3       5 GLY6        0.0000 
     64 CA         27.8300    7.8900  -49.5600 C.3       5 GLY6        0.0000 
     65 CA         22.9500   11.8600  -46.7700 C.3       5 GLY6        0.0000 
     66 CA         23.2000   10.5500  -46.0900 C.3       5 GLY6        0.0000 
     67 CA         29.3500   11.0700  -50.6000 C.3       5 GLY6        0.0000 
     68 CA         23.6900   12.5700  -45.6800 C.3       5 GLY6        0.0000 
     69 CA         24.7300   13.7200  -47.1300 C.3       5 GLY6        0.0000 
     70 CA         29.8500   13.0900  -50.1900 C.3       5 GLY6        0.0000 
     71 CA         30.1000   11.7800  -49.5000 C.3       5 GLY6        0.0000 
     72 CA         30.3400   10.4700  -48.8200 C.3       5 GLY6        0.0000 
     73 CA         25.7100   13.1200  -45.3500 C.3       5 GLY6        0.0000 
     74 CA         26.9900   12.9600  -46.1100 C.3       5 GLY6        0.0000 
     75 CA         29.8000   11.3400  -46.9600 C.3       5 GLY6        0.0000 
     76 CA         30.8400   12.4900  -48.4100 C.3       5 GLY6        0.0000 
     77 CA         30.5400   12.0500  -45.8600 C.3       5 GLY6        0.0000 
     78 CA         31.2800   12.7600  -44.7700 C.3       5 GLY6        0.0000 
     79 DU         25.0200    9.5200  -48.7100 H         6 CUB7        0.0000 
     80 DU         24.4800   10.3900  -46.8500 H         6 CUB7        0.0000 
     81 DU         24.9700   12.4100  -46.4400 H         6 CUB7        0.0000 
     82 DU         28.8100   11.9400  -48.7400 H         6 CUB7        0.0000 
@<TRIPOS>BOND
@<TRIPOS>SUBSTRUCTURE
     1 SER1        1 GROUP   
     2 ALA2       18 GROUP   
     3 LYS4       32 GROUP   
     4 PHE5       43 GROUP   
     5 GLY6       58 GROUP   
     6 CUB7       79 GROUP   
@<TRIPOS>SET

