#    Name: 6j79_4_FMN_CAVITY_N1_4
#    Modification time : Fri May 22 19:34:17 2020

@<TRIPOS>MOLECULE
6j79_4_FMN_CAVITY_N1_4
   85     0     7     0     0
SMALL
NO_CHARGES


@<TRIPOS>ATOM
      1 OG         22.5300  -27.6600  -59.9200 O.3       1 SER1        0.0000 
      2 OG         23.8100  -27.8200  -60.6800 O.3       1 SER1        0.0000 
      3 OG         24.8500  -26.6600  -62.1300 O.3       1 SER1        0.0000 
      4 OG         17.6600  -23.7000  -57.1300 O.3       1 SER1        0.0000 
      5 OG         18.6900  -22.5400  -58.5800 O.3       1 SER1        0.0000 
      6 OG         19.9700  -22.7000  -59.3400 O.3       1 SER1        0.0000 
      7 OG         21.9900  -26.7900  -58.0600 O.3       1 SER1        0.0000 
      8 OG         23.2700  -26.9500  -58.8200 O.3       1 SER1        0.0000 
      9 OG         24.5500  -27.1100  -59.5900 O.3       1 SER1        0.0000 
     10 OG         25.8300  -27.2700  -60.3500 O.3       1 SER1        0.0000 
     11 OG         19.9200  -24.4600  -56.1200 O.3       1 SER1        0.0000 
     12 OG         20.9600  -23.3000  -57.5700 O.3       1 SER1        0.0000 
     13 OG         22.4900  -24.7700  -57.6500 O.3       1 SER1        0.0000 
     14 OG         23.7700  -24.9300  -58.4100 O.3       1 SER1        0.0000 
     15 OG         25.2900  -26.4000  -58.4900 O.3       1 SER1        0.0000 
     16 OG         21.7000  -22.5900  -56.4700 O.3       1 SER1        0.0000 
     17 N          25.5400  -23.0600  -58.7700 N.am      2 ALA2        0.0000 
     18 N          25.7900  -24.3800  -58.0800 N.am      2 ALA2        0.0000 
     19 O          26.8200  -23.2200  -59.5300 O.2       2 ALA2        0.0000 
     20 N          23.7200  -22.0400  -56.1400 N.am      2 ALA2        0.0000 
     21 N          25.0000  -22.2000  -56.9100 N.am      2 ALA2        0.0000 
     22 N          26.5300  -23.6700  -56.9900 N.am      2 ALA2        0.0000 
     23 N          23.1800  -21.1700  -54.2800 N.am      2 ALA2        0.0000 
     24 O          25.4900  -20.1800  -56.5000 O.2       2 ALA2        0.0000 
     25 N          24.9500  -19.3100  -54.6400 N.am      2 ALA2        0.0000 
     26 N          25.9900  -18.1500  -56.0900 N.am      2 ALA2        0.0000 
     27 N          26.2400  -19.4700  -55.4000 N.am      2 ALA2        0.0000 
     28 OD1        20.7600  -24.8800  -60.5200 O.co2     3 ASP3        0.0000 
     29 OD1        22.2800  -26.3500  -60.6000 O.co2     3 ASP3        0.0000 
     30 OD1        23.5700  -26.5100  -61.3600 O.co2     3 ASP3        0.0000 
     31 NZ         21.2500  -22.8600  -60.1100 N.4       4 LYS4        0.0000 
     32 NZ         21.5000  -24.1700  -59.4300 N.4       4 LYS4        0.0000 
     33 NZ         23.0300  -25.6400  -59.5100 N.4       4 LYS4        0.0000 
     34 NZ         24.3100  -25.8000  -60.2700 N.4       4 LYS4        0.0000 
     35 NZ         25.5900  -25.9500  -61.0300 N.4       4 LYS4        0.0000 
     36 NZ         22.2400  -23.4600  -58.3300 N.4       4 LYS4        0.0000 
     37 NZ         23.2700  -22.3100  -59.7800 N.4       4 LYS4        0.0000 
     38 NZ         23.5200  -23.6200  -59.1000 N.4       4 LYS4        0.0000 
     39 NZ         24.8000  -23.7700  -59.8600 N.4       4 LYS4        0.0000 
     40 NZ         25.0500  -25.0900  -59.1800 N.4       4 LYS4        0.0000 
     41 NZ         26.0800  -23.9300  -60.6200 N.4       4 LYS4        0.0000 
     42 CZ         20.1700  -25.7700  -55.4300 C.ar      5 PHE5        0.0000 
     43 CZ         21.2000  -24.6100  -56.8800 C.ar      5 PHE5        0.0000 
     44 CZ         21.9900  -22.1500  -59.0200 C.ar      5 PHE5        0.0000 
     45 CZ         20.6600  -23.7500  -55.0200 C.ar      5 PHE5        0.0000 
     46 CZ         21.9500  -23.9000  -55.7900 C.ar      5 PHE5        0.0000 
     47 CZ         22.7300  -21.4400  -57.9200 C.ar      5 PHE5        0.0000 
     48 CZ         23.2300  -24.0600  -56.5500 C.ar      5 PHE5        0.0000 
     49 CZ         24.5100  -24.2200  -57.3200 C.ar      5 PHE5        0.0000 
     50 CZ         26.0300  -25.6900  -57.4000 C.ar      5 PHE5        0.0000 
     51 CZ         19.8800  -21.5700  -53.8500 C.ar      5 PHE5        0.0000 
     52 CZ         21.1600  -21.7200  -54.6100 C.ar      5 PHE5        0.0000 
     53 CZ         21.4100  -23.0400  -53.9300 C.ar      5 PHE5        0.0000 
     54 CZ         22.4400  -21.8800  -55.3800 C.ar      5 PHE5        0.0000 
     55 CZ         22.6900  -23.1900  -54.6900 C.ar      5 PHE5        0.0000 
     56 CZ         23.4700  -20.7300  -56.8300 C.ar      5 PHE5        0.0000 
     57 CZ         21.9000  -21.0100  -53.5200 C.ar      5 PHE5        0.0000 
     58 CZ         22.9300  -19.8600  -54.9700 C.ar      5 PHE5        0.0000 
     59 CZ         24.2100  -20.0200  -55.7300 C.ar      5 PHE5        0.0000 
     60 CZ         23.6700  -19.1500  -53.8700 C.ar      5 PHE5        0.0000 
     61 CA         19.4800  -24.7200  -59.7500 C.3       6 GLY6        0.0000 
     62 CA         17.9000  -25.0100  -56.4500 C.3       6 GLY6        0.0000 
     63 CA         18.1500  -26.3200  -55.7600 C.3       6 GLY6        0.0000 
     64 CA         18.9400  -23.8500  -57.9000 C.3       6 GLY6        0.0000 
     65 CA         19.1800  -25.1700  -57.2100 C.3       6 GLY6        0.0000 
     66 CA         19.4300  -26.4800  -56.5300 C.3       6 GLY6        0.0000 
     67 CA         20.2200  -24.0100  -58.6600 C.3       6 GLY6        0.0000 
     68 CA         20.4600  -25.3200  -57.9800 C.3       6 GLY6        0.0000 
     69 CA         20.7100  -26.6300  -57.2900 C.3       6 GLY6        0.0000 
     70 CA         20.9600  -27.9500  -56.6100 C.3       6 GLY6        0.0000 
     71 CA         21.7400  -20.8400  -59.7000 C.3       6 GLY6        0.0000 
     72 CA         26.3300  -25.2400  -59.9400 C.3       6 GLY6        0.0000 
     73 CA         26.5700  -26.5600  -59.2600 C.3       6 GLY6        0.0000 
     74 CA         26.8200  -27.8700  -58.5700 C.3       6 GLY6        0.0000 
     75 CA         27.6100  -25.4000  -60.7100 C.3       6 GLY6        0.0000 
     76 CA         24.0100  -21.6000  -58.6900 C.3       6 GLY6        0.0000 
     77 CA         27.0700  -24.5300  -58.8500 C.3       6 GLY6        0.0000 
     78 CA         27.3200  -25.8500  -58.1600 C.3       6 GLY6        0.0000 
     79 CA         24.7500  -20.8900  -57.5900 C.3       6 GLY6        0.0000 
     80 CA         26.2800  -22.3500  -57.6700 C.3       6 GLY6        0.0000 
     81 CA         23.9200  -20.4600  -53.1900 C.3       6 GLY6        0.0000 
     82 CA         24.7100  -18.0000  -55.3200 C.3       6 GLY6        0.0000 
     83 DU         21.7400  -25.4800  -58.7400 H         7 CUB7        0.0000 
     84 DU         22.9800  -22.7500  -57.2400 H         7 CUB7        0.0000 
     85 DU         24.2600  -22.9100  -58.0000 H         7 CUB7        0.0000 
@<TRIPOS>BOND
@<TRIPOS>SUBSTRUCTURE
     1 SER1        1 GROUP   
     2 ALA2       17 GROUP   
     3 ASP3       28 GROUP   
     4 LYS4       31 GROUP   
     5 PHE5       42 GROUP   
     6 GLY6       61 GROUP   
     7 CUB7       83 GROUP   
@<TRIPOS>SET

