#    Name: 5ygk_7_DST_CAVITY_N1_4
#    Modification time : Fri May 22 19:16:26 2020

@<TRIPOS>MOLECULE
5ygk_7_DST_CAVITY_N1_4
   43     0     6     0     0
SMALL
NO_CHARGES


@<TRIPOS>ATOM
      1 OG        -73.8000  -14.0100  -26.6900 O.3       1 SER1        0.0000 
      2 OG        -74.9000  -13.2900  -27.4200 O.3       1 SER1        0.0000 
      3 OG        -71.2600  -13.5500  -26.9900 O.3       1 SER1        0.0000 
      4 OG        -72.3600  -12.8400  -27.7200 O.3       1 SER1        0.0000 
      5 OG        -73.1200  -12.6900  -26.4400 O.3       1 SER1        0.0000 
      6 N         -73.4600  -12.1200  -28.4500 N.am      2 ALA2        0.0000 
      7 N         -74.2200  -11.9800  -27.1700 N.am      2 ALA2        0.0000 
      8 N         -72.7800  -10.8100  -28.2000 N.am      2 ALA2        0.0000 
      9 O         -70.5800   -9.7900  -30.5100 O.2       2 ALA2        0.0000 
     10 O         -71.3400   -9.6400  -29.2200 O.2       2 ALA2        0.0000 
     11 O         -72.1000   -9.5000  -27.9400 O.2       2 ALA2        0.0000 
     12 O         -70.6600   -8.3300  -28.9700 O.2       2 ALA2        0.0000 
     13 O         -72.5200   -7.4800  -28.4100 O.2       2 ALA2        0.0000 
     14 N         -67.7800   -8.4500  -27.2500 N.am      2 ALA2        0.0000 
     15 OD1       -71.6900  -13.9800  -23.6900 O.co2     3 ASP3        0.0000 
     16 OD1       -69.4800  -12.9500  -26.0000 O.co2     3 ASP3        0.0000 
     17 OD1       -70.2400  -12.8100  -24.7200 O.co2     3 ASP3        0.0000 
     18 OD1       -71.3400  -12.1000  -25.4500 O.co2     3 ASP3        0.0000 
     19 OD1       -72.4400  -11.3800  -26.1800 O.co2     3 ASP3        0.0000 
     20 OD1       -73.5400  -10.6700  -26.9100 O.co2     3 ASP3        0.0000 
     21 OD1       -73.2000  -11.2400  -24.9000 O.co2     3 ASP3        0.0000 
     22 OD1       -69.9000  -10.9300  -26.4800 O.co2     3 ASP3        0.0000 
     23 OD1       -71.0000  -10.2100  -27.2100 O.co2     3 ASP3        0.0000 
     24 OD1       -71.7600  -10.0700  -25.9200 O.co2     3 ASP3        0.0000 
     25 OD1       -72.8600   -9.3600  -26.6500 O.co2     3 ASP3        0.0000 
     26 OD1       -73.6200   -9.2100  -25.3700 O.co2     3 ASP3        0.0000 
     27 OD1       -71.4200   -8.1900  -27.6800 O.co2     3 ASP3        0.0000 
     28 OD1       -72.1800   -8.0500  -26.4000 O.co2     3 ASP3        0.0000 
     29 OD1       -72.9400   -7.9000  -25.1100 O.co2     3 ASP3        0.0000 
     30 OD1       -71.5000   -6.7300  -26.1400 O.co2     3 ASP3        0.0000 
     31 OD1       -72.2600   -6.5900  -24.8600 O.co2     3 ASP3        0.0000 
     32 NZ        -68.4600   -9.7600  -27.5100 N.4       4 LYS4        0.0000 
     33 NZ        -69.5600   -9.0500  -28.2400 N.4       4 LYS4        0.0000 
     34 NZ        -70.3200   -8.9000  -26.9500 N.4       4 LYS4        0.0000 
     35 CZ        -70.9200  -14.1200  -24.9800 C.ar      5 PHE5        0.0000 
     36 CZ        -72.0200  -13.4100  -25.7100 C.ar      5 PHE5        0.0000 
     37 CZ        -70.9200  -11.6700  -28.7500 C.ar      5 PHE5        0.0000 
     38 CZ        -70.5800  -12.2400  -26.7300 C.ar      5 PHE5        0.0000 
     39 CZ        -69.1400  -11.0700  -27.7600 C.ar      5 PHE5        0.0000 
     40 CZ        -70.2400  -10.3600  -28.4900 C.ar      5 PHE5        0.0000 
     41 CZ        -68.8000   -9.1900  -29.5200 C.ar      5 PHE5        0.0000 
     42 DU        -73.8800  -12.5500  -25.1500 H         6 CUB7        0.0000 
     43 DU        -71.6800  -11.5300  -27.4700 H         6 CUB7        0.0000 
@<TRIPOS>BOND
@<TRIPOS>SUBSTRUCTURE
     1 SER1        1 GROUP   
     2 ALA2        6 GROUP   
     3 ASP3       15 GROUP   
     4 LYS4       32 GROUP   
     5 PHE5       35 GROUP   
     6 CUB7       42 GROUP   
@<TRIPOS>SET

