#    Name: 5ygk_12_DST
#    Modification time : Fri May 22 19:16:46 2020

@<TRIPOS>MOLECULE
5ygk_12_DST
   14    12     1     0     0
SMALL
NO_CHARGES


@<TRIPOS>ATOM
      1 O4        -53.5430   45.6440    6.3630 O.co2     1 DST302      0.0000 
      2 P1        -54.0150   46.5630    7.4760 P.3       1 DST302      0.0000 
      3 O6        -55.5000   46.4310    7.7060 O.co2     1 DST302      0.0000 
      4 O5        -53.2430   46.2430    8.7400 O.co2     1 DST302      0.0000 
      5 O2        -53.7430   48.0960    7.0240 O.3       1 DST302      0.0000 
      6 P3        -54.2700   48.7080    5.5820 P.3       1 DST302      0.0000 
      7 O8        -54.7920   47.5970    4.6910 O.co2     1 DST302      0.0000 
      8 O7        -55.3390   49.7600    5.7840 O.co2     1 DST302      0.0000 
      9 S9        -52.5270   49.5720    4.7390 Du        1 DST302      0.0000 
     10 C10       -52.7280   49.7270    2.9540 Du        1 DST302      0.0000 
     11 C11       -52.4690   51.1860    2.4960 Du        1 DST302      0.0000 
     12 C12       -53.6110   51.7700    2.0530 Du        1 DST302      0.0000 
     13 C13       -53.7260   53.2090    1.5320 Du        1 DST302      0.0000 
     14 C14       -54.9810   51.1320    2.0090 Du        1 DST302      0.0000 
@<TRIPOS>BOND
     1    1    2 ar   
     2    2    3 ar   
     3    2    4 ar   
     4    2    5 1    
     5    5    6 1    
     6    6    7 ar   
     7    6    8 ar   
     8    9   10 du   
     9   10   11 du   
    10   11   12 du   
    11   12   13 du   
    12   12   14 du   
@<TRIPOS>SUBSTRUCTURE
     1 DST302      1 GROUP   
@<TRIPOS>SET

