#    Name: 5ygk_16_DST
#    Modification time : Fri May 22 19:16:57 2020

@<TRIPOS>MOLECULE
5ygk_16_DST
   14    12     1     0     0
SMALL
NO_CHARGES


@<TRIPOS>ATOM
      1 O4        -23.0470  -27.7680  -17.9620 O.co2     1 DST302      0.0000 
      2 P1        -24.3090  -28.5980  -17.8550 P.3       1 DST302      0.0000 
      3 O6        -25.1650  -28.0930  -16.7150 O.co2     1 DST302      0.0000 
      4 O5        -24.9530  -28.5200  -19.2100 O.co2     1 DST302      0.0000 
      5 O2        -23.9850  -30.1530  -17.5740 O.3       1 DST302      0.0000 
      6 P3        -22.8720  -30.7740  -16.5210 P.3       1 DST302      0.0000 
      7 O8        -22.3370  -29.7150  -15.5900 O.co2     1 DST302      0.0000 
      8 O7        -23.4480  -31.9450  -15.7310 O.co2     1 DST302      0.0000 
      9 S9        -21.3020  -31.5080  -17.7200 Du        1 DST302      0.0000 
     10 C10       -19.8100  -31.4960  -16.7160 Du        1 DST302      0.0000 
     11 C11       -19.1900  -32.8890  -16.4330 Du        1 DST302      0.0000 
     12 C12       -19.5650  -33.3890  -15.2300 Du        1 DST302      0.0000 
     13 C13       -20.5330  -32.7080  -14.2460 Du        1 DST302      0.0000 
     14 C14       -19.1370  -34.7100  -14.6440 Du        1 DST302      0.0000 
@<TRIPOS>BOND
     1    1    2 ar   
     2    2    3 ar   
     3    2    4 ar   
     4    2    5 1    
     5    5    6 1    
     6    6    7 ar   
     7    6    8 ar   
     8    9   10 du   
     9   10   11 du   
    10   11   12 du   
    11   12   13 du   
    12   12   14 du   
@<TRIPOS>SUBSTRUCTURE
     1 DST302      1 GROUP   
@<TRIPOS>SET

