#    Name: 5ygk_3_DST
#    Modification time : Fri May 22 19:16:09 2020

@<TRIPOS>MOLECULE
5ygk_3_DST
   14    13     1     0     0
SMALL
NO_CHARGES


@<TRIPOS>ATOM
      1 O4        -40.0360   29.8350  -14.7440 O.co2     1 DST301      0.0000 
      2 P1        -40.8630   30.5610  -15.6840 P.3       1 DST301      0.0000 
      3 O6        -41.1980   31.8500  -15.1930 O.co2     1 DST301      0.0000 
      4 O5        -40.1590   30.8100  -16.9000 O.co2     1 DST301      0.0000 
      5 O2        -42.1570   29.7170  -15.8740 O.3       1 DST301      0.0000 
      6 P3        -42.0520   28.4510  -16.8370 P.3       1 DST301      0.0000 
      7 O8        -41.4990   27.2900  -16.1090 O.co2     1 DST301      0.0000 
      8 O7        -41.3030   28.8530  -18.0480 O.co2     1 DST301      0.0000 
      9 S9        -43.8160   28.0070  -17.7540 S.3       1 DST301      0.0000 
     10 C10       -44.0560   26.2560  -17.5160 C.3       1 DST301      0.0000 
     11 C11       -45.4440   25.9080  -16.9700 C.3       1 DST301      0.0000 
     12 C12       -45.5510   26.2130  -15.6830 C.3       1 DST301      0.0000 
     13 C13       -44.4500   26.8570  -14.8440 C.3       1 DST301      0.0000 
     14 C14       -46.7960   25.9780  -14.8890 C.3       1 DST301      0.0000 
@<TRIPOS>BOND
     1    1    2 ar   
     2    2    3 ar   
     3    2    4 ar   
     4    2    5 1    
     5    5    6 1    
     6    6    7 ar   
     7    6    8 ar   
     8    6    9 1    
     9    9   10 1    
    10   10   11 1    
    11   11   12 1    
    12   12   13 1    
    13   12   14 1    
@<TRIPOS>SUBSTRUCTURE
     1 DST301      1 GROUP   
@<TRIPOS>SET

