#    Name: 5ygk_12_DST_CAVITY_N1_4
#    Modification time : Fri May 22 19:16:47 2020

@<TRIPOS>MOLECULE
5ygk_12_DST_CAVITY_N1_4
   30     0     6     0     0
SMALL
NO_CHARGES


@<TRIPOS>ATOM
      1 OG        -53.2300   49.8000    4.6400 O.3       1 SER1        0.0000 
      2 OG        -54.3300   50.5200    3.9100 O.3       1 SER1        0.0000 
      3 OG        -54.0000   49.9500    5.9200 O.3       1 SER1        0.0000 
      4 N         -54.1700   47.6100    0.8300 N.am      2 ALA2        0.0000 
      5 O         -54.6800   46.1800    9.4400 O.2       2 ALA2        0.0000 
      6 N         -54.2500   49.0600    2.3700 N.am      2 ALA2        0.0000 
      7 N         -55.3500   49.7700    1.6400 N.am      2 ALA2        0.0000 
      8 N         -52.4700   49.6600    3.3500 N.am      2 ALA2        0.0000 
      9 O         -52.1400   49.0900    5.3700 O.2       2 ALA2        0.0000 
     10 N         -51.7900   50.9700    3.6100 N.am      2 ALA2        0.0000 
     11 OD1       -55.6100   46.4400    1.8500 O.co2     3 ASP3        0.0000 
     12 OD1       -54.6000   44.7300    7.9000 O.co2     3 ASP3        0.0000 
     13 OD1       -55.3600   44.8700    9.1800 O.co2     3 ASP3        0.0000 
     14 OD1       -56.4600   45.5900    8.4500 O.co2     3 ASP3        0.0000 
     15 OD1       -54.9300   47.7500    2.1100 O.co2     3 ASP3        0.0000 
     16 OD1       -55.6900   47.8900    3.3900 O.co2     3 ASP3        0.0000 
     17 OD1       -53.9200   46.0400    8.1600 O.co2     3 ASP3        0.0000 
     18 OD1       -55.0200   46.7500    7.4300 O.co2     3 ASP3        0.0000 
     19 OD1       -53.9200   48.4900    4.3800 O.co2     3 ASP3        0.0000 
     20 OD1       -55.0100   49.2000    3.6500 O.co2     3 ASP3        0.0000 
     21 OD1       -53.5800   47.9200    6.4000 O.co2     3 ASP3        0.0000 
     22 OD1       -54.6800   48.6400    5.6700 O.co2     3 ASP3        0.0000 
     23 OD1       -55.7800   49.3500    4.9400 O.co2     3 ASP3        0.0000 
     24 OD1       -55.4300   51.2300    3.1800 O.co2     3 ASP3        0.0000 
     25 NZ        -53.0700   46.8900    1.5600 N.4       4 LYS4        0.0000 
     26 NZ        -52.3900   48.2000    1.8100 N.4       4 LYS4        0.0000 
     27 NZ        -53.1500   48.3500    3.1000 N.4       4 LYS4        0.0000 
     28 CA        -55.7800   46.9000    8.7100 C.3       5 GLY6        0.0000 
     29 CA        -52.5500   51.1200    4.9000 C.3       5 GLY6        0.0000 
     30 DU        -53.5700   50.3700    2.6200 H         6 CUB7        0.0000 
@<TRIPOS>BOND
@<TRIPOS>SUBSTRUCTURE
     1 SER1        1 GROUP   
     2 ALA2        4 GROUP   
     3 ASP3       11 GROUP   
     4 LYS4       25 GROUP   
     5 GLY6       28 GROUP   
     6 CUB7       30 GROUP   
@<TRIPOS>SET

