#    Name: 5ygk_15_DST_CAVITY_N1_4
#    Modification time : Fri May 22 19:16:52 2020

@<TRIPOS>MOLECULE
5ygk_15_DST_CAVITY_N1_4
   34     0     6     0     0
SMALL
NO_CHARGES


@<TRIPOS>ATOM
      1 OG        -18.8000  -24.8000  -12.1800 O.3       1 SER1        0.0000 
      2 N         -18.9000  -31.0400  -15.0400 N.am      2 ALA2        0.0000 
      3 N         -19.6600  -30.9000  -13.7600 N.am      2 ALA2        0.0000 
      4 N         -18.9800  -29.5900  -13.5000 N.am      2 ALA2        0.0000 
      5 O         -19.7400  -29.4400  -12.2200 O.2       2 ALA2        0.0000 
      6 O         -21.6000  -28.5900  -11.6600 O.2       2 ALA2        0.0000 
      7 OD1       -21.4400  -31.5000  -14.7400 O.co2     3 ASP3        0.0000 
      8 OD1       -22.5400  -30.7900  -15.4700 O.co2     3 ASP3        0.0000 
      9 OD1       -20.7600  -30.1900  -14.4900 O.co2     3 ASP3        0.0000 
     10 OD1       -21.5200  -30.0400  -13.2000 O.co2     3 ASP3        0.0000 
     11 OD1       -22.6200  -29.3300  -13.9300 O.co2     3 ASP3        0.0000 
     12 OD1       -23.7200  -28.6200  -14.6600 O.co2     3 ASP3        0.0000 
     13 OD1       -20.0800  -28.8700  -14.2300 O.co2     3 ASP3        0.0000 
     14 OD1       -20.8400  -28.7300  -12.9500 O.co2     3 ASP3        0.0000 
     15 OD1       -21.9400  -28.0200  -13.6800 O.co2     3 ASP3        0.0000 
     16 OD1       -19.4000  -27.5600  -13.9700 O.co2     3 ASP3        0.0000 
     17 OD1       -20.1600  -27.4200  -12.6900 O.co2     3 ASP3        0.0000 
     18 OD1       -21.2600  -26.7100  -13.4200 O.co2     3 ASP3        0.0000 
     19 OD1       -22.3600  -25.9900  -14.1500 O.co2     3 ASP3        0.0000 
     20 OD1       -18.7200  -26.2500  -13.7200 O.co2     3 ASP3        0.0000 
     21 OD1       -19.8200  -25.5400  -14.4500 O.co2     3 ASP3        0.0000 
     22 OD1       -20.9200  -24.8200  -15.1800 O.co2     3 ASP3        0.0000 
     23 OD1       -20.5800  -25.3900  -13.1600 O.co2     3 ASP3        0.0000 
     24 OD1       -21.6800  -24.6800  -13.8900 O.co2     3 ASP3        0.0000 
     25 OD1       -19.9000  -24.0800  -12.9100 O.co2     3 ASP3        0.0000 
     26 NZ        -20.0000  -30.3300  -15.7700 N.4       4 LYS4        0.0000 
     27 NZ        -18.2200  -29.7300  -14.7800 N.4       4 LYS4        0.0000 
     28 NZ        -19.3200  -29.0200  -15.5200 N.4       4 LYS4        0.0000 
     29 NZ        -18.6400  -27.7100  -15.2600 N.4       4 LYS4        0.0000 
     30 CZ        -17.5400  -28.4200  -14.5300 C.ar      5 PHE5        0.0000 
     31 CZ        -18.3000  -28.2800  -13.2400 C.ar      5 PHE5        0.0000 
     32 CZ        -17.6200  -26.9600  -12.9900 C.ar      5 PHE5        0.0000 
     33 DU        -23.1200  -25.8500  -12.8700 H         6 CUB7        0.0000 
     34 DU        -19.4800  -26.1100  -12.4300 H         6 CUB7        0.0000 
@<TRIPOS>BOND
@<TRIPOS>SUBSTRUCTURE
     1 SER1        1 GROUP   
     2 ALA2        2 GROUP   
     3 ASP3        7 GROUP   
     4 LYS4       26 GROUP   
     5 PHE5       30 GROUP   
     6 CUB7       33 GROUP   
@<TRIPOS>SET

