#    Name: 5ygk_1_DST
#    Modification time : Fri May 22 19:16:00 2020

@<TRIPOS>MOLECULE
5ygk_1_DST
   14    13     1     0     0
SMALL
NO_CHARGES


@<TRIPOS>ATOM
      1 O4        -27.5250   32.0880  -24.5570 O.co2     1 DST301      0.0000 
      2 P1        -27.2950   31.4960  -25.8260 P.3       1 DST301      0.0000 
      3 O6        -28.4760   30.8010  -26.1710 O.co2     1 DST301      0.0000 
      4 O5        -27.0310   32.4920  -26.7840 O.co2     1 DST301      0.0000 
      5 O2        -26.1390   30.4790  -25.7320 O.3       1 DST301      0.0000 
      6 P3        -26.2410   29.2450  -24.7350 P.3       1 DST301      0.0000 
      7 O8        -26.9620   29.5650  -23.5150 O.co2     1 DST301      0.0000 
      8 O7        -26.8320   28.0550  -25.3900 O.co2     1 DST301      0.0000 
      9 S9        -24.3760   29.0590  -23.9180 S.3       1 DST301      0.0000 
     10 C10       -23.8340   27.4730  -24.4700 C.3       1 DST301      0.0000 
     11 C11       -23.4080   27.7180  -25.9040 C.3       1 DST301      0.0000 
     12 C12       -22.1520   27.3090  -26.0100 C.3       1 DST301      0.0000 
     13 C13       -21.3810   27.4120  -27.3140 C.3       1 DST301      0.0000 
     14 C14       -21.3580   26.6820  -24.9080 C.3       1 DST301      0.0000 
@<TRIPOS>BOND
     1    1    2 ar   
     2    2    3 ar   
     3    2    4 ar   
     4    2    5 1    
     5    5    6 1    
     6    6    7 ar   
     7    6    8 ar   
     8    6    9 1    
     9    9   10 1    
    10   10   11 1    
    11   11   12 1    
    12   12   13 1    
    13   12   14 1    
@<TRIPOS>SUBSTRUCTURE
     1 DST301      1 GROUP   
@<TRIPOS>SET

