#    Name: 5ygk_1_DST_CAVITY_N1_6
#    Modification time : Fri May 22 19:16:01 2020

@<TRIPOS>MOLECULE
5ygk_1_DST_CAVITY_N1_6
   70     0     7     0     0
SMALL
NO_CHARGES


@<TRIPOS>ATOM
      1 OG        -25.8900   22.2300  -23.3700 O.3       1 SER1        0.0000 
      2 OG        -27.7500   23.0900  -22.8200 O.3       1 SER1        0.0000 
      3 OG        -24.1100   22.8300  -22.3900 O.3       1 SER1        0.0000 
      4 OG        -25.2100   23.5400  -23.1200 O.3       1 SER1        0.0000 
      5 OG        -25.9700   23.6900  -21.8300 O.3       1 SER1        0.0000 
      6 OG        -26.1200   31.5000  -26.3000 O.3       1 SER1        0.0000 
      7 OG        -26.8800   31.6400  -25.0100 O.3       1 SER1        0.0000 
      8 OG        -26.2000   32.9600  -24.7600 O.3       1 SER1        0.0000 
      9 O         -26.2300   22.8000  -25.3900 O.2       2 ALA2        0.0000 
     10 O         -26.9900   22.9500  -24.1000 O.2       2 ALA2        0.0000 
     11 N         -21.9100   23.8600  -24.7000 N.am      2 ALA2        0.0000 
     12 N         -21.5700   23.2900  -22.6800 N.am      2 ALA2        0.0000 
     13 N         -22.6700   24.0000  -23.4100 N.am      2 ALA2        0.0000 
     14 N         -23.7700   24.7100  -24.1400 N.am      2 ALA2        0.0000 
     15 N         -23.4300   24.1400  -22.1300 N.am      2 ALA2        0.0000 
     16 N         -21.2200   25.1700  -24.4400 N.am      2 ALA2        0.0000 
     17 N         -22.3200   25.8800  -25.1700 N.am      2 ALA2        0.0000 
     18 N         -21.9900   25.3100  -23.1600 N.am      2 ALA2        0.0000 
     19 N         -23.0800   26.0200  -23.8900 N.am      2 ALA2        0.0000 
     20 N         -23.8500   26.1700  -22.6000 N.am      2 ALA2        0.0000 
     21 N         -24.9400   26.8800  -23.3300 N.am      2 ALA2        0.0000 
     22 N         -22.4000   27.3400  -23.6300 N.am      2 ALA2        0.0000 
     23 N         -24.2600   28.1900  -23.0800 N.am      2 ALA2        0.0000 
     24 O         -26.1200   29.0500  -22.5200 O.2       2 ALA2        0.0000 
     25 O         -26.8900   29.1900  -21.2400 O.2       2 ALA2        0.0000 
     26 N         -23.5800   29.5000  -22.8200 N.am      2 ALA2        0.0000 
     27 O         -25.4400   30.3600  -22.2700 O.2       2 ALA2        0.0000 
     28 OD1       -28.0900   23.6600  -24.8300 O.co2     3 ASP3        0.0000 
     29 OD1       -29.6100   23.9500  -22.2700 O.co2     3 ASP3        0.0000 
     30 OD1       -30.7100   24.6600  -23.0000 O.co2     3 ASP3        0.0000 
     31 OD1       -26.3100   24.2600  -23.8500 O.co2     3 ASP3        0.0000 
     32 OD1       -27.0700   24.4000  -22.5600 O.co2     3 ASP3        0.0000 
     33 OD1       -28.1700   25.1100  -23.2900 O.co2     3 ASP3        0.0000 
     34 OD1       -28.9300   25.2600  -22.0100 O.co2     3 ASP3        0.0000 
     35 OD1       -29.6900   25.4000  -20.7200 O.co2     3 ASP3        0.0000 
     36 OD1       -24.5300   24.8600  -22.8600 O.co2     3 ASP3        0.0000 
     37 OD1       -25.6300   25.5700  -23.5900 O.co2     3 ASP3        0.0000 
     38 OD1       -24.1900   24.2900  -20.8400 O.co2     3 ASP3        0.0000 
     39 OD1       -27.4900   26.4300  -23.0400 O.co2     3 ASP3        0.0000 
     40 OD1       -25.2800   27.4500  -25.3500 O.co2     3 ASP3        0.0000 
     41 OD1       -26.0400   27.5900  -24.0600 O.co2     3 ASP3        0.0000 
     42 OD1       -26.8000   27.7400  -22.7800 O.co2     3 ASP3        0.0000 
     43 OD1       -25.7000   29.4800  -25.8200 O.co2     3 ASP3        0.0000 
     44 OD1       -26.8000   30.1900  -26.5500 O.co2     3 ASP3        0.0000 
     45 OD1       -26.4600   29.6200  -24.5400 O.co2     3 ASP3        0.0000 
     46 OD1       -27.5600   30.3300  -25.2700 O.co2     3 ASP3        0.0000 
     47 OD1       -28.6600   31.0500  -26.0000 O.co2     3 ASP3        0.0000 
     48 OD1       -27.9800   32.3600  -25.7400 O.co2     3 ASP3        0.0000 
     49 NZ        -25.5400   24.1100  -25.1300 N.4       4 LYS4        0.0000 
     50 NZ        -24.8600   25.4300  -24.8800 N.4       4 LYS4        0.0000 
     51 NZ        -24.5200   27.3100  -26.6300 N.4       4 LYS4        0.0000 
     52 NZ        -24.1800   26.7400  -24.6200 N.4       4 LYS4        0.0000 
     53 CZ        -22.2500   21.9800  -22.9400 C.ar      5 PHE5        0.0000 
     54 CZ        -23.3500   22.6900  -23.6700 C.ar      5 PHE5        0.0000 
     55 CZ        -23.0100   22.1200  -21.6600 C.ar      5 PHE5        0.0000 
     56 CZ        -20.8100   23.1400  -23.9700 C.ar      5 PHE5        0.0000 
     57 CZ        -22.3300   23.4300  -21.4000 C.ar      5 PHE5        0.0000 
     58 CZ        -22.7400   27.9100  -25.6500 C.ar      5 PHE5        0.0000 
     59 CZ        -23.8400   28.6200  -26.3800 C.ar      5 PHE5        0.0000 
     60 CZ        -23.5000   28.0500  -24.3600 C.ar      5 PHE5        0.0000 
     61 CZ        -24.6000   28.7600  -25.0900 C.ar      5 PHE5        0.0000 
     62 CZ        -25.0200   30.7900  -25.5700 C.ar      5 PHE5        0.0000 
     63 CZ        -24.6800   30.2200  -23.5500 C.ar      5 PHE5        0.0000 
     64 CA        -28.8500   23.8000  -23.5500 C.3       6 GLY6        0.0000 
     65 CA        -22.5900   22.5400  -24.9600 C.3       6 GLY6        0.0000 
     66 CA        -24.4500   23.4000  -24.4000 C.3       6 GLY6        0.0000 
     67 DU        -25.3600   28.9100  -23.8100 H         7 CUB7        0.0000 
     68 DU        -27.2200   29.7600  -23.2500 H         7 CUB7        0.0000 
     69 DU        -25.7800   30.9300  -24.2800 H         7 CUB7        0.0000 
     70 DU        -26.5400   31.0700  -23.0000 H         7 CUB7        0.0000 
@<TRIPOS>BOND
@<TRIPOS>SUBSTRUCTURE
     1 SER1        1 GROUP   
     2 ALA2        9 GROUP   
     3 ASP3       28 GROUP   
     4 LYS4       49 GROUP   
     5 PHE5       53 GROUP   
     6 GLY6       64 GROUP   
     7 CUB7       67 GROUP   
@<TRIPOS>SET

