#    Name: 5ygk_2_DST
#    Modification time : Fri May 22 19:16:04 2020

@<TRIPOS>MOLECULE
5ygk_2_DST
   14    13     1     0     0
SMALL
NO_CHARGES


@<TRIPOS>ATOM
      1 O4        -29.2570   25.2960  -27.0880 O.co2     1 DST302      0.0000 
      2 P1        -29.8280   24.2200  -26.3530 P.3       1 DST302      0.0000 
      3 O6        -30.7570   24.7920  -25.4030 O.co2     1 DST302      0.0000 
      4 O5        -30.4700   23.2710  -27.1980 O.co2     1 DST302      0.0000 
      5 O2        -28.7140   23.4440  -25.5800 O.3       1 DST302      0.0000 
      6 P3        -27.5510   24.2040  -24.7700 P.3       1 DST302      0.0000 
      7 O8        -27.6210   23.7970  -23.3820 O.co2     1 DST302      0.0000 
      8 O7        -27.6340   25.6480  -25.0550 O.co2     1 DST302      0.0000 
      9 S9        -25.9140   23.2300  -25.5440 S.3       1 DST302      0.0000 
     10 C10       -24.3810   23.9410  -24.9660 C.3       1 DST302      0.0000 
     11 C11       -24.3590   24.2650  -23.4530 C.3       1 DST302      0.0000 
     12 C12       -23.2320   23.8270  -22.8630 C.3       1 DST302      0.0000 
     13 C13       -22.0940   23.0820  -23.5510 C.3       1 DST302      0.0000 
     14 C14       -22.8410   23.9830  -21.4320 C.3       1 DST302      0.0000 
@<TRIPOS>BOND
     1    1    2 ar   
     2    2    3 ar   
     3    2    4 ar   
     4    2    5 1    
     5    5    6 1    
     6    6    7 ar   
     7    6    8 ar   
     8    6    9 1    
     9    9   10 1    
    10   10   11 1    
    11   11   12 1    
    12   12   13 1    
    13   12   14 1    
@<TRIPOS>SUBSTRUCTURE
     1 DST302      1 GROUP   
@<TRIPOS>SET

