#    Name: 5ygk_7_DST
#    Modification time : Fri May 22 19:16:25 2020

@<TRIPOS>MOLECULE
5ygk_7_DST
   14    12     1     0     0
SMALL
NO_CHARGES


@<TRIPOS>ATOM
      1 O4        -69.9330  -14.4760  -24.3520 O.co2     1 DST301      0.0000 
      2 P1        -70.6710  -13.2650  -24.5830 P.3       1 DST301      0.0000 
      3 O6        -70.4250  -12.4320  -23.4500 O.co2     1 DST301      0.0000 
      4 O5        -72.0890  -13.5640  -24.6560 O.co2     1 DST301      0.0000 
      5 O2        -70.2420  -12.5720  -25.8960 O.3       1 DST301      0.0000 
      6 P3        -70.6450  -11.0850  -26.3490 P.3       1 DST301      0.0000 
      7 O8        -71.0810  -10.2910  -25.1910 O.co2     1 DST301      0.0000 
      8 O7        -71.5140  -11.0980  -27.5210 O.co2     1 DST301      0.0000 
      9 S9        -68.7670  -10.3370  -26.9860 Du        1 DST301      0.0000 
     10 C10       -68.9870   -8.6890  -27.5920 Du        1 DST301      0.0000 
     11 C11       -69.4740   -8.7010  -29.0300 Du        1 DST301      0.0000 
     12 C12       -68.5110   -8.7820  -29.9490 Du        1 DST301      0.0000 
     13 C13       -66.9950   -8.8950  -29.7710 Du        1 DST301      0.0000 
     14 C14       -68.8360   -8.7880  -31.3940 Du        1 DST301      0.0000 
@<TRIPOS>BOND
     1    1    2 ar   
     2    2    3 ar   
     3    2    4 ar   
     4    2    5 1    
     5    5    6 1    
     6    6    7 ar   
     7    6    8 ar   
     8    9   10 du   
     9   10   11 du   
    10   11   12 du   
    11   12   13 du   
    12   12   14 du   
@<TRIPOS>SUBSTRUCTURE
     1 DST301      1 GROUP   
@<TRIPOS>SET

