#    Name: 5ygk_16_DST_CAVITY_N1_4
#    Modification time : Fri May 22 19:16:58 2020

@<TRIPOS>MOLECULE
5ygk_16_DST_CAVITY_N1_4
   40     0     6     0     0
SMALL
NO_CHARGES


@<TRIPOS>ATOM
      1 OG        -20.2600  -33.6700  -15.5500 O.3       1 SER1        0.0000 
      2 OG        -21.3600  -32.9500  -16.2800 O.3       1 SER1        0.0000 
      3 OG        -22.4600  -32.2400  -17.0200 O.3       1 SER1        0.0000 
      4 OG        -21.0200  -33.5200  -14.2700 O.3       1 SER1        0.0000 
      5 OG        -23.2200  -32.1000  -15.7300 O.3       1 SER1        0.0000 
      6 O         -23.5600  -31.5300  -17.7500 O.2       2 ALA2        0.0000 
      7 N         -19.9200  -31.7900  -17.3100 N.am      2 ALA2        0.0000 
      8 O         -21.0200  -31.0700  -18.0400 O.2       2 ALA2        0.0000 
      9 N         -18.9000  -31.0400  -15.0400 N.am      2 ALA2        0.0000 
     10 N         -19.6600  -30.9000  -13.7600 N.am      2 ALA2        0.0000 
     11 N         -18.9800  -29.5900  -13.5000 N.am      2 ALA2        0.0000 
     12 OD1       -25.0800  -31.2400  -15.1800 O.co2     3 ASP3        0.0000 
     13 OD1       -21.7800  -30.9300  -16.7600 O.co2     3 ASP3        0.0000 
     14 OD1       -22.8800  -30.2200  -17.4900 O.co2     3 ASP3        0.0000 
     15 OD1       -20.3400  -32.2100  -14.0100 O.co2     3 ASP3        0.0000 
     16 OD1       -21.4400  -31.5000  -14.7400 O.co2     3 ASP3        0.0000 
     17 OD1       -22.5400  -30.7900  -15.4700 O.co2     3 ASP3        0.0000 
     18 OD1       -23.6400  -30.0700  -16.2000 O.co2     3 ASP3        0.0000 
     19 OD1       -24.4000  -29.9300  -14.9200 O.co2     3 ASP3        0.0000 
     20 OD1       -20.7600  -30.1900  -14.4900 O.co2     3 ASP3        0.0000 
     21 OD1       -21.5200  -30.0400  -13.2000 O.co2     3 ASP3        0.0000 
     22 OD1       -22.6200  -29.3300  -13.9300 O.co2     3 ASP3        0.0000 
     23 OD1       -23.7200  -28.6200  -14.6600 O.co2     3 ASP3        0.0000 
     24 OD1       -20.0800  -28.8700  -14.2300 O.co2     3 ASP3        0.0000 
     25 OD1       -20.8400  -28.7300  -12.9500 O.co2     3 ASP3        0.0000 
     26 OD1       -21.9400  -28.0200  -13.6800 O.co2     3 ASP3        0.0000 
     27 OD1       -19.4000  -27.5600  -13.9700 O.co2     3 ASP3        0.0000 
     28 OD1       -21.2600  -26.7100  -13.4200 O.co2     3 ASP3        0.0000 
     29 OD1       -22.3600  -25.9900  -14.1500 O.co2     3 ASP3        0.0000 
     30 OD1       -23.4600  -25.2800  -14.8800 O.co2     3 ASP3        0.0000 
     31 NZ        -20.6800  -31.6400  -16.0300 N.4       4 LYS4        0.0000 
     32 NZ        -19.2400  -30.4700  -17.0600 N.4       4 LYS4        0.0000 
     33 NZ        -20.0000  -30.3300  -15.7700 N.4       4 LYS4        0.0000 
     34 NZ        -19.3200  -29.0200  -15.5200 N.4       4 LYS4        0.0000 
     35 CA        -20.6000  -33.1000  -17.5700 C.3       5 GLY6        0.0000 
     36 CA        -21.7000  -32.3800  -18.3000 C.3       5 GLY6        0.0000 
     37 CA        -24.3200  -31.3800  -16.4600 C.3       5 GLY6        0.0000 
     38 CA        -24.7400  -29.3600  -16.9400 C.3       5 GLY6        0.0000 
     39 CA        -25.5000  -29.2200  -15.6500 C.3       5 GLY6        0.0000 
     40 DU        -19.5800  -32.3500  -15.3000 H         6 CUB7        0.0000 
@<TRIPOS>BOND
@<TRIPOS>SUBSTRUCTURE
     1 SER1        1 GROUP   
     2 ALA2        6 GROUP   
     3 ASP3       12 GROUP   
     4 LYS4       31 GROUP   
     5 GLY6       35 GROUP   
     6 CUB7       40 GROUP   
@<TRIPOS>SET

