#    Name: 5ygk_3_DST_CAVITY_N1_4
#    Modification time : Fri May 22 19:16:10 2020

@<TRIPOS>MOLECULE
5ygk_3_DST_CAVITY_N1_4
   81     0     7     0     0
SMALL
NO_CHARGES


@<TRIPOS>ATOM
      1 OG        -44.9300   22.6700  -18.9400 O.3       1 SER1        0.0000 
      2 OG        -42.3900   23.1200  -19.2400 O.3       1 SER1        0.0000 
      3 OG        -43.4900   23.8400  -19.9700 O.3       1 SER1        0.0000 
      4 OG        -43.1500   23.2700  -17.9500 O.3       1 SER1        0.0000 
      5 OG        -42.9700   30.5100  -20.4000 O.3       1 SER1        0.0000 
      6 OG        -42.6300   29.9400  -18.3900 O.3       1 SER1        0.0000 
      7 OG        -43.7300   30.6500  -19.1200 O.3       1 SER1        0.0000 
      8 OG        -41.1900   31.1100  -19.4100 O.3       1 SER1        0.0000 
      9 OG        -41.9500   31.2500  -18.1300 O.3       1 SER1        0.0000 
     10 OG        -41.6100   30.6800  -16.1100 O.3       1 SER1        0.0000 
     11 OG        -40.9300   31.9900  -15.8600 O.3       1 SER1        0.0000 
     12 N         -46.0300   23.3800  -19.6700 N.am      2 ALA2        0.0000 
     13 N         -45.6900   22.8100  -17.6500 N.am      2 ALA2        0.0000 
     14 N         -46.7900   23.5200  -18.3800 N.am      2 ALA2        0.0000 
     15 N         -47.5500   23.6700  -17.1000 N.am      2 ALA2        0.0000 
     16 O         -44.2500   23.9800  -18.6800 O.2       2 ALA2        0.0000 
     17 O         -45.3500   24.6900  -19.4100 O.2       2 ALA2        0.0000 
     18 N         -43.9100   23.4100  -16.6700 N.am      2 ALA2        0.0000 
     19 N         -45.0100   24.1200  -17.4000 N.am      2 ALA2        0.0000 
     20 N         -46.1100   24.8400  -18.1300 N.am      2 ALA2        0.0000 
     21 N         -46.8700   24.9800  -16.8400 N.am      2 ALA2        0.0000 
     22 N         -47.9700   25.6900  -17.5700 N.am      2 ALA2        0.0000 
     23 N         -47.6300   25.1200  -15.5600 N.am      2 ALA2        0.0000 
     24 N         -42.8100   25.1500  -19.7100 N.am      2 ALA2        0.0000 
     25 O         -43.5700   25.2900  -18.4300 O.2       2 ALA2        0.0000 
     26 O         -45.4300   26.1500  -17.8700 O.2       2 ALA2        0.0000 
     27 N         -43.9900   24.8600  -15.1300 N.am      2 ALA2        0.0000 
     28 N         -45.0900   25.5800  -15.8600 N.am      2 ALA2        0.0000 
     29 N         -45.8500   25.7200  -14.5700 N.am      2 ALA2        0.0000 
     30 N         -42.1300   26.4600  -19.4500 N.am      2 ALA2        0.0000 
     31 O         -42.8900   26.6000  -18.1700 O.2       2 ALA2        0.0000 
     32 N         -41.4500   27.7700  -19.2000 N.am      2 ALA2        0.0000 
     33 N         -43.3100   28.6300  -18.6400 N.am      2 ALA2        0.0000 
     34 N         -41.8700   29.8000  -19.6700 N.am      2 ALA2        0.0000 
     35 OD1       -41.7100   24.4300  -18.9800 O.co2     3 ASP3        0.0000 
     36 OD1       -41.3700   23.8700  -16.9600 O.co2     3 ASP3        0.0000 
     37 OD1       -42.4700   24.5800  -17.7000 O.co2     3 ASP3        0.0000 
     38 OD1       -39.9300   25.0300  -17.9900 O.co2     3 ASP3        0.0000 
     39 OD1       -41.0300   25.7500  -18.7200 O.co2     3 ASP3        0.0000 
     40 OD1       -41.7900   25.8900  -17.4400 O.co2     3 ASP3        0.0000 
     41 OD1       -38.1500   25.6300  -17.0100 O.co2     3 ASP3        0.0000 
     42 OD1       -39.2500   26.3500  -17.7400 O.co2     3 ASP3        0.0000 
     43 OD1       -40.3500   27.0600  -18.4700 O.co2     3 ASP3        0.0000 
     44 OD1       -41.1100   27.2000  -17.1800 O.co2     3 ASP3        0.0000 
     45 OD1       -42.2100   27.9100  -17.9100 O.co2     3 ASP3        0.0000 
     46 OD1       -42.9700   28.0600  -16.6300 O.co2     3 ASP3        0.0000 
     47 OD1       -42.6300   27.4900  -14.6100 O.co2     3 ASP3        0.0000 
     48 OD1       -43.7300   28.2000  -15.3400 O.co2     3 ASP3        0.0000 
     49 OD1       -41.1100   29.6500  -20.9600 O.co2     3 ASP3        0.0000 
     50 OD1       -39.6700   28.3700  -18.2100 O.co2     3 ASP3        0.0000 
     51 OD1       -40.4300   28.5100  -16.9300 O.co2     3 ASP3        0.0000 
     52 OD1       -41.1900   28.6600  -15.6400 O.co2     3 ASP3        0.0000 
     53 OD1       -42.2900   29.3700  -16.3700 O.co2     3 ASP3        0.0000 
     54 OD1       -43.0500   29.5100  -15.0900 O.co2     3 ASP3        0.0000 
     55 OD1       -38.6500   29.1100  -15.9400 O.co2     3 ASP3        0.0000 
     56 OD1       -40.5100   29.9700  -15.3800 O.co2     3 ASP3        0.0000 
     57 OD1       -37.9700   30.4200  -15.6800 O.co2     3 ASP3        0.0000 
     58 OD1       -39.0700   31.1400  -16.4100 O.co2     3 ASP3        0.0000 
     59 OD1       -39.8300   31.2800  -15.1300 O.co2     3 ASP3        0.0000 
     60 NZ        -43.2300   24.7200  -16.4100 N.4       4 LYS4        0.0000 
     61 NZ        -42.5500   26.0300  -16.1500 N.4       4 LYS4        0.0000 
     62 CZ        -46.1900   26.2900  -16.5900 C.ar      5 PHE5        0.0000 
     63 CZ        -46.9500   26.4300  -15.3000 C.ar      5 PHE5        0.0000 
     64 CZ        -44.7500   27.4600  -17.6200 C.ar      5 PHE5        0.0000 
     65 CZ        -44.4100   26.8900  -15.6000 C.ar      5 PHE5        0.0000 
     66 CZ        -45.1700   27.0300  -14.3200 C.ar      5 PHE5        0.0000 
     67 CZ        -44.0700   28.7700  -17.3600 C.ar      5 PHE5        0.0000 
     68 CZ        -43.3900   30.0800  -17.1000 C.ar      5 PHE5        0.0000 
     69 CZ        -44.1500   30.2300  -15.8200 C.ar      5 PHE5        0.0000 
     70 CZ        -40.1700   31.8500  -17.1400 C.ar      5 PHE5        0.0000 
     71 CA        -44.5900   22.1000  -16.9200 C.3       6 GLY6        0.0000 
     72 CA        -47.2100   25.5500  -18.8600 C.3       6 GLY6        0.0000 
     73 CA        -42.7100   31.4000  -16.8500 C.3       6 GLY6        0.0000 
     74 DU        -44.3300   25.4300  -17.1400 H         7 CUB7        0.0000 
     75 DU        -43.6500   26.7500  -16.8800 H         7 CUB7        0.0000 
     76 DU        -40.7700   29.0800  -18.9400 H         7 CUB7        0.0000 
     77 DU        -41.5300   29.2300  -17.6600 H         7 CUB7        0.0000 
     78 DU        -38.9900   29.6800  -17.9500 H         7 CUB7        0.0000 
     79 DU        -40.0900   30.4000  -18.6800 H         7 CUB7        0.0000 
     80 DU        -39.7500   29.8300  -16.6700 H         7 CUB7        0.0000 
     81 DU        -40.8500   30.5400  -17.4000 H         7 CUB7        0.0000 
@<TRIPOS>BOND
@<TRIPOS>SUBSTRUCTURE
     1 SER1        1 GROUP   
     2 ALA2       12 GROUP   
     3 ASP3       35 GROUP   
     4 LYS4       60 GROUP   
     5 PHE5       62 GROUP   
     6 GLY6       71 GROUP   
     7 CUB7       74 GROUP   
@<TRIPOS>SET

