#    Name: 5ygk_15_DST
#    Modification time : Fri May 22 19:16:52 2020

@<TRIPOS>MOLECULE
5ygk_15_DST
   14    12     1     0     0
SMALL
NO_CHARGES


@<TRIPOS>ATOM
      1 O4        -18.6750  -25.3470  -11.2760 O.co2     1 DST301      0.0000 
      2 P1        -19.2780  -24.8470  -12.5760 P.3       1 DST301      0.0000 
      3 O6        -20.6980  -24.4410  -12.3480 O.co2     1 DST301      0.0000 
      4 O5        -18.4440  -23.7620  -13.2110 O.co2     1 DST301      0.0000 
      5 O2        -19.2660  -26.0770  -13.6030 O.3       1 DST301      0.0000 
      6 P3        -20.0820  -27.4280  -13.2060 P.3       1 DST301      0.0000 
      7 O8        -20.9750  -27.2240  -11.9930 O.co2     1 DST301      0.0000 
      8 O7        -20.8240  -27.7750  -14.4660 O.co2     1 DST301      0.0000 
      9 S9        -18.6190  -28.8520  -12.6650 Du        1 DST301      0.0000 
     10 C10       -18.4130  -29.9420  -14.0830 Du        1 DST301      0.0000 
     11 C11       -17.5110  -29.2390  -15.1160 Du        1 DST301      0.0000 
     12 C12       -16.4800  -30.0440  -15.4800 Du        1 DST301      0.0000 
     13 C13       -15.3810  -29.6530  -16.4870 Du        1 DST301      0.0000 
     14 C14       -16.2380  -31.4510  -14.9640 Du        1 DST301      0.0000 
@<TRIPOS>BOND
     1    1    2 ar   
     2    2    3 ar   
     3    2    4 ar   
     4    2    5 1    
     5    5    6 1    
     6    6    7 ar   
     7    6    8 ar   
     8    9   10 du   
     9   10   11 du   
    10   11   12 du   
    11   12   13 du   
    12   12   14 du   
@<TRIPOS>SUBSTRUCTURE
     1 DST301      1 GROUP   
@<TRIPOS>SET

