#    Name: 5ygk_6_DST
#    Modification time : Fri May 22 19:16:19 2020

@<TRIPOS>MOLECULE
5ygk_6_DST
   14    13     1     0     0
SMALL
NO_CHARGES


@<TRIPOS>ATOM
      1 O4          3.1690   -6.8840  -19.6430 O.co2     1 DST302      0.0000 
      2 P1          4.2970   -6.0440  -19.8520 P.3       1 DST302      0.0000 
      3 O6          5.4310   -6.8370  -20.1380 O.co2     1 DST302      0.0000 
      4 O5          4.0960   -5.1740  -20.9140 O.co2     1 DST302      0.0000 
      5 O2          4.5980   -5.1910  -18.5880 O.3       1 DST302      0.0000 
      6 P3          4.6120   -5.8160  -17.1100 P.3       1 DST302      0.0000 
      7 O8          5.8520   -5.5170  -16.4140 O.co2     1 DST302      0.0000 
      8 O7          4.3240   -7.2160  -17.1390 O.co2     1 DST302      0.0000 
      9 S9          3.0910   -4.8030  -16.1990 S.3       1 DST302      0.0000 
     10 C10         2.6520   -5.9500  -14.9140 C.3       1 DST302      0.0000 
     11 C11         2.3140   -5.3340  -13.5480 C.3       1 DST302      0.0000 
     12 C12         3.3200   -5.2910  -12.6840 C.3       1 DST302      0.0000 
     13 C13         4.7490   -5.7320  -12.8940 C.3       1 DST302      0.0000 
     14 C14         3.1860   -4.7420  -11.3160 C.3       1 DST302      0.0000 
@<TRIPOS>BOND
     1    1    2 ar   
     2    2    3 ar   
     3    2    4 ar   
     4    2    5 1    
     5    5    6 1    
     6    6    7 ar   
     7    6    8 ar   
     8    6    9 1    
     9    9   10 1    
    10   10   11 1    
    11   11   12 1    
    12   12   13 1    
    13   12   14 1    
@<TRIPOS>SUBSTRUCTURE
     1 DST302      1 GROUP   
@<TRIPOS>SET

