#    Name: 5ygk_11_DST
#    Modification time : Fri May 22 19:16:43 2020

@<TRIPOS>MOLECULE
5ygk_11_DST
   14    13     1     0     0
SMALL
NO_CHARGES


@<TRIPOS>ATOM
      1 O4        -57.6380   42.9240    1.6210 O.co2     1 DST301      0.0000 
      2 P1        -56.2770   42.6610    1.1510 P.3       1 DST301      0.0000 
      3 O6        -56.4490   41.8300   -0.0140 O.co2     1 DST301      0.0000 
      4 O5        -55.4390   42.0200    2.1840 O.co2     1 DST301      0.0000 
      5 O2        -55.6040   43.9510    0.6290 O.3       1 DST301      0.0000 
      6 P3        -55.7550   45.3170    1.4490 P.3       1 DST301      0.0000 
      7 O8        -57.0970   45.3680    2.0150 O.co2     1 DST301      0.0000 
      8 O7        -54.6910   45.3250    2.4600 O.co2     1 DST301      0.0000 
      9 S9        -55.6440   46.8510    0.0700 S.3       1 DST301      0.0000 
     10 C10       -54.2320   47.8760    0.4240 C.3       1 DST301      0.0000 
     11 C11       -52.9120   47.1050    0.3000 C.3       1 DST301      0.0000 
     12 C12       -51.9380   47.9150   -0.1530 C.3       1 DST301      0.0000 
     13 C13       -50.4770   47.5240   -0.3980 C.3       1 DST301      0.0000 
     14 C14       -52.0660   49.3670   -0.4890 C.3       1 DST301      0.0000 
@<TRIPOS>BOND
     1    1    2 ar   
     2    2    3 ar   
     3    2    4 ar   
     4    2    5 1    
     5    5    6 1    
     6    6    7 ar   
     7    6    8 ar   
     8    6    9 1    
     9    9   10 1    
    10   10   11 1    
    11   11   12 1    
    12   12   13 1    
    13   12   14 1    
@<TRIPOS>SUBSTRUCTURE
     1 DST301      1 GROUP   
@<TRIPOS>SET

