#    Name: 5ygk_6_DST_CAVITY_N1_8
#    Modification time : Fri May 22 19:16:20 2020

@<TRIPOS>MOLECULE
5ygk_6_DST_CAVITY_N1_8
   71     0     6     0     0
SMALL
NO_CHARGES


@<TRIPOS>ATOM
      1 OG          4.6900   -5.3200  -16.2000 O.3       1 SER1        0.0000 
      2 OG          5.0300   -5.8900  -14.1800 O.3       1 SER1        0.0000 
      3 OG          3.9300   -5.1800  -14.9100 O.3       1 SER1        0.0000 
      4 OG          4.2700   -5.7500  -12.9000 O.3       1 SER1        0.0000 
      5 O           4.0900  -10.5400  -14.2200 O.2       2 ALA2        0.0000 
      6 N          -0.7300   -8.1200  -13.8400 N.am      2 ALA2        0.0000 
      7 N           2.9100   -8.3700  -13.4100 N.am      2 ALA2        0.0000 
      8 N           2.1500   -8.2300  -12.1200 N.am      2 ALA2        0.0000 
      9 N           1.0500   -7.5200  -12.8600 N.am      2 ALA2        0.0000 
     10 N           3.5900   -7.0600  -13.1500 N.am      2 ALA2        0.0000 
     11 N           2.4900   -6.3500  -13.8800 N.am      2 ALA2        0.0000 
     12 N           2.8300   -6.9200  -11.8700 N.am      2 ALA2        0.0000 
     13 N           1.7300   -6.2100  -12.6000 N.am      2 ALA2        0.0000 
     14 N           0.9700   -6.0600  -11.3100 N.am      2 ALA2        0.0000 
     15 O           3.5900   -4.6100  -16.9300 O.2       2 ALA2        0.0000 
     16 N           5.3700   -6.4600  -12.1700 N.am      2 ALA2        0.0000 
     17 N           3.5100   -5.6100  -11.6100 N.am      2 ALA2        0.0000 
     18 N           2.4100   -4.8900  -12.3400 N.am      2 ALA2        0.0000 
     19 N           1.3100   -4.1800  -13.0700 N.am      2 ALA2        0.0000 
     20 OD1         3.0700  -11.2800  -16.4900 O.co2     3 ASP3        0.0000 
     21 OD1         2.3100  -11.1400  -15.2100 O.co2     3 ASP3        0.0000 
     22 OD1         1.2100  -10.4300  -15.9400 O.co2     3 ASP3        0.0000 
     23 OD1        -0.6500   -9.5700  -15.3800 O.co2     3 ASP3        0.0000 
     24 OD1         3.7500   -9.9700  -16.2400 O.co2     3 ASP3        0.0000 
     25 OD1         2.9900   -9.8300  -14.9500 O.co2     3 ASP3        0.0000 
     26 OD1         4.4300   -8.6600  -15.9800 O.co2     3 ASP3        0.0000 
     27 OD1         3.6700   -8.5200  -14.6900 O.co2     3 ASP3        0.0000 
     28 OD1         5.8700   -7.4900  -17.0100 O.co2     3 ASP3        0.0000 
     29 OD1         5.1100   -7.3500  -15.7200 O.co2     3 ASP3        0.0000 
     30 OD1         4.0100   -6.6400  -16.4500 O.co2     3 ASP3        0.0000 
     31 OD1         5.4500   -7.9200  -13.7100 O.co2     3 ASP3        0.0000 
     32 OD1         4.3500   -7.2100  -14.4400 O.co2     3 ASP3        0.0000 
     33 OD1         7.3100   -6.3200  -18.0300 O.co2     3 ASP3        0.0000 
     34 OD1         6.5500   -6.1800  -16.7500 O.co2     3 ASP3        0.0000 
     35 OD1         5.7900   -6.0400  -15.4700 O.co2     3 ASP3        0.0000 
     36 OD1         9.0900   -5.7200  -17.0500 O.co2     3 ASP3        0.0000 
     37 OD1         7.2300   -4.8700  -16.4900 O.co2     3 ASP3        0.0000 
     38 OD1         9.0100   -4.2700  -15.5100 O.co2     3 ASP3        0.0000 
     39 NZ          1.8900   -9.1200  -15.6800 N.4       4 LYS4        0.0000 
     40 NZ          1.1300   -8.9700  -14.4000 N.4       4 LYS4        0.0000 
     41 NZ          2.5700   -7.8000  -15.4200 N.4       4 LYS4        0.0000 
     42 NZ          1.8100   -7.6600  -14.1400 N.4       4 LYS4        0.0000 
     43 NZ          3.2500   -6.4900  -15.1700 N.4       4 LYS4        0.0000 
     44 NZ          2.1500   -5.7800  -15.9000 N.4       4 LYS4        0.0000 
     45 CZ          1.5500  -11.0000  -13.9200 C.ar      5 PHE5        0.0000 
     46 CZ          0.4500  -10.2800  -14.6500 C.ar      5 PHE5        0.0000 
     47 CZ         -1.4100   -9.4300  -14.1000 C.ar      5 PHE5        0.0000 
     48 CZ          2.2300   -9.6900  -13.6700 C.ar      5 PHE5        0.0000 
     49 CZ          0.3700   -8.8300  -13.1100 C.ar      5 PHE5        0.0000 
     50 CZ          1.6500   -4.7500  -11.0600 C.ar      5 PHE5        0.0000 
     51 CZ          3.8500   -3.7300  -13.3700 C.ar      5 PHE5        0.0000 
     52 CZ         12.3900   -5.4100  -18.6300 C.ar      5 PHE5        0.0000 
     53 CZ         10.8700   -5.1300  -16.0600 C.ar      5 PHE5        0.0000 
     54 CZ         13.0800   -4.1000  -18.3700 C.ar      5 PHE5        0.0000 
     55 CZ         12.3100   -3.9600  -17.0900 C.ar      5 PHE5        0.0000 
     56 CA          3.4100  -11.8500  -14.4800 C.3       6 GLY6        0.0000 
     57 CA          0.0300   -8.2600  -15.1300 C.3       6 GLY6        0.0000 
     58 CA          5.4500   -5.4700  -17.4800 C.3       6 GLY6        0.0000 
     59 CA          2.8300   -4.4700  -15.6400 C.3       6 GLY6        0.0000 
     60 CA          3.1700   -5.0400  -13.6300 C.3       6 GLY6        0.0000 
     61 CA          9.8500   -5.8700  -18.3300 C.3       6 GLY6        0.0000 
     62 CA          7.9900   -5.0100  -17.7800 C.3       6 GLY6        0.0000 
     63 CA          6.1300   -4.1600  -17.2200 C.3       6 GLY6        0.0000 
     64 CA         11.3000   -4.7000  -19.3600 C.3       6 GLY6        0.0000 
     65 CA         10.5300   -4.5600  -18.0800 C.3       6 GLY6        0.0000 
     66 CA          9.7700   -4.4100  -16.7900 C.3       6 GLY6        0.0000 
     67 CA          8.6700   -3.7000  -17.5200 C.3       6 GLY6        0.0000 
     68 CA         11.2200   -3.2400  -17.8200 C.3       6 GLY6        0.0000 
     69 CA         10.1200   -2.5300  -18.5500 C.3       6 GLY6        0.0000 
     70 CA         11.5500   -3.8100  -15.8000 C.3       6 GLY6        0.0000 
     71 CA         12.9900   -2.6500  -16.8300 C.3       6 GLY6        0.0000 
@<TRIPOS>BOND
@<TRIPOS>SUBSTRUCTURE
     1 SER1        1 GROUP   
     2 ALA2        5 GROUP   
     3 ASP3       20 GROUP   
     4 LYS4       39 GROUP   
     5 PHE5       45 GROUP   
     6 GLY6       56 GROUP   
@<TRIPOS>SET

