#    Name: 5ygk_4_DST_CAVITY_N1_6
#    Modification time : Fri May 22 19:16:14 2020

@<TRIPOS>MOLECULE
5ygk_4_DST_CAVITY_N1_6
   82     0     7     0     0
SMALL
NO_CHARGES


@<TRIPOS>ATOM
      1 OG        -44.1700   22.5200  -20.2200 O.3       1 SER1        0.0000 
      2 OG        -43.8300   21.9500  -18.2100 O.3       1 SER1        0.0000 
      3 OG        -44.9300   22.6700  -18.9400 O.3       1 SER1        0.0000 
      4 OG        -39.7700   22.1200  -21.0800 O.3       1 SER1        0.0000 
      5 OG        -40.5300   22.2700  -19.7900 O.3       1 SER1        0.0000 
      6 OG        -41.6300   22.9800  -20.5200 O.3       1 SER1        0.0000 
      7 OG        -41.2900   22.4100  -18.5100 O.3       1 SER1        0.0000 
      8 OG        -42.3900   23.1200  -19.2400 O.3       1 SER1        0.0000 
      9 OG        -43.4900   23.8400  -19.9700 O.3       1 SER1        0.0000 
     10 OG        -42.0500   22.5500  -17.2200 O.3       1 SER1        0.0000 
     11 OG        -43.1500   23.2700  -17.9500 O.3       1 SER1        0.0000 
     12 OG        -42.6300   29.9400  -18.3900 O.3       1 SER1        0.0000 
     13 N         -46.0300   23.3800  -19.6700 N.am      2 ALA2        0.0000 
     14 N         -45.6900   22.8100  -17.6500 N.am      2 ALA2        0.0000 
     15 N         -46.7900   23.5200  -18.3800 N.am      2 ALA2        0.0000 
     16 N         -47.5500   23.6700  -17.1000 N.am      2 ALA2        0.0000 
     17 O         -40.1900   21.7000  -17.7800 O.2       2 ALA2        0.0000 
     18 O         -40.9500   21.8400  -16.4900 O.2       2 ALA2        0.0000 
     19 O         -44.2500   23.9800  -18.6800 O.2       2 ALA2        0.0000 
     20 O         -45.3500   24.6900  -19.4100 O.2       2 ALA2        0.0000 
     21 N         -42.8100   22.7000  -15.9400 N.am      2 ALA2        0.0000 
     22 N         -43.9100   23.4100  -16.6700 N.am      2 ALA2        0.0000 
     23 N         -45.0100   24.1200  -17.4000 N.am      2 ALA2        0.0000 
     24 N         -46.1100   24.8400  -18.1300 N.am      2 ALA2        0.0000 
     25 N         -46.8700   24.9800  -16.8400 N.am      2 ALA2        0.0000 
     26 N         -47.9700   25.6900  -17.5700 N.am      2 ALA2        0.0000 
     27 N         -47.6300   25.1200  -15.5600 N.am      2 ALA2        0.0000 
     28 N         -42.8100   25.1500  -19.7100 N.am      2 ALA2        0.0000 
     29 O         -43.5700   25.2900  -18.4300 O.2       2 ALA2        0.0000 
     30 O         -45.4300   26.1500  -17.8700 O.2       2 ALA2        0.0000 
     31 N         -43.9900   24.8600  -15.1300 N.am      2 ALA2        0.0000 
     32 N         -45.0900   25.5800  -15.8600 N.am      2 ALA2        0.0000 
     33 N         -45.8500   25.7200  -14.5700 N.am      2 ALA2        0.0000 
     34 N         -42.1300   26.4600  -19.4500 N.am      2 ALA2        0.0000 
     35 O         -42.8900   26.6000  -18.1700 O.2       2 ALA2        0.0000 
     36 N         -41.4500   27.7700  -19.2000 N.am      2 ALA2        0.0000 
     37 N         -43.3100   28.6300  -18.6400 N.am      2 ALA2        0.0000 
     38 OD1       -38.3300   23.2900  -22.1000 O.co2     3 ASP3        0.0000 
     39 OD1       -39.0900   23.4400  -20.8200 O.co2     3 ASP3        0.0000 
     40 OD1       -39.8500   23.5800  -19.5300 O.co2     3 ASP3        0.0000 
     41 OD1       -40.6100   23.7200  -18.2500 O.co2     3 ASP3        0.0000 
     42 OD1       -41.7100   24.4300  -18.9800 O.co2     3 ASP3        0.0000 
     43 OD1       -40.2700   23.1500  -16.2300 O.co2     3 ASP3        0.0000 
     44 OD1       -41.3700   23.8700  -16.9600 O.co2     3 ASP3        0.0000 
     45 OD1       -42.4700   24.5800  -17.7000 O.co2     3 ASP3        0.0000 
     46 OD1       -38.0700   24.1800  -18.5500 O.co2     3 ASP3        0.0000 
     47 OD1       -39.1700   24.8900  -19.2800 O.co2     3 ASP3        0.0000 
     48 OD1       -38.8300   24.3200  -17.2600 O.co2     3 ASP3        0.0000 
     49 OD1       -39.9300   25.0300  -17.9900 O.co2     3 ASP3        0.0000 
     50 OD1       -41.0300   25.7500  -18.7200 O.co2     3 ASP3        0.0000 
     51 OD1       -41.7900   25.8900  -17.4400 O.co2     3 ASP3        0.0000 
     52 OD1       -40.3500   27.0600  -18.4700 O.co2     3 ASP3        0.0000 
     53 OD1       -41.1100   27.2000  -17.1800 O.co2     3 ASP3        0.0000 
     54 OD1       -42.2100   27.9100  -17.9100 O.co2     3 ASP3        0.0000 
     55 OD1       -42.9700   28.0600  -16.6300 O.co2     3 ASP3        0.0000 
     56 OD1       -42.6300   27.4900  -14.6100 O.co2     3 ASP3        0.0000 
     57 OD1       -43.7300   28.2000  -15.3400 O.co2     3 ASP3        0.0000 
     58 OD1       -40.4300   28.5100  -16.9300 O.co2     3 ASP3        0.0000 
     59 OD1       -41.1900   28.6600  -15.6400 O.co2     3 ASP3        0.0000 
     60 OD1       -42.2900   29.3700  -16.3700 O.co2     3 ASP3        0.0000 
     61 OD1       -43.0500   29.5100  -15.0900 O.co2     3 ASP3        0.0000 
     62 NZ        -43.2300   24.7200  -16.4100 N.4       4 LYS4        0.0000 
     63 NZ        -42.5500   26.0300  -16.1500 N.4       4 LYS4        0.0000 
     64 CZ        -45.6100   21.3600  -19.2000 C.ar      5 PHE5        0.0000 
     65 CZ        -46.3700   21.5000  -17.9100 C.ar      5 PHE5        0.0000 
     66 CZ        -45.2700   23.2400  -20.9500 C.ar      5 PHE5        0.0000 
     67 CZ        -46.1900   26.2900  -16.5900 C.ar      5 PHE5        0.0000 
     68 CZ        -46.9500   26.4300  -15.3000 C.ar      5 PHE5        0.0000 
     69 CZ        -44.7500   27.4600  -17.6200 C.ar      5 PHE5        0.0000 
     70 CZ        -44.4100   26.8900  -15.6000 C.ar      5 PHE5        0.0000 
     71 CZ        -45.1700   27.0300  -14.3200 C.ar      5 PHE5        0.0000 
     72 CZ        -44.0700   28.7700  -17.3600 C.ar      5 PHE5        0.0000 
     73 CA        -42.7300   21.2400  -17.4800 C.3       6 GLY6        0.0000 
     74 CA        -44.5900   22.1000  -16.9200 C.3       6 GLY6        0.0000 
     75 CA        -39.4300   21.5500  -19.0600 C.3       6 GLY6        0.0000 
     76 CA        -47.2100   25.5500  -18.8600 C.3       6 GLY6        0.0000 
     77 CA        -37.9900   22.7200  -20.0900 C.3       6 GLY6        0.0000 
     78 CA        -38.7500   22.8700  -18.8000 C.3       6 GLY6        0.0000 
     79 CA        -39.5100   23.0100  -17.5200 C.3       6 GLY6        0.0000 
     80 DU        -44.3300   25.4300  -17.1400 H         7 CUB7        0.0000 
     81 DU        -43.6500   26.7500  -16.8800 H         7 CUB7        0.0000 
     82 DU        -41.5300   29.2300  -17.6600 H         7 CUB7        0.0000 
@<TRIPOS>BOND
@<TRIPOS>SUBSTRUCTURE
     1 SER1        1 GROUP   
     2 ALA2       13 GROUP   
     3 ASP3       38 GROUP   
     4 LYS4       62 GROUP   
     5 PHE5       64 GROUP   
     6 GLY6       73 GROUP   
     7 CUB7       80 GROUP   
@<TRIPOS>SET

