#    Name: 5ygk_16_DST_CAVITY_N1_ALL
#    Modification time : Fri May 22 19:16:58 2020

@<TRIPOS>MOLECULE
5ygk_16_DST_CAVITY_N1_ALL
   81     0     7     0     0
SMALL
NO_CHARGES


@<TRIPOS>ATOM
      1 OG        -20.2600  -33.6700  -15.5500 O.3       1 SER1        0.0000 
      2 OG        -21.3600  -32.9500  -16.2800 O.3       1 SER1        0.0000 
      3 OG        -22.4600  -32.2400  -17.0200 O.3       1 SER1        0.0000 
      4 OG        -21.0200  -33.5200  -14.2700 O.3       1 SER1        0.0000 
      5 OG        -23.2200  -32.1000  -15.7300 O.3       1 SER1        0.0000 
      6 OG        -14.9200  -29.4200  -16.3700 O.3       1 SER1        0.0000 
      7 OG        -18.8000  -24.8000  -12.1800 O.3       1 SER1        0.0000 
      8 N         -18.4000  -34.5200  -16.1100 N.am      2 ALA2        0.0000 
      9 N         -19.1600  -34.3800  -14.8200 N.am      2 ALA2        0.0000 
     10 O         -23.5600  -31.5300  -17.7500 O.2       2 ALA2        0.0000 
     11 N         -17.7200  -33.2100  -15.8500 N.am      2 ALA2        0.0000 
     12 N         -18.8200  -32.5000  -16.5800 N.am      2 ALA2        0.0000 
     13 N         -19.9200  -31.7900  -17.3100 N.am      2 ALA2        0.0000 
     14 O         -21.0200  -31.0700  -18.0400 O.2       2 ALA2        0.0000 
     15 N         -18.4800  -33.0700  -14.5700 N.am      2 ALA2        0.0000 
     16 N         -15.9400  -32.6100  -14.8600 N.am      2 ALA2        0.0000 
     17 N         -17.0400  -31.9000  -15.6000 N.am      2 ALA2        0.0000 
     18 N         -18.1400  -31.1900  -16.3300 N.am      2 ALA2        0.0000 
     19 N         -17.8000  -31.7600  -14.3100 N.am      2 ALA2        0.0000 
     20 N         -18.9000  -31.0400  -15.0400 N.am      2 ALA2        0.0000 
     21 N         -19.6600  -30.9000  -13.7600 N.am      2 ALA2        0.0000 
     22 N         -15.6000  -30.7300  -16.6200 N.am      2 ALA2        0.0000 
     23 N         -17.4600  -29.8700  -16.0700 N.am      2 ALA2        0.0000 
     24 N         -18.9800  -29.5900  -13.5000 N.am      2 ALA2        0.0000 
     25 O         -19.7400  -29.4400  -12.2200 O.2       2 ALA2        0.0000 
     26 O         -21.6000  -28.5900  -11.6600 O.2       2 ALA2        0.0000 
     27 OD1       -25.0800  -31.2400  -15.1800 O.co2     3 ASP3        0.0000 
     28 OD1       -21.7800  -30.9300  -16.7600 O.co2     3 ASP3        0.0000 
     29 OD1       -22.8800  -30.2200  -17.4900 O.co2     3 ASP3        0.0000 
     30 OD1       -20.3400  -32.2100  -14.0100 O.co2     3 ASP3        0.0000 
     31 OD1       -21.4400  -31.5000  -14.7400 O.co2     3 ASP3        0.0000 
     32 OD1       -22.5400  -30.7900  -15.4700 O.co2     3 ASP3        0.0000 
     33 OD1       -23.6400  -30.0700  -16.2000 O.co2     3 ASP3        0.0000 
     34 OD1       -24.4000  -29.9300  -14.9200 O.co2     3 ASP3        0.0000 
     35 OD1       -20.7600  -30.1900  -14.4900 O.co2     3 ASP3        0.0000 
     36 OD1       -21.5200  -30.0400  -13.2000 O.co2     3 ASP3        0.0000 
     37 OD1       -22.6200  -29.3300  -13.9300 O.co2     3 ASP3        0.0000 
     38 OD1       -23.7200  -28.6200  -14.6600 O.co2     3 ASP3        0.0000 
     39 OD1       -20.0800  -28.8700  -14.2300 O.co2     3 ASP3        0.0000 
     40 OD1       -20.8400  -28.7300  -12.9500 O.co2     3 ASP3        0.0000 
     41 OD1       -21.9400  -28.0200  -13.6800 O.co2     3 ASP3        0.0000 
     42 OD1       -19.4000  -27.5600  -13.9700 O.co2     3 ASP3        0.0000 
     43 OD1       -20.1600  -27.4200  -12.6900 O.co2     3 ASP3        0.0000 
     44 OD1       -21.2600  -26.7100  -13.4200 O.co2     3 ASP3        0.0000 
     45 OD1       -22.3600  -25.9900  -14.1500 O.co2     3 ASP3        0.0000 
     46 OD1       -23.4600  -25.2800  -14.8800 O.co2     3 ASP3        0.0000 
     47 OD1       -18.7200  -26.2500  -13.7200 O.co2     3 ASP3        0.0000 
     48 OD1       -19.8200  -25.5400  -14.4500 O.co2     3 ASP3        0.0000 
     49 OD1       -20.9200  -24.8200  -15.1800 O.co2     3 ASP3        0.0000 
     50 OD1       -20.5800  -25.3900  -13.1600 O.co2     3 ASP3        0.0000 
     51 OD1       -21.6800  -24.6800  -13.8900 O.co2     3 ASP3        0.0000 
     52 OD1       -22.7800  -23.9700  -14.6200 O.co2     3 ASP3        0.0000 
     53 OD1       -19.9000  -24.0800  -12.9100 O.co2     3 ASP3        0.0000 
     54 OD1       -21.7600  -23.2300  -12.3500 O.co2     3 ASP3        0.0000 
     55 NZ        -20.6800  -31.6400  -16.0300 N.4       4 LYS4        0.0000 
     56 NZ        -19.2400  -30.4700  -17.0600 N.4       4 LYS4        0.0000 
     57 NZ        -20.0000  -30.3300  -15.7700 N.4       4 LYS4        0.0000 
     58 NZ        -18.2200  -29.7300  -14.7800 N.4       4 LYS4        0.0000 
     59 NZ        -19.3200  -29.0200  -15.5200 N.4       4 LYS4        0.0000 
     60 NZ        -18.6400  -27.7100  -15.2600 N.4       4 LYS4        0.0000 
     61 NZ        -23.5400  -23.8300  -13.3400 N.4       4 LYS4        0.0000 
     62 NZ        -24.6400  -23.1100  -14.0700 N.4       4 LYS4        0.0000 
     63 CZ        -19.5000  -33.8100  -16.8400 C.ar      5 PHE5        0.0000 
     64 CZ        -15.2600  -31.3000  -14.6100 C.ar      5 PHE5        0.0000 
     65 CZ        -16.3600  -30.5900  -15.3400 C.ar      5 PHE5        0.0000 
     66 CZ        -17.1200  -30.4400  -14.0500 C.ar      5 PHE5        0.0000 
     67 CZ        -15.6800  -29.2800  -15.0800 C.ar      5 PHE5        0.0000 
     68 CZ        -16.7800  -28.5600  -15.8100 C.ar      5 PHE5        0.0000 
     69 CZ        -17.5400  -28.4200  -14.5300 C.ar      5 PHE5        0.0000 
     70 CZ        -18.3000  -28.2800  -13.2400 C.ar      5 PHE5        0.0000 
     71 CZ        -17.6200  -26.9600  -12.9900 C.ar      5 PHE5        0.0000 
     72 CA        -20.6000  -33.1000  -17.5700 C.3       6 GLY6        0.0000 
     73 CA        -21.7000  -32.3800  -18.3000 C.3       6 GLY6        0.0000 
     74 CA        -24.3200  -31.3800  -16.4600 C.3       6 GLY6        0.0000 
     75 CA        -24.7400  -29.3600  -16.9400 C.3       6 GLY6        0.0000 
     76 CA        -25.5000  -29.2200  -15.6500 C.3       6 GLY6        0.0000 
     77 CA        -16.7000  -32.4700  -13.5800 C.3       6 GLY6        0.0000 
     78 CA        -16.0200  -28.7100  -17.1000 C.3       6 GLY6        0.0000 
     79 DU        -19.5800  -32.3500  -15.3000 H         7 CUB7        0.0000 
     80 DU        -23.1200  -25.8500  -12.8700 H         7 CUB7        0.0000 
     81 DU        -19.4800  -26.1100  -12.4300 H         7 CUB7        0.0000 
@<TRIPOS>BOND
@<TRIPOS>SUBSTRUCTURE
     1 SER1        1 GROUP   
     2 ALA2        8 GROUP   
     3 ASP3       27 GROUP   
     4 LYS4       55 GROUP   
     5 PHE5       63 GROUP   
     6 GLY6       72 GROUP   
     7 CUB7       79 GROUP   
@<TRIPOS>SET

