#    Name: 5ygk_10_DST_CAVITY_N1_4
#    Modification time : Fri May 22 19:16:38 2020

@<TRIPOS>MOLECULE
5ygk_10_DST_CAVITY_N1_4
   52     0     7     0     0
SMALL
NO_CHARGES


@<TRIPOS>ATOM
      1 OG        -15.4100   52.2500  -46.7900 O.3       1 SER1        0.0000 
      2 OG        -16.1700   52.4000  -45.5100 O.3       1 SER1        0.0000 
      3 OG        -13.9700   53.4200  -47.8200 O.3       1 SER1        0.0000 
      4 OG        -15.1600   53.1400  -43.2300 O.3       1 SER1        0.0000 
      5 OG        -16.2500   53.8500  -43.9700 O.3       1 SER1        0.0000 
      6 OG        -14.4700   54.4500  -42.9800 O.3       1 SER1        0.0000 
      7 O         -15.3300   50.8000  -48.3300 O.2       2 ALA2        0.0000 
      8 N         -17.6200   51.2300  -44.4800 N.am      2 ALA2        0.0000 
      9 N         -17.2800   50.6600  -42.4600 N.am      2 ALA2        0.0000 
     10 N         -18.0400   50.8000  -41.1800 N.am      2 ALA2        0.0000 
     11 N         -13.6400   50.4000  -42.0300 N.am      2 ALA2        0.0000 
     12 N         -14.7400   51.1100  -42.7600 N.am      2 ALA2        0.0000 
     13 N         -16.9300   52.5400  -44.2200 N.am      2 ALA2        0.0000 
     14 N         -15.5000   51.2600  -41.4800 N.am      2 ALA2        0.0000 
     15 N         -16.6000   51.9700  -42.2100 N.am      2 ALA2        0.0000 
     16 N         -17.7000   52.6800  -42.9400 N.am      2 ALA2        0.0000 
     17 N         -17.3600   52.1100  -40.9200 N.am      2 ALA2        0.0000 
     18 N         -18.4600   52.8300  -41.6500 N.am      2 ALA2        0.0000 
     19 N         -15.9200   53.2800  -41.9500 N.am      2 ALA2        0.0000 
     20 N         -17.0200   53.9900  -42.6800 N.am      2 ALA2        0.0000 
     21 N         -17.7800   54.1400  -41.4000 N.am      2 ALA2        0.0000 
     22 N         -15.2400   54.5900  -41.6900 N.am      2 ALA2        0.0000 
     23 N         -16.3300   55.3100  -42.4200 N.am      2 ALA2        0.0000 
     24 OD1       -15.0000   47.7800  -42.5400 O.co2     3 ASP3        0.0000 
     25 OD1       -13.1300   49.3700  -46.8700 O.co2     3 ASP3        0.0000 
     26 OD1       -14.2300   50.0800  -47.6000 O.co2     3 ASP3        0.0000 
     27 OD1       -16.0900   50.9400  -47.0500 O.co2     3 ASP3        0.0000 
     28 OD1       -13.5600   48.9400  -43.5700 O.co2     3 ASP3        0.0000 
     29 OD1       -14.3200   49.0900  -42.2900 O.co2     3 ASP3        0.0000 
     30 OD1       -15.4200   49.8000  -43.0200 O.co2     3 ASP3        0.0000 
     31 OD1       -11.6900   50.5400  -47.9000 O.co2     3 ASP3        0.0000 
     32 OD1       -13.5500   51.4000  -47.3500 O.co2     3 ASP3        0.0000 
     33 OD1       -14.3100   51.5400  -46.0600 O.co2     3 ASP3        0.0000 
     34 OD1       -13.9800   50.9700  -44.0500 O.co2     3 ASP3        0.0000 
     35 OD1       -15.0700   51.6800  -44.7800 O.co2     3 ASP3        0.0000 
     36 OD1       -12.1100   52.5600  -48.3700 O.co2     3 ASP3        0.0000 
     37 OD1       -12.8700   52.7100  -47.0900 O.co2     3 ASP3        0.0000 
     38 OD1       -14.3900   52.9900  -44.5200 O.co2     3 ASP3        0.0000 
     39 OD1       -11.4300   53.8800  -48.1200 O.co2     3 ASP3        0.0000 
     40 NZ        -16.8600   48.6300  -41.9900 N.4       4 LYS4        0.0000 
     41 NZ        -16.8500   51.0800  -45.7600 N.4       4 LYS4        0.0000 
     42 NZ        -16.5200   50.5100  -43.7500 N.4       4 LYS4        0.0000 
     43 CZ        -16.1800   49.9400  -41.7300 C.ar      5 PHE5        0.0000 
     44 CZ        -16.2600   51.4000  -40.1900 C.ar      5 PHE5        0.0000 
     45 CZ        -17.3500   54.5600  -44.7000 C.ar      5 PHE5        0.0000 
     46 CA        -17.9600   49.3500  -42.7200 C.3       6 GLY6        0.0000 
     47 CA        -12.7900   51.2500  -48.6300 C.3       6 GLY6        0.0000 
     48 CA        -14.6500   52.1100  -48.0800 C.3       6 GLY6        0.0000 
     49 CA        -16.5100   52.9600  -47.5200 C.3       6 GLY6        0.0000 
     50 CA        -13.2100   53.2800  -49.1000 C.3       6 GLY6        0.0000 
     51 CA        -18.1100   54.7100  -43.4100 C.3       6 GLY6        0.0000 
     52 DU        -15.8400   51.8300  -43.4900 H         7 CUB7        0.0000 
@<TRIPOS>BOND
@<TRIPOS>SUBSTRUCTURE
     1 SER1        1 GROUP   
     2 ALA2        7 GROUP   
     3 ASP3       24 GROUP   
     4 LYS4       40 GROUP   
     5 PHE5       43 GROUP   
     6 GLY6       46 GROUP   
     7 CUB7       52 GROUP   
@<TRIPOS>SET

