#    Name: 5ygk_8_DST
#    Modification time : Fri May 22 19:16:28 2020

@<TRIPOS>MOLECULE
5ygk_8_DST
   14    13     1     0     0
SMALL
NO_CHARGES


@<TRIPOS>ATOM
      1 O4        -72.7860   -6.8530  -21.6350 O.co2     1 DST302      0.0000 
      2 P1        -71.5880   -6.1840  -22.0900 P.3       1 DST302      0.0000 
      3 O6        -71.0650   -5.2970  -21.1190 O.co2     1 DST302      0.0000 
      4 O5        -70.6150   -7.2080  -22.3700 O.co2     1 DST302      0.0000 
      5 O2        -71.9620   -5.3960  -23.3690 O.3       1 DST302      0.0000 
      6 P3        -71.9660   -5.9850  -24.8360 P.3       1 DST302      0.0000 
      7 O8        -71.7700   -7.4180  -24.8420 O.co2     1 DST302      0.0000 
      8 O7        -73.1070   -5.5420  -25.6460 O.co2     1 DST302      0.0000 
      9 S9        -70.4420   -5.0440  -25.8060 S.3       1 DST302      0.0000 
     10 C10       -70.3120   -5.8230  -27.4140 C.3       1 DST302      0.0000 
     11 C11       -70.7530   -4.8930  -28.5610 C.3       1 DST302      0.0000 
     12 C12       -71.4250   -5.5500  -29.5010 C.3       1 DST302      0.0000 
     13 C13       -71.7440   -7.0310  -29.4670 C.3       1 DST302      0.0000 
     14 C14       -72.0140   -4.9930  -30.7480 C.3       1 DST302      0.0000 
@<TRIPOS>BOND
     1    1    2 ar   
     2    2    3 ar   
     3    2    4 ar   
     4    2    5 1    
     5    5    6 1    
     6    6    7 ar   
     7    6    8 ar   
     8    6    9 1    
     9    9   10 1    
    10   10   11 1    
    11   11   12 1    
    12   12   13 1    
    13   12   14 1    
@<TRIPOS>SUBSTRUCTURE
     1 DST302      1 GROUP   
@<TRIPOS>SET

