#    Name: 5ygk_7_DST_CAVITY_N1_6
#    Modification time : Fri May 22 19:16:26 2020

@<TRIPOS>MOLECULE
5ygk_7_DST_CAVITY_N1_6
   77     0     7     0     0
SMALL
NO_CHARGES


@<TRIPOS>ATOM
      1 OG        -73.8000  -14.0100  -26.6900 O.3       1 SER1        0.0000 
      2 OG        -74.9000  -13.2900  -27.4200 O.3       1 SER1        0.0000 
      3 OG        -71.2600  -13.5500  -26.9900 O.3       1 SER1        0.0000 
      4 OG        -72.3600  -12.8400  -27.7200 O.3       1 SER1        0.0000 
      5 OG        -73.1200  -12.6900  -26.4400 O.3       1 SER1        0.0000 
      6 OG        -71.8400   -6.1600  -28.1600 O.3       1 SER1        0.0000 
      7 OG        -72.9400   -5.4500  -28.8900 O.3       1 SER1        0.0000 
      8 OG        -72.6000   -6.0200  -26.8700 O.3       1 SER1        0.0000 
      9 OG        -73.3600   -5.8800  -25.5900 O.3       1 SER1        0.0000 
     10 OG        -71.9200   -4.7100  -26.6200 O.3       1 SER1        0.0000 
     11 OG        -72.6800   -4.5700  -25.3300 O.3       1 SER1        0.0000 
     12 N         -73.4600  -12.1200  -28.4500 N.am      2 ALA2        0.0000 
     13 N         -74.2200  -11.9800  -27.1700 N.am      2 ALA2        0.0000 
     14 N         -72.7800  -10.8100  -28.2000 N.am      2 ALA2        0.0000 
     15 O         -70.5800   -9.7900  -30.5100 O.2       2 ALA2        0.0000 
     16 O         -71.3400   -9.6400  -29.2200 O.2       2 ALA2        0.0000 
     17 O         -72.1000   -9.5000  -27.9400 O.2       2 ALA2        0.0000 
     18 N         -69.1400   -8.6200  -31.5400 N.am      2 ALA2        0.0000 
     19 O         -69.9000   -8.4800  -30.2500 O.2       2 ALA2        0.0000 
     20 O         -71.0000   -7.7600  -30.9800 O.2       2 ALA2        0.0000 
     21 O         -70.6600   -8.3300  -28.9700 O.2       2 ALA2        0.0000 
     22 O         -71.7600   -7.6200  -29.7000 O.2       2 ALA2        0.0000 
     23 O         -72.8600   -6.9100  -30.4300 O.2       2 ALA2        0.0000 
     24 O         -72.5200   -7.4800  -28.4100 O.2       2 ALA2        0.0000 
     25 N         -67.3600   -8.0200  -30.5500 N.am      2 ALA2        0.0000 
     26 N         -67.0200   -8.5900  -28.5300 N.am      2 ALA2        0.0000 
     27 N         -68.1200   -7.8800  -29.2600 N.am      2 ALA2        0.0000 
     28 N         -69.2200   -7.1600  -30.0000 N.am      2 ALA2        0.0000 
     29 N         -70.3200   -6.4500  -30.7300 N.am      2 ALA2        0.0000 
     30 N         -67.7800   -8.4500  -27.2500 N.am      2 ALA2        0.0000 
     31 N         -68.8800   -7.7300  -27.9800 N.am      2 ALA2        0.0000 
     32 N         -69.9800   -7.0200  -28.7100 N.am      2 ALA2        0.0000 
     33 O         -71.5800   -5.2800  -24.6000 O.2       2 ALA2        0.0000 
     34 O         -72.3400   -5.1400  -23.3200 O.2       2 ALA2        0.0000 
     35 OD1       -71.6900  -13.9800  -23.6900 O.co2     3 ASP3        0.0000 
     36 OD1       -69.4800  -12.9500  -26.0000 O.co2     3 ASP3        0.0000 
     37 OD1       -70.2400  -12.8100  -24.7200 O.co2     3 ASP3        0.0000 
     38 OD1       -71.3400  -12.1000  -25.4500 O.co2     3 ASP3        0.0000 
     39 OD1       -72.4400  -11.3800  -26.1800 O.co2     3 ASP3        0.0000 
     40 OD1       -73.5400  -10.6700  -26.9100 O.co2     3 ASP3        0.0000 
     41 OD1       -73.2000  -11.2400  -24.9000 O.co2     3 ASP3        0.0000 
     42 OD1       -69.9000  -10.9300  -26.4800 O.co2     3 ASP3        0.0000 
     43 OD1       -71.0000  -10.2100  -27.2100 O.co2     3 ASP3        0.0000 
     44 OD1       -71.7600  -10.0700  -25.9200 O.co2     3 ASP3        0.0000 
     45 OD1       -72.8600   -9.3600  -26.6500 O.co2     3 ASP3        0.0000 
     46 OD1       -73.6200   -9.2100  -25.3700 O.co2     3 ASP3        0.0000 
     47 OD1       -71.4200   -8.1900  -27.6800 O.co2     3 ASP3        0.0000 
     48 OD1       -73.6200   -6.7600  -29.1400 O.co2     3 ASP3        0.0000 
     49 OD1       -72.1800   -8.0500  -26.4000 O.co2     3 ASP3        0.0000 
     50 OD1       -73.2800   -7.3300  -27.1300 O.co2     3 ASP3        0.0000 
     51 OD1       -72.9400   -7.9000  -25.1100 O.co2     3 ASP3        0.0000 
     52 OD1       -74.0400   -7.1900  -25.8400 O.co2     3 ASP3        0.0000 
     53 OD1       -74.8000   -7.0500  -24.5600 O.co2     3 ASP3        0.0000 
     54 OD1       -71.5000   -6.7300  -26.1400 O.co2     3 ASP3        0.0000 
     55 OD1       -72.2600   -6.5900  -24.8600 O.co2     3 ASP3        0.0000 
     56 OD1       -73.0200   -6.4500  -23.5700 O.co2     3 ASP3        0.0000 
     57 OD1       -74.1200   -5.7300  -24.3000 O.co2     3 ASP3        0.0000 
     58 NZ        -68.4600   -9.7600  -27.5100 N.4       4 LYS4        0.0000 
     59 NZ        -69.5600   -9.0500  -28.2400 N.4       4 LYS4        0.0000 
     60 NZ        -70.3200   -8.9000  -26.9500 N.4       4 LYS4        0.0000 
     61 NZ        -70.7400   -6.8800  -27.4300 N.4       4 LYS4        0.0000 
     62 NZ        -70.8200   -5.4200  -25.8800 N.4       4 LYS4        0.0000 
     63 CZ        -70.9200  -14.1200  -24.9800 C.ar      5 PHE5        0.0000 
     64 CZ        -72.0200  -13.4100  -25.7100 C.ar      5 PHE5        0.0000 
     65 CZ        -70.9200  -11.6700  -28.7500 C.ar      5 PHE5        0.0000 
     66 CZ        -70.5800  -12.2400  -26.7300 C.ar      5 PHE5        0.0000 
     67 CZ        -69.1400  -11.0700  -27.7600 C.ar      5 PHE5        0.0000 
     68 CZ        -70.2400  -10.3600  -28.4900 C.ar      5 PHE5        0.0000 
     69 CZ        -66.9400  -10.0500  -30.0800 C.ar      5 PHE5        0.0000 
     70 CZ        -68.0400   -9.3300  -30.8100 C.ar      5 PHE5        0.0000 
     71 CZ        -66.6000  -10.6100  -28.0600 C.ar      5 PHE5        0.0000 
     72 CZ        -67.7000   -9.9000  -28.7900 C.ar      5 PHE5        0.0000 
     73 CZ        -68.8000   -9.1900  -29.5200 C.ar      5 PHE5        0.0000 
     74 CA        -70.0600   -5.5700  -27.1700 C.3       6 GLY6        0.0000 
     75 DU        -73.8800  -12.5500  -25.1500 H         7 CUB7        0.0000 
     76 DU        -71.6800  -11.5300  -27.4700 H         7 CUB7        0.0000 
     77 DU        -71.0800   -6.3100  -29.4400 H         7 CUB7        0.0000 
@<TRIPOS>BOND
@<TRIPOS>SUBSTRUCTURE
     1 SER1        1 GROUP   
     2 ALA2       12 GROUP   
     3 ASP3       35 GROUP   
     4 LYS4       58 GROUP   
     5 PHE5       63 GROUP   
     6 GLY6       74 GROUP   
     7 CUB7       75 GROUP   
@<TRIPOS>SET

