#    Name: 5ygk_4_DST
#    Modification time : Fri May 22 19:16:13 2020

@<TRIPOS>MOLECULE
5ygk_4_DST
   14    13     1     0     0
SMALL
NO_CHARGES


@<TRIPOS>ATOM
      1 O4        -37.4200   22.4460  -14.5820 O.co2     1 DST302      0.0000 
      2 P1        -38.1210   23.4340  -15.3270 P.3       1 DST302      0.0000 
      3 O6        -38.8800   24.3520  -14.4790 O.co2     1 DST302      0.0000 
      4 O5        -37.2110   24.1910  -16.1640 O.co2     1 DST302      0.0000 
      5 O2        -39.0070   22.6400  -16.3230 O.3       1 DST302      0.0000 
      6 P3        -40.2580   23.3180  -17.0300 P.3       1 DST302      0.0000 
      7 O8        -40.3830   24.7350  -16.6710 O.co2     1 DST302      0.0000 
      8 O7        -40.3730   22.9460  -18.4360 O.co2     1 DST302      0.0000 
      9 S9        -41.7570   22.2610  -16.2100 S.3       1 DST302      0.0000 
     10 C10       -43.2140   23.2250  -16.5580 C.3       1 DST302      0.0000 
     11 C11       -43.4510   23.1960  -18.0730 C.3       1 DST302      0.0000 
     12 C12       -44.6590   22.6710  -18.3490 C.3       1 DST302      0.0000 
     13 C13       -45.2480   22.4910  -19.7160 C.3       1 DST302      0.0000 
     14 C14       -45.6410   22.2150  -17.2720 C.3       1 DST302      0.0000 
@<TRIPOS>BOND
     1    1    2 ar   
     2    2    3 ar   
     3    2    4 ar   
     4    2    5 1    
     5    5    6 1    
     6    6    7 ar   
     7    6    8 ar   
     8    6    9 1    
     9    9   10 1    
    10   10   11 1    
    11   11   12 1    
    12   12   13 1    
    13   12   14 1    
@<TRIPOS>SUBSTRUCTURE
     1 DST302      1 GROUP   
@<TRIPOS>SET

