#    Name: 5ygk_1_DST_CAVITY_N1_4
#    Modification time : Fri May 22 19:16:01 2020

@<TRIPOS>MOLECULE
5ygk_1_DST_CAVITY_N1_4
   46     0     6     0     0
SMALL
NO_CHARGES


@<TRIPOS>ATOM
      1 OG        -26.1200   31.5000  -26.3000 O.3       1 SER1        0.0000 
      2 OG        -26.8800   31.6400  -25.0100 O.3       1 SER1        0.0000 
      3 OG        -26.2000   32.9600  -24.7600 O.3       1 SER1        0.0000 
      4 N         -21.9100   23.8600  -24.7000 N.am      2 ALA2        0.0000 
      5 N         -22.6700   24.0000  -23.4100 N.am      2 ALA2        0.0000 
      6 N         -23.7700   24.7100  -24.1400 N.am      2 ALA2        0.0000 
      7 N         -21.2200   25.1700  -24.4400 N.am      2 ALA2        0.0000 
      8 N         -22.3200   25.8800  -25.1700 N.am      2 ALA2        0.0000 
      9 N         -21.9900   25.3100  -23.1600 N.am      2 ALA2        0.0000 
     10 N         -23.0800   26.0200  -23.8900 N.am      2 ALA2        0.0000 
     11 N         -23.8500   26.1700  -22.6000 N.am      2 ALA2        0.0000 
     12 N         -24.9400   26.8800  -23.3300 N.am      2 ALA2        0.0000 
     13 N         -22.4000   27.3400  -23.6300 N.am      2 ALA2        0.0000 
     14 N         -24.2600   28.1900  -23.0800 N.am      2 ALA2        0.0000 
     15 O         -26.1200   29.0500  -22.5200 O.2       2 ALA2        0.0000 
     16 O         -26.8900   29.1900  -21.2400 O.2       2 ALA2        0.0000 
     17 N         -23.5800   29.5000  -22.8200 N.am      2 ALA2        0.0000 
     18 O         -25.4400   30.3600  -22.2700 O.2       2 ALA2        0.0000 
     19 OD1       -28.1700   25.1100  -23.2900 O.co2     3 ASP3        0.0000 
     20 OD1       -24.5300   24.8600  -22.8600 O.co2     3 ASP3        0.0000 
     21 OD1       -25.6300   25.5700  -23.5900 O.co2     3 ASP3        0.0000 
     22 OD1       -27.4900   26.4300  -23.0400 O.co2     3 ASP3        0.0000 
     23 OD1       -25.2800   27.4500  -25.3500 O.co2     3 ASP3        0.0000 
     24 OD1       -26.0400   27.5900  -24.0600 O.co2     3 ASP3        0.0000 
     25 OD1       -26.8000   27.7400  -22.7800 O.co2     3 ASP3        0.0000 
     26 OD1       -25.7000   29.4800  -25.8200 O.co2     3 ASP3        0.0000 
     27 OD1       -26.8000   30.1900  -26.5500 O.co2     3 ASP3        0.0000 
     28 OD1       -26.4600   29.6200  -24.5400 O.co2     3 ASP3        0.0000 
     29 OD1       -27.5600   30.3300  -25.2700 O.co2     3 ASP3        0.0000 
     30 OD1       -28.6600   31.0500  -26.0000 O.co2     3 ASP3        0.0000 
     31 OD1       -27.9800   32.3600  -25.7400 O.co2     3 ASP3        0.0000 
     32 NZ        -25.5400   24.1100  -25.1300 N.4       4 LYS4        0.0000 
     33 NZ        -24.8600   25.4300  -24.8800 N.4       4 LYS4        0.0000 
     34 NZ        -24.5200   27.3100  -26.6300 N.4       4 LYS4        0.0000 
     35 NZ        -24.1800   26.7400  -24.6200 N.4       4 LYS4        0.0000 
     36 CZ        -20.8100   23.1400  -23.9700 C.ar      5 PHE5        0.0000 
     37 CZ        -22.7400   27.9100  -25.6500 C.ar      5 PHE5        0.0000 
     38 CZ        -23.8400   28.6200  -26.3800 C.ar      5 PHE5        0.0000 
     39 CZ        -23.5000   28.0500  -24.3600 C.ar      5 PHE5        0.0000 
     40 CZ        -24.6000   28.7600  -25.0900 C.ar      5 PHE5        0.0000 
     41 CZ        -25.0200   30.7900  -25.5700 C.ar      5 PHE5        0.0000 
     42 CZ        -24.6800   30.2200  -23.5500 C.ar      5 PHE5        0.0000 
     43 DU        -25.3600   28.9100  -23.8100 H         6 CUB7        0.0000 
     44 DU        -27.2200   29.7600  -23.2500 H         6 CUB7        0.0000 
     45 DU        -25.7800   30.9300  -24.2800 H         6 CUB7        0.0000 
     46 DU        -26.5400   31.0700  -23.0000 H         6 CUB7        0.0000 
@<TRIPOS>BOND
@<TRIPOS>SUBSTRUCTURE
     1 SER1        1 GROUP   
     2 ALA2        4 GROUP   
     3 ASP3       19 GROUP   
     4 LYS4       32 GROUP   
     5 PHE5       36 GROUP   
     6 CUB7       43 GROUP   
@<TRIPOS>SET

