#    Name: 5ygk_9_DST_CAVITY_N1_4
#    Modification time : Fri May 22 19:16:35 2020

@<TRIPOS>MOLECULE
5ygk_9_DST_CAVITY_N1_4
   51     0     7     0     0
SMALL
NO_CHARGES


@<TRIPOS>ATOM
      1 OG        -13.4800   45.0400  -41.3400 O.3       1 SER1        0.0000 
      2 OG        -12.8000   46.3500  -41.0800 O.3       1 SER1        0.0000 
      3 OG        -18.8000   50.9400  -39.8900 O.3       1 SER1        0.0000 
      4 OG        -15.1600   53.1400  -43.2300 O.3       1 SER1        0.0000 
      5 N         -18.7200   49.4900  -41.4300 N.am      2 ALA2        0.0000 
      6 O         -13.2200   48.3700  -41.5600 O.2       2 ALA2        0.0000 
      7 N         -17.6200   51.2300  -44.4800 N.am      2 ALA2        0.0000 
      8 N         -17.2800   50.6600  -42.4600 N.am      2 ALA2        0.0000 
      9 N         -18.0400   50.8000  -41.1800 N.am      2 ALA2        0.0000 
     10 N         -13.6400   50.4000  -42.0300 N.am      2 ALA2        0.0000 
     11 N         -14.7400   51.1100  -42.7600 N.am      2 ALA2        0.0000 
     12 N         -16.9300   52.5400  -44.2200 N.am      2 ALA2        0.0000 
     13 N         -15.5000   51.2600  -41.4800 N.am      2 ALA2        0.0000 
     14 N         -16.6000   51.9700  -42.2100 N.am      2 ALA2        0.0000 
     15 N         -17.7000   52.6800  -42.9400 N.am      2 ALA2        0.0000 
     16 N         -17.3600   52.1100  -40.9200 N.am      2 ALA2        0.0000 
     17 N         -18.4600   52.8300  -41.6500 N.am      2 ALA2        0.0000 
     18 N         -15.9200   53.2800  -41.9500 N.am      2 ALA2        0.0000 
     19 N         -17.0200   53.9900  -42.6800 N.am      2 ALA2        0.0000 
     20 N         -17.7800   54.1400  -41.4000 N.am      2 ALA2        0.0000 
     21 N         -15.2400   54.5900  -41.6900 N.am      2 ALA2        0.0000 
     22 OD1       -12.7200   44.8900  -42.6200 O.co2     3 ASP3        0.0000 
     23 OD1       -14.5800   45.7500  -42.0700 O.co2     3 ASP3        0.0000 
     24 OD1       -17.5400   47.3200  -42.2500 O.co2     3 ASP3        0.0000 
     25 OD1       -18.3000   47.4600  -40.9600 O.co2     3 ASP3        0.0000 
     26 OD1       -13.9000   47.0600  -41.8100 O.co2     3 ASP3        0.0000 
     27 OD1       -15.0000   47.7800  -42.5400 O.co2     3 ASP3        0.0000 
     28 OD1       -13.1300   49.3700  -46.8700 O.co2     3 ASP3        0.0000 
     29 OD1       -14.2300   50.0800  -47.6000 O.co2     3 ASP3        0.0000 
     30 OD1       -13.5600   48.9400  -43.5700 O.co2     3 ASP3        0.0000 
     31 OD1       -14.3200   49.0900  -42.2900 O.co2     3 ASP3        0.0000 
     32 OD1       -15.4200   49.8000  -43.0200 O.co2     3 ASP3        0.0000 
     33 OD1       -14.3100   51.5400  -46.0600 O.co2     3 ASP3        0.0000 
     34 OD1       -13.9800   50.9700  -44.0500 O.co2     3 ASP3        0.0000 
     35 OD1       -15.0700   51.6800  -44.7800 O.co2     3 ASP3        0.0000 
     36 NZ        -16.8600   48.6300  -41.9900 N.4       4 LYS4        0.0000 
     37 NZ        -16.5200   50.5100  -43.7500 N.4       4 LYS4        0.0000 
     38 CZ        -14.6600   47.2100  -40.5300 C.ar      5 PHE5        0.0000 
     39 CZ        -15.7600   47.9200  -41.2600 C.ar      5 PHE5        0.0000 
     40 CZ        -17.6200   48.7800  -40.7000 C.ar      5 PHE5        0.0000 
     41 CZ        -18.3800   48.9200  -39.4200 C.ar      5 PHE5        0.0000 
     42 CZ        -15.0800   49.2300  -41.0000 C.ar      5 PHE5        0.0000 
     43 CZ        -16.1800   49.9400  -41.7300 C.ar      5 PHE5        0.0000 
     44 CZ        -16.9400   50.0900  -40.4500 C.ar      5 PHE5        0.0000 
     45 CZ        -17.7000   50.2300  -39.1600 C.ar      5 PHE5        0.0000 
     46 CZ        -16.2600   51.4000  -40.1900 C.ar      5 PHE5        0.0000 
     47 CA        -19.4000   48.1800  -41.6900 C.3       6 GLY6        0.0000 
     48 CA        -13.5600   46.4900  -39.8000 C.3       6 GLY6        0.0000 
     49 CA        -17.9600   49.3500  -42.7200 C.3       6 GLY6        0.0000 
     50 CA        -19.4800   49.6300  -40.1500 C.3       6 GLY6        0.0000 
     51 DU        -15.8400   51.8300  -43.4900 H         7 CUB7        0.0000 
@<TRIPOS>BOND
@<TRIPOS>SUBSTRUCTURE
     1 SER1        1 GROUP   
     2 ALA2        5 GROUP   
     3 ASP3       22 GROUP   
     4 LYS4       36 GROUP   
     5 PHE5       38 GROUP   
     6 GLY6       47 GROUP   
     7 CUB7       51 GROUP   
@<TRIPOS>SET

