#    Name: 5ygk_10_DST
#    Modification time : Fri May 22 19:16:37 2020

@<TRIPOS>MOLECULE
5ygk_10_DST
   14    13     1     0     0
SMALL
NO_CHARGES


@<TRIPOS>ATOM
      1 O4        -16.1810   49.0110  -50.0840 O.co2     1 DST302      0.0000 
      2 P1        -15.4890   49.1400  -48.8170 P.3       1 DST302      0.0000 
      3 O6        -14.0630   49.0070  -48.9500 O.co2     1 DST302      0.0000 
      4 O5        -15.9820   48.0610  -47.9940 O.co2     1 DST302      0.0000 
      5 O2        -15.7370   50.5710  -48.2130 O.3       1 DST302      0.0000 
      6 P3        -15.3200   50.9470  -46.7050 P.3       1 DST302      0.0000 
      7 O8        -14.3680   52.0500  -46.7520 O.co2     1 DST302      0.0000 
      8 O7        -14.9580   49.6810  -45.9850 O.co2     1 DST302      0.0000 
      9 S9        -16.9850   51.8320  -45.9130 S.3       1 DST302      0.0000 
     10 C10       -16.8240   51.9260  -44.1260 C.3       1 DST302      0.0000 
     11 C11       -15.5580   52.7020  -43.7340 C.3       1 DST302      0.0000 
     12 C12       -15.8890   53.7990  -43.0530 C.3       1 DST302      0.0000 
     13 C13       -14.9440   54.8120  -42.4890 C.3       1 DST302      0.0000 
     14 C14       -17.3370   54.1610  -42.7220 C.3       1 DST302      0.0000 
@<TRIPOS>BOND
     1    1    2 ar   
     2    2    3 ar   
     3    2    4 ar   
     4    2    5 1    
     5    5    6 1    
     6    6    7 ar   
     7    6    8 ar   
     8    6    9 1    
     9    9   10 1    
    10   10   11 1    
    11   11   12 1    
    12   12   13 1    
    13   12   14 1    
@<TRIPOS>SUBSTRUCTURE
     1 DST302      1 GROUP   
@<TRIPOS>SET

