#    Name: 5ygk_9_DST
#    Modification time : Fri May 22 19:16:34 2020

@<TRIPOS>MOLECULE
5ygk_9_DST
   14    13     1     0     0
SMALL
NO_CHARGES


@<TRIPOS>ATOM
      1 O4        -13.9080   44.1460  -41.9200 O.co2     1 DST301      0.0000 
      2 P1        -13.0990   45.2960  -42.1340 P.3       1 DST301      0.0000 
      3 O6        -12.0800   45.1520  -43.1260 O.co2     1 DST301      0.0000 
      4 O5        -12.4000   45.6060  -40.9200 O.co2     1 DST301      0.0000 
      5 O2        -14.0050   46.5210  -42.4750 O.3       1 DST301      0.0000 
      6 P3        -13.4030   47.9570  -42.8610 P.3       1 DST301      0.0000 
      7 O8        -14.0710   48.3990  -44.0860 O.co2     1 DST301      0.0000 
      8 O7        -11.9490   47.9520  -42.9700 O.co2     1 DST301      0.0000 
      9 S9        -13.7410   49.2520  -41.3280 S.3       1 DST301      0.0000 
     10 C10       -15.1720   50.2060  -41.7540 C.3       1 DST301      0.0000 
     11 C11       -16.3670   49.3160  -41.4650 C.3       1 DST301      0.0000 
     12 C12       -17.3110   49.9770  -40.8170 C.3       1 DST301      0.0000 
     13 C13       -18.6250   49.3600  -40.3760 C.3       1 DST301      0.0000 
     14 C14       -17.2240   51.4140  -40.4100 C.3       1 DST301      0.0000 
@<TRIPOS>BOND
     1    1    2 ar   
     2    2    3 ar   
     3    2    4 ar   
     4    2    5 1    
     5    5    6 1    
     6    6    7 ar   
     7    6    8 ar   
     8    6    9 1    
     9    9   10 1    
    10   10   11 1    
    11   11   12 1    
    12   12   13 1    
    13   12   14 1    
@<TRIPOS>SUBSTRUCTURE
     1 DST301      1 GROUP   
@<TRIPOS>SET

