#    Name: 5ygk_11_DST_CAVITY_N1_4
#    Modification time : Fri May 22 19:16:44 2020

@<TRIPOS>MOLECULE
5ygk_11_DST_CAVITY_N1_4
   65     0     7     0     0
SMALL
NO_CHARGES


@<TRIPOS>ATOM
      1 OG        -57.5800   41.0500   -0.4600 O.3       1 SER1        0.0000 
      2 OG        -58.3300   43.6400   -2.9500 O.3       1 SER1        0.0000 
      3 OG        -56.8900   42.3600   -0.2000 O.3       1 SER1        0.0000 
      4 OG        -57.6500   44.9500   -2.6900 O.3       1 SER1        0.0000 
      5 OG        -56.2100   43.6700    0.0600 O.3       1 SER1        0.0000 
      6 OG        -58.4100   45.1000   -1.4100 O.3       1 SER1        0.0000 
      7 OG        -56.6300   45.7000   -0.4200 O.3       1 SER1        0.0000 
      8 OG        -57.7300   46.4100   -1.1500 O.3       1 SER1        0.0000 
      9 O         -57.3900   45.8400    0.8700 O.2       2 ALA2        0.0000 
     10 O         -58.4900   46.5500    0.1400 O.2       2 ALA2        0.0000 
     11 N         -55.9500   47.0100   -0.1600 N.am      2 ALA2        0.0000 
     12 O         -56.7100   47.1500    1.1200 O.2       2 ALA2        0.0000 
     13 N         -54.1700   47.6100    0.8300 N.am      2 ALA2        0.0000 
     14 N         -50.8700   47.9200   -0.7600 N.am      2 ALA2        0.0000 
     15 N         -51.6300   48.0600    0.5300 N.am      2 ALA2        0.0000 
     16 N         -53.8300   49.4900   -0.9300 N.am      2 ALA2        0.0000 
     17 N         -53.4900   48.9200    1.0800 N.am      2 ALA2        0.0000 
     18 N         -54.2500   49.0600    2.3700 N.am      2 ALA2        0.0000 
     19 N         -55.3500   49.7700    1.6400 N.am      2 ALA2        0.0000 
     20 N         -52.0500   50.0900    0.0500 N.am      2 ALA2        0.0000 
     21 N         -53.1500   50.8000   -0.6800 N.am      2 ALA2        0.0000 
     22 N         -52.8100   50.2300    1.3400 N.am      2 ALA2        0.0000 
     23 N         -53.9100   50.9400    0.6100 N.am      2 ALA2        0.0000 
     24 N         -52.4700   49.6600    3.3500 N.am      2 ALA2        0.0000 
     25 N         -54.6700   51.0900    1.8900 N.am      2 ALA2        0.0000 
     26 N         -51.3700   51.4000    0.3100 N.am      2 ALA2        0.0000 
     27 N         -52.1300   51.5400    1.6000 N.am      2 ALA2        0.0000 
     28 N         -53.2300   52.2500    0.8600 N.am      2 ALA2        0.0000 
     29 OD1       -57.2400   40.4800    1.5600 O.co2     3 ASP3        0.0000 
     30 OD1       -55.8000   41.6500    0.5300 O.co2     3 ASP3        0.0000 
     31 OD1       -56.5600   41.7900    1.8100 O.co2     3 ASP3        0.0000 
     32 OD1       -55.1200   42.9600    0.7900 O.co2     3 ASP3        0.0000 
     33 OD1       -55.8800   43.1000    2.0700 O.co2     3 ASP3        0.0000 
     34 OD1       -54.4300   44.2700    1.0400 O.co2     3 ASP3        0.0000 
     35 OD1       -56.2900   45.1300    1.6000 O.co2     3 ASP3        0.0000 
     36 OD1       -55.6100   46.4400    1.8500 O.co2     3 ASP3        0.0000 
     37 OD1       -54.9300   47.7500    2.1100 O.co2     3 ASP3        0.0000 
     38 OD1       -55.6900   47.8900    3.3900 O.co2     3 ASP3        0.0000 
     39 OD1       -53.9200   48.4900    4.3800 O.co2     3 ASP3        0.0000 
     40 OD1       -55.0100   49.2000    3.6500 O.co2     3 ASP3        0.0000 
     41 NZ        -53.7500   45.5800    1.3000 N.4       4 LYS4        0.0000 
     42 NZ        -53.0700   46.8900    1.5600 N.4       4 LYS4        0.0000 
     43 NZ        -52.3900   48.2000    1.8100 N.4       4 LYS4        0.0000 
     44 NZ        -53.1500   48.3500    3.1000 N.4       4 LYS4        0.0000 
     45 CZ        -58.6700   41.7600   -1.1900 C.ar      5 PHE5        0.0000 
     46 CZ        -59.7700   42.4700   -1.9200 C.ar      5 PHE5        0.0000 
     47 CZ        -54.7700   44.8400   -0.9700 C.ar      5 PHE5        0.0000 
     48 CZ        -55.8700   45.5500   -1.7000 C.ar      5 PHE5        0.0000 
     49 CZ        -52.9900   45.4400    0.0100 C.ar      5 PHE5        0.0000 
     50 CZ        -54.8500   46.2900    0.5700 C.ar      5 PHE5        0.0000 
     51 CZ        -51.5500   46.6100   -1.0100 C.ar      5 PHE5        0.0000 
     52 CZ        -52.3100   46.7500    0.2700 C.ar      5 PHE5        0.0000 
     53 CZ        -53.4100   47.4600   -0.4600 C.ar      5 PHE5        0.0000 
     54 CZ        -51.9700   48.6300   -1.4900 C.ar      5 PHE5        0.0000 
     55 CZ        -52.7300   48.7700   -0.2000 C.ar      5 PHE5        0.0000 
     56 CA        -57.2300   42.9300   -2.2200 C.3       6 GLY6        0.0000 
     57 CA        -56.5500   44.2400   -1.9600 C.3       6 GLY6        0.0000 
     58 CA        -51.2100   46.0400    1.0000 C.3       6 GLY6        0.0000 
     59 DU        -57.9900   43.0700   -0.9300 H         7 CUB7        0.0000 
     60 DU        -59.0900   43.7800   -1.6600 H         7 CUB7        0.0000 
     61 DU        -57.6600   42.5000    1.0800 H         7 CUB7        0.0000 
     62 DU        -57.3100   44.3800   -0.6800 H         7 CUB7        0.0000 
     63 DU        -56.9800   43.8100    1.3400 H         7 CUB7        0.0000 
     64 DU        -55.5300   44.9800    0.3100 H         7 CUB7        0.0000 
     65 DU        -53.5700   50.3700    2.6200 H         7 CUB7        0.0000 
@<TRIPOS>BOND
@<TRIPOS>SUBSTRUCTURE
     1 SER1        1 GROUP   
     2 ALA2        9 GROUP   
     3 ASP3       29 GROUP   
     4 LYS4       41 GROUP   
     5 PHE5       45 GROUP   
     6 GLY6       56 GROUP   
     7 CUB7       59 GROUP   
@<TRIPOS>SET

