#    Name: 6jfc_1_BB2
#    Modification time : Fri May 22 19:35:38 2020

@<TRIPOS>MOLECULE
6jfc_1_BB2
   27    27     1     0     0
SMALL
NO_CHARGES


@<TRIPOS>ATOM
      1 C5         -5.6450   -0.6450  -21.1220 C.3       1 BB2201      0.0000 
      2 C3         -6.3220   -0.2140  -19.8410 C.2       1 BB2201      0.0000 
      3 O4         -7.4150    0.3310  -19.8210 O.2       1 BB2201      0.0000 
      4 N1         -5.6620   -0.5770  -18.7430 N.am      1 BB2201      0.0000 
      5 O2         -6.2610   -0.5510  -17.5290 O.3       1 BB2201      0.0000 
      6 C6         -4.4740    0.2440  -21.4860 C.3       1 BB2201      0.0000 
      7 C12        -4.3180    0.0850  -22.9740 C.2       1 BB2201      0.0000 
      8 O13        -4.3700   -1.0190  -23.4850 O.2       1 BB2201      0.0000 
      9 C7         -3.1630   -0.1580  -20.7780 C.3       1 BB2201      0.0000 
     10 C8         -2.0110    0.5680  -21.4440 C.3       1 BB2201      0.0000 
     11 C9         -0.8310    0.7970  -20.5360 C.3       1 BB2201      0.0000 
     12 C10         0.0130    1.8860  -21.1640 C.3       1 BB2201      0.0000 
     13 C11         1.0800    1.2250  -21.9870 C.3       1 BB2201      0.0000 
     14 N14        -4.0790    1.1860  -23.6530 N.am      1 BB2201      0.0000 
     15 C15        -3.7190    1.1750  -25.0520 C.3       1 BB2201      0.0000 
     16 C16        -4.8900    1.7450  -25.9000 C.3       1 BB2201      0.0000 
     17 C18        -6.2240    1.8930  -25.1470 C.3       1 BB2201      0.0000 
     18 C17        -4.5690    3.0780  -26.5460 C.3       1 BB2201      0.0000 
     19 C19        -2.3430    1.8310  -25.1410 C.2       1 BB2201      0.0000 
     20 O20        -2.0460    2.7060  -24.3240 O.2       1 BB2201      0.0000 
     21 N21        -1.4610    1.4110  -26.0730 N.am      1 BB2201      0.0000 
     22 C22        -0.0140    1.6860  -25.9380 C.3       1 BB2201      0.0000 
     23 C23        -1.7030    0.6310  -27.3040 C.3       1 BB2201      0.0000 
     24 C24        -0.4690   -0.2570  -27.3920 C.3       1 BB2201      0.0000 
     25 C25         0.5970    0.4210  -26.5360 C.3       1 BB2201      0.0000 
     26 C26         0.3950    2.9300  -26.7530 C.3       1 BB2201      0.0000 
     27 O27        -0.1690    4.1460  -26.2320 O.3       1 BB2201      0.0000 
@<TRIPOS>BOND
     1    1    2 1    
     2    1    6 1    
     3    2    3 2    
     4    2    4 am   
     5    4    5 1    
     6    6    7 1    
     7    6    9 1    
     8    7    8 2    
     9    7   14 am   
    10    9   10 1    
    11   10   11 1    
    12   11   12 1    
    13   12   13 1    
    14   14   15 1    
    15   15   16 1    
    16   15   19 1    
    17   16   17 1    
    18   16   18 1    
    19   19   20 2    
    20   19   21 am   
    21   21   22 1    
    22   21   23 1    
    23   22   25 1    
    24   22   26 1    
    25   23   24 1    
    26   24   25 1    
    27   26   27 1    
@<TRIPOS>SUBSTRUCTURE
     1 BB2201      1 GROUP   
@<TRIPOS>SET

