#    Name: 6jfc_2_BB2
#    Modification time : Fri May 22 19:35:40 2020

@<TRIPOS>MOLECULE
6jfc_2_BB2
   27    27     1     0     0
SMALL
NO_CHARGES


@<TRIPOS>ATOM
      1 C5          7.5750  -32.8000  -22.9110 C.3       1 BB2201      0.0000 
      2 C3          8.9890  -32.8390  -23.4880 C.2       1 BB2201      0.0000 
      3 O4          9.2430  -33.7020  -24.3160 O.2       1 BB2201      0.0000 
      4 N1          9.8520  -31.8860  -23.0680 N.am      1 BB2201      0.0000 
      5 O2         11.1990  -31.7160  -23.3910 O.3       1 BB2201      0.0000 
      6 C6          7.4140  -32.9770  -21.3740 C.3       1 BB2201      0.0000 
      7 C12         5.9480  -33.2820  -21.1280 C.2       1 BB2201      0.0000 
      8 O13         5.0990  -32.6220  -21.7210 O.2       1 BB2201      0.0000 
      9 C7          7.7740  -31.7710  -20.4790 C.3       1 BB2201      0.0000 
     10 C8          8.3180  -32.1450  -19.1030 C.3       1 BB2201      0.0000 
     11 C9          7.3350  -31.8620  -17.9960 C.3       1 BB2201      0.0000 
     12 C10         7.9100  -32.1850  -16.6150 C.3       1 BB2201      0.0000 
     13 C11         6.8590  -32.9320  -15.8370 C.3       1 BB2201      0.0000 
     14 N14         5.6370  -34.2800  -20.2840 N.am      1 BB2201      0.0000 
     15 C15         4.2580  -34.7030  -20.0160 C.3       1 BB2201      0.0000 
     16 C16         3.8690  -35.8620  -20.9750 C.3       1 BB2201      0.0000 
     17 C18         3.5360  -35.4060  -22.3980 C.3       1 BB2201      0.0000 
     18 C17         4.9530  -36.9310  -21.1460 C.3       1 BB2201      0.0000 
     19 C19         4.1060  -34.9760  -18.5260 C.2       1 BB2201      0.0000 
     20 O20         5.0640  -35.4860  -17.9520 O.2       1 BB2201      0.0000 
     21 N21         2.9460  -34.6140  -17.9110 N.am      1 BB2201      0.0000 
     22 C22         2.8860  -34.0850  -16.5360 C.3       1 BB2201      0.0000 
     23 C23         1.5790  -34.6840  -18.4660 C.3       1 BB2201      0.0000 
     24 C24         0.7180  -33.7190  -17.6500 C.3       1 BB2201      0.0000 
     25 C25         1.5190  -33.3870  -16.4130 C.3       1 BB2201      0.0000 
     26 C26         2.9840  -35.2550  -15.5470 C.3       1 BB2201      0.0000 
     27 O27         2.6630  -34.8180  -14.2050 O.3       1 BB2201      0.0000 
@<TRIPOS>BOND
     1    1    2 1    
     2    1    6 1    
     3    2    3 2    
     4    2    4 am   
     5    4    5 1    
     6    6    7 1    
     7    6    9 1    
     8    7    8 2    
     9    7   14 am   
    10    9   10 1    
    11   10   11 1    
    12   11   12 1    
    13   12   13 1    
    14   14   15 1    
    15   15   16 1    
    16   15   19 1    
    17   16   17 1    
    18   16   18 1    
    19   19   20 2    
    20   19   21 am   
    21   21   22 1    
    22   21   23 1    
    23   22   25 1    
    24   22   26 1    
    25   23   24 1    
    26   24   25 1    
    27   26   27 1    
@<TRIPOS>SUBSTRUCTURE
     1 BB2201      1 GROUP   
@<TRIPOS>SET

