#    Name: 6jfc_2_BB2_CAVITY_N1_4
#    Modification time : Fri May 22 19:35:40 2020

@<TRIPOS>MOLECULE
6jfc_2_BB2_CAVITY_N1_4
   93     0     7     0     0
SMALL
NO_CHARGES


@<TRIPOS>ATOM
      1 OG          8.9200  -32.7700  -18.9600 O.3       1 SER1        0.0000 
      2 OG          8.3600  -32.9600  -17.5800 O.3       1 SER1        0.0000 
      3 N           5.7500  -38.2000  -24.2500 N.am      2 ALA2        0.0000 
      4 N           3.2900  -35.6600  -23.2600 N.am      2 ALA2        0.0000 
      5 O           6.3600  -36.9000  -23.8300 O.2       2 ALA2        0.0000 
      6 O           5.8000  -37.0900  -22.4500 O.2       2 ALA2        0.0000 
      7 N           2.0900  -33.8300  -21.8700 N.am      2 ALA2        0.0000 
      8 N           3.3400  -34.5400  -21.4600 N.am      2 ALA2        0.0000 
      9 O           6.4100  -35.7800  -22.0200 O.2       2 ALA2        0.0000 
     10 O           5.2900  -36.1600  -19.2600 O.2       2 ALA2        0.0000 
     11 O           4.7300  -36.3500  -17.8800 O.2       2 ALA2        0.0000 
     12 O           4.1800  -36.5400  -16.5000 O.2       2 ALA2        0.0000 
     13 O           2.6900  -32.5200  -21.4400 O.2       2 ALA2        0.0000 
     14 O           3.9500  -33.2400  -21.0300 O.2       2 ALA2        0.0000 
     15 O           5.7600  -33.7600  -22.0100 O.2       2 ALA2        0.0000 
     16 N           2.9700  -34.7100  -15.1100 N.am      2 ALA2        0.0000 
     17 O           7.5700  -34.2900  -22.9800 O.2       2 ALA2        0.0000 
     18 N           7.0100  -34.4800  -21.6000 N.am      2 ALA2        0.0000 
     19 N           6.4500  -34.6700  -20.2200 N.am      2 ALA2        0.0000 
     20 N           5.9000  -34.8600  -18.8400 N.am      2 ALA2        0.0000 
     21 O           5.3400  -35.0500  -17.4600 O.2       2 ALA2        0.0000 
     22 N           4.7800  -35.2400  -16.0800 N.am      2 ALA2        0.0000 
     23 N           6.9200  -32.2700  -22.9600 N.am      2 ALA2        0.0000 
     24 O           6.3600  -32.4600  -21.5800 O.2       2 ALA2        0.0000 
     25 N           8.1700  -32.9800  -22.5500 N.am      2 ALA2        0.0000 
     26 N           7.6200  -33.1700  -21.1700 N.am      2 ALA2        0.0000 
     27 N           7.0600  -33.3600  -19.7900 N.am      2 ALA2        0.0000 
     28 N           6.5000  -33.5500  -18.4100 N.am      2 ALA2        0.0000 
     29 N           5.3900  -33.9300  -15.6500 N.am      2 ALA2        0.0000 
     30 N           4.2800  -34.3100  -12.9000 N.am      2 ALA2        0.0000 
     31 N           7.7600  -34.2700  -18.0100 N.am      2 ALA2        0.0000 
     32 O           6.9700  -31.1500  -21.1600 O.2       2 ALA2        0.0000 
     33 N           4.8800  -33.0100  -12.4700 N.am      2 ALA2        0.0000 
     34 N           7.2500  -33.3400  -14.8200 N.am      2 ALA2        0.0000 
     35 OD1         3.3300  -38.9800  -23.7000 O.co2     3 ASP3        0.0000 
     36 OD1         4.5900  -39.7000  -23.2900 O.co2     3 ASP3        0.0000 
     37 OD1         3.9400  -37.6800  -23.2800 O.co2     3 ASP3        0.0000 
     38 OD1         3.3800  -37.8700  -21.9000 O.co2     3 ASP3        0.0000 
     39 OD1         5.1900  -38.3900  -22.8700 O.co2     3 ASP3        0.0000 
     40 OD1         4.6400  -38.5800  -21.4900 O.co2     3 ASP3        0.0000 
     41 OD1         3.9900  -36.5600  -21.4700 O.co2     3 ASP3        0.0000 
     42 OD1         3.4300  -36.7500  -20.0900 O.co2     3 ASP3        0.0000 
     43 OD1         2.8700  -36.9400  -18.7100 O.co2     3 ASP3        0.0000 
     44 OD1         4.6900  -37.4700  -19.6900 O.co2     3 ASP3        0.0000 
     45 NZ          8.2200  -31.8700  -20.7500 N.4       4 LYS4        0.0000 
     46 NZ          8.2700  -30.7500  -18.9500 N.4       4 LYS4        0.0000 
     47 CZ          2.8800  -32.5000  -16.4700 C.ar      5 PHE5        0.0000 
     48 CZ          2.3200  -32.6900  -15.0900 C.ar      5 PHE5        0.0000 
     49 CZ          4.1300  -33.2200  -16.0600 C.ar      5 PHE5        0.0000 
     50 CZ          3.5800  -33.4100  -14.6800 C.ar      5 PHE5        0.0000 
     51 CZ          5.3000  -31.7200  -17.0200 C.ar      5 PHE5        0.0000 
     52 CZ          6.5500  -32.4400  -16.6100 C.ar      5 PHE5        0.0000 
     53 CZ          5.9900  -32.6300  -15.2300 C.ar      5 PHE5        0.0000 
     54 CZ          5.4400  -32.8200  -13.8500 C.ar      5 PHE5        0.0000 
     55 CZ          6.6000  -31.3200  -14.8100 C.ar      5 PHE5        0.0000 
     56 CA          4.5000  -37.4900  -24.6600 C.3       6 GLY6        0.0000 
     57 CA          4.5500  -36.3700  -22.8500 C.3       6 GLY6        0.0000 
     58 CA          5.2400  -37.2800  -21.0700 C.3       6 GLY6        0.0000 
     59 CA          3.9000  -34.3500  -22.8400 C.3       6 GLY6        0.0000 
     60 CA          5.7100  -34.8800  -23.8100 C.3       6 GLY6        0.0000 
     61 CA          5.8500  -35.9700  -20.6400 C.3       6 GLY6        0.0000 
     62 CA          4.5000  -33.0500  -22.4100 C.3       6 GLY6        0.0000 
     63 CA          3.3900  -33.4300  -19.6500 C.3       6 GLY6        0.0000 
     64 CA          6.3100  -33.5700  -23.3900 C.3       6 GLY6        0.0000 
     65 CA          3.4400  -32.3100  -17.8500 C.3       6 GLY6        0.0000 
     66 CA          5.8100  -32.6500  -20.2000 C.3       6 GLY6        0.0000 
     67 CA          5.2500  -32.8400  -18.8200 C.3       6 GLY6        0.0000 
     68 CA          4.6900  -33.0300  -17.4400 C.3       6 GLY6        0.0000 
     69 CA          7.2000  -34.4600  -16.6300 C.3       6 GLY6        0.0000 
     70 CA          5.8500  -31.5300  -18.4000 C.3       6 GLY6        0.0000 
     71 CA          7.6700  -32.0600  -19.3700 C.3       6 GLY6        0.0000 
     72 CA          7.1100  -32.2500  -17.9900 C.3       6 GLY6        0.0000 
     73 CA          7.8100  -33.1500  -16.2000 C.3       6 GLY6        0.0000 
     74 CA          6.4600  -30.2300  -17.9700 C.3       6 GLY6        0.0000 
     75 CA          5.9000  -30.4200  -16.5900 C.3       6 GLY6        0.0000 
     76 CA          7.7100  -30.9400  -17.5700 C.3       6 GLY6        0.0000 
     77 CA          7.1600  -31.1300  -16.1900 C.3       6 GLY6        0.0000 
     78 CA          8.9700  -31.6600  -17.1600 C.3       6 GLY6        0.0000 
     79 CA          8.4100  -31.8500  -15.7800 C.3       6 GLY6        0.0000 
     80 DU          2.7300  -35.8500  -21.8800 H         7 CUB7        0.0000 
     81 DU          2.7800  -34.7300  -20.0800 H         7 CUB7        0.0000 
     82 DU          5.1500  -35.0700  -22.4300 H         7 CUB7        0.0000 
     83 DU          4.5900  -35.2600  -21.0500 H         7 CUB7        0.0000 
     84 DU          4.0400  -35.4500  -19.6700 H         7 CUB7        0.0000 
     85 DU          3.4800  -35.6400  -18.2900 H         7 CUB7        0.0000 
     86 DU          2.9200  -35.8300  -16.9100 H         7 CUB7        0.0000 
     87 DU          2.8300  -33.6200  -18.2700 H         7 CUB7        0.0000 
     88 DU          2.2800  -33.8100  -16.8900 H         7 CUB7        0.0000 
     89 DU          5.2000  -33.9500  -20.6300 H         7 CUB7        0.0000 
     90 DU          4.6400  -34.1400  -19.2500 H         7 CUB7        0.0000 
     91 DU          4.0900  -34.3300  -17.8700 H         7 CUB7        0.0000 
     92 DU          3.5300  -34.5200  -16.4900 H         7 CUB7        0.0000 
     93 DU          5.9500  -33.7400  -17.0300 H         7 CUB7        0.0000 
@<TRIPOS>BOND
@<TRIPOS>SUBSTRUCTURE
     1 SER1        1 GROUP   
     2 ALA2        3 GROUP   
     3 ASP3       35 GROUP   
     4 LYS4       45 GROUP   
     5 PHE5       47 GROUP   
     6 GLY6       56 GROUP   
     7 CUB7       80 GROUP   
@<TRIPOS>SET

