#    Name: 6jfc_1_BB2_CAVITY_N1_12
#    Modification time : Fri May 22 19:35:39 2020

@<TRIPOS>MOLECULE
6jfc_1_BB2_CAVITY_N1_12
   77     0     6     0     0
SMALL
NO_CHARGES


@<TRIPOS>ATOM
      1 OG         -1.5400    1.7500  -20.0700 O.3       1 SER1        0.0000 
      2 OG          0.3200    2.3400  -19.2300 O.3       1 SER1        0.0000 
      3 N          -4.2000   -0.1600  -26.2900 N.am      2 ALA2        0.0000 
      4 O          -4.7600   -0.3500  -24.9100 O.2       2 ALA2        0.0000 
      5 O          -4.0600   -1.2600  -23.1300 O.2       2 ALA2        0.0000 
      6 O          -4.6200   -1.4500  -21.7500 O.2       2 ALA2        0.0000 
      7 N          -7.9100    3.1000  -25.7100 N.am      2 ALA2        0.0000 
      8 O          -7.2200    2.1900  -23.9300 O.2       2 ALA2        0.0000 
      9 O          -5.9600    1.4800  -23.5200 O.2       2 ALA2        0.0000 
     10 N          -4.1500    0.9500  -24.4900 N.am      2 ALA2        0.0000 
     11 N          -4.7100    0.7600  -23.1100 N.am      2 ALA2        0.0000 
     12 N          -5.2600    0.5700  -21.7300 N.am      2 ALA2        0.0000 
     13 N          -4.0100   -0.1400  -21.3200 N.am      2 ALA2        0.0000 
     14 O          -6.0500    3.6900  -24.8800 O.2       2 ALA2        0.0000 
     15 O          -2.9900    2.4500  -25.4400 O.2       2 ALA2        0.0000 
     16 N          -3.5400    2.2600  -24.0600 N.am      2 ALA2        0.0000 
     17 N          -2.2900    1.5400  -23.6600 N.am      2 ALA2        0.0000 
     18 N          -2.8500    1.3500  -22.2800 N.am      2 ALA2        0.0000 
     19 N          -3.4000    1.1600  -20.9000 N.am      2 ALA2        0.0000 
     20 O          -2.3800    3.7500  -25.0200 O.2       2 ALA2        0.0000 
     21 O          -1.1300    3.0400  -24.6100 O.2       2 ALA2        0.0000 
     22 O          -1.6800    2.8500  -23.2300 O.2       2 ALA2        0.0000 
     23 N           0.6800    2.5100  -25.5800 N.am      2 ALA2        0.0000 
     24 N           0.1300    2.3200  -24.2000 N.am      2 ALA2        0.0000 
     25 N          -0.9900    1.9400  -21.4500 N.am      2 ALA2        0.0000 
     26 N           1.4300    2.7200  -21.9900 N.am      2 ALA2        0.0000 
     27 OD1        -7.3600    3.2900  -27.0900 O.co2     3 ASP3        0.0000 
     28 OD1        -6.1000    2.5700  -26.6800 O.co2     3 ASP3        0.0000 
     29 OD1        -7.3100    4.4000  -25.2900 O.co2     3 ASP3        0.0000 
     30 OD1        -5.5000    3.8800  -26.2600 O.co2     3 ASP3        0.0000 
     31 OD1        -3.6900    3.3500  -27.2300 O.co2     3 ASP3        0.0000 
     32 OD1        -4.2400    3.1600  -25.8500 O.co2     3 ASP3        0.0000 
     33 CZ          0.7300   -0.8100  -26.0200 C.ar      4 PHE5        0.0000 
     34 CZ          0.1700   -1.0000  -24.6500 C.ar      4 PHE5        0.0000 
     35 CZ         -2.1500    0.4500  -20.4900 C.ar      4 PHE5        0.0000 
     36 CZ          1.3300    0.4900  -25.6000 C.ar      4 PHE5        0.0000 
     37 CZ          0.7700    0.3000  -24.2200 C.ar      4 PHE5        0.0000 
     38 CZ         -0.9000   -0.2700  -20.0800 C.ar      4 PHE5        0.0000 
     39 CZ          1.9400    1.8000  -25.1800 C.ar      4 PHE5        0.0000 
     40 CZ          1.3800    1.6100  -23.8000 C.ar      4 PHE5        0.0000 
     41 CZ          0.8200    1.4200  -22.4200 C.ar      4 PHE5        0.0000 
     42 CZ         -0.2900    1.0400  -19.6600 C.ar      4 PHE5        0.0000 
     43 CZ          2.0800    0.7000  -22.0100 C.ar      4 PHE5        0.0000 
     44 CA         -7.8700   -0.2300  -26.1500 C.3       5 GLY6        0.0000 
     45 CA         -6.6200   -0.9400  -25.7500 C.3       5 GLY6        0.0000 
     46 CA         -8.5200    1.7900  -26.1400 C.3       5 GLY6        0.0000 
     47 CA         -7.2600    1.0800  -25.7300 C.3       5 GLY6        0.0000 
     48 CA         -6.0100    0.3600  -25.3200 C.3       5 GLY6        0.0000 
     49 CA         -6.5700    0.1700  -23.9400 C.3       5 GLY6        0.0000 
     50 CA         -5.3100   -0.5400  -23.5300 C.3       5 GLY6        0.0000 
     51 CA         -5.8700   -0.7300  -22.1500 C.3       5 GLY6        0.0000 
     52 CA         -2.9500   -0.8800  -25.8900 C.3       5 GLY6        0.0000 
     53 CA         -3.5000   -1.0700  -24.5100 C.3       5 GLY6        0.0000 
     54 CA         -6.6600    2.3800  -25.3000 C.3       5 GLY6        0.0000 
     55 CA         -2.3400    0.4300  -25.4600 C.3       5 GLY6        0.0000 
     56 CA         -2.9000    0.2400  -24.0800 C.3       5 GLY6        0.0000 
     57 CA         -3.4500    0.0500  -22.7000 C.3       5 GLY6        0.0000 
     58 CA         -1.0900   -0.2900  -25.0500 C.3       5 GLY6        0.0000 
     59 CA         -2.7600   -0.8600  -20.9100 C.3       5 GLY6        0.0000 
     60 CA         -4.8000    2.9700  -24.4700 C.3       5 GLY6        0.0000 
     61 CA         -1.0400    0.8300  -23.2500 C.3       5 GLY6        0.0000 
     62 CA         -1.5900    0.6400  -21.8700 C.3       5 GLY6        0.0000 
     63 CA          0.2200    0.1100  -22.8400 C.3       5 GLY6        0.0000 
     64 CA         -0.3400   -0.0800  -21.4600 C.3       5 GLY6        0.0000 
     65 CA         -3.6400    4.4700  -25.4300 C.3       5 GLY6        0.0000 
     66 CA         -0.4300    2.1300  -22.8300 C.3       5 GLY6        0.0000 
     67 CA          1.5200    0.5200  -20.6300 C.3       5 GLY6        0.0000 
     68 CA         -0.3800    3.2500  -21.0200 C.3       5 GLY6        0.0000 
     69 CA          0.8700    2.5300  -20.6100 C.3       5 GLY6        0.0000 
     70 CA          3.2400    2.2000  -22.9600 C.3       5 GLY6        0.0000 
     71 DU         -4.8500    1.8600  -26.2800 H         6 CUB7        0.0000 
     72 DU         -5.4000    1.6700  -24.9000 H         6 CUB7        0.0000 
     73 DU         -3.5900    1.1400  -25.8700 H         6 CUB7        0.0000 
     74 DU         -1.7300    1.7300  -25.0400 H         6 CUB7        0.0000 
     75 DU          0.0800    1.2100  -26.0100 H         6 CUB7        0.0000 
     76 DU         -0.4800    1.0200  -24.6300 H         6 CUB7        0.0000 
     77 DU          0.2700    1.2300  -21.0400 H         6 CUB7        0.0000 
@<TRIPOS>BOND
@<TRIPOS>SUBSTRUCTURE
     1 SER1        1 GROUP   
     2 ALA2        3 GROUP   
     3 ASP3       27 GROUP   
     4 PHE5       33 GROUP   
     5 GLY6       44 GROUP   
     6 CUB7       71 GROUP   
@<TRIPOS>SET

