#    Name: 6ghj_1_PHE_ALA_GLN_CAVITY_N1_4
#    Modification time : Fri May 22 19:29:33 2020

@<TRIPOS>MOLECULE
6ghj_1_PHE_ALA_GLN_CAVITY_N1_4
  132     0     7     0     0
SMALL
NO_CHARGES


@<TRIPOS>ATOM
      1 OG         20.1500   18.1800  -10.0400 O.3       1 SER1        0.0000 
      2 OG         20.7400   17.7800   -8.0400 O.3       1 SER1        0.0000 
      3 OG         20.9700   18.9000   -9.0100 O.3       1 SER1        0.0000 
      4 OG         21.1900   20.0300   -9.9800 O.3       1 SER1        0.0000 
      5 OG         19.5100   18.4700   -7.5300 O.3       1 SER1        0.0000 
      6 OG         19.9600   20.7100   -9.4700 O.3       1 SER1        0.0000 
      7 OG         20.3300   19.1900   -6.5100 O.3       1 SER1        0.0000 
      8 OG         20.5600   20.3100   -7.4700 O.3       1 SER1        0.0000 
      9 OG         20.7800   21.4300   -8.4400 O.3       1 SER1        0.0000 
     10 OG         22.9400   15.1600   -3.5900 O.3       1 SER1        0.0000 
     11 OG         23.1700   16.2900   -4.5600 O.3       1 SER1        0.0000 
     12 OG         24.2200   18.1300   -4.5000 O.3       1 SER1        0.0000 
     13 OG         22.5300   16.5700   -2.0500 O.3       1 SER1        0.0000 
     14 OG         22.7600   17.6900   -3.0200 O.3       1 SER1        0.0000 
     15 OG         22.9800   18.8200   -3.9900 O.3       1 SER1        0.0000 
     16 OG         23.6600   22.1900   -6.8900 O.3       1 SER1        0.0000 
     17 OG         25.0400   18.8500   -3.4700 O.3       1 SER1        0.0000 
     18 OG         25.9500   23.3400   -7.3400 O.3       1 SER1        0.0000 
     19 OG         24.0300   20.6600   -3.9300 O.3       1 SER1        0.0000 
     20 O          22.1200   14.4400   -4.6200 O.2       2 ALA2        0.0000 
     21 O          20.8800   15.1300   -4.1100 O.2       2 ALA2        0.0000 
     22 O          22.2400   21.8700   -9.9200 O.2       2 ALA2        0.0000 
     23 O          21.0100   22.5600   -9.4100 O.2       2 ALA2        0.0000 
     24 N          21.4800   14.7300   -2.1100 N.am      2 ALA2        0.0000 
     25 N          21.7100   15.8500   -3.0800 N.am      2 ALA2        0.0000 
     26 O          23.0700   22.5900   -8.8900 O.2       2 ALA2        0.0000 
     27 N          20.4700   16.5400   -2.5700 N.am      2 ALA2        0.0000 
     28 N          22.3000   15.4500   -1.0900 N.am      2 ALA2        0.0000 
     29 N          21.3000   17.2600   -1.5500 N.am      2 ALA2        0.0000 
     30 N          28.6400   23.0900   -9.3200 N.am      2 ALA2        0.0000 
     31 N          21.8900   16.8500    0.4500 N.am      2 ALA2        0.0000 
     32 N          28.2300   24.5000   -7.7900 N.am      2 ALA2        0.0000 
     33 OD1        25.4900   17.5600   -9.5000 O.co2     3 ASP3        0.0000 
     34 OD1        25.7200   18.6900  -10.4700 O.co2     3 ASP3        0.0000 
     35 OD1        24.0300   17.1300   -8.0300 O.co2     3 ASP3        0.0000 
     36 OD1        25.8600   16.0400   -6.5400 O.co2     3 ASP3        0.0000 
     37 OD1        26.3100   18.2800   -8.4700 O.co2     3 ASP3        0.0000 
     38 OD1        26.5400   19.4100   -9.4400 O.co2     3 ASP3        0.0000 
     39 OD1        24.6300   16.7200   -6.0300 O.co2     3 ASP3        0.0000 
     40 OD1        24.8500   17.8500   -7.0000 O.co2     3 ASP3        0.0000 
     41 OD1        25.0800   18.9700   -7.9700 O.co2     3 ASP3        0.0000 
     42 OD1        25.6800   18.5700   -5.9700 O.co2     3 ASP3        0.0000 
     43 NZ         19.8800   16.9400   -4.5700 N.4       4 LYS4        0.0000 
     44 NZ         20.1000   18.0600   -5.5400 N.4       4 LYS4        0.0000 
     45 NZ         20.7000   17.6600   -3.5400 N.4       4 LYS4        0.0000 
     46 NZ         20.9300   18.7800   -4.5100 N.4       4 LYS4        0.0000 
     47 NZ         21.5200   18.3800   -2.5100 N.4       4 LYS4        0.0000 
     48 NZ         22.1200   17.9800   -0.5200 N.4       4 LYS4        0.0000 
     49 CZ         23.4800   21.1800  -10.4200 C.ar      5 PHE5        0.0000 
     50 CZ         28.2300   20.9700  -11.8900 C.ar      5 PHE5        0.0000 
     51 CZ         26.7700   20.5300  -10.4100 C.ar      5 PHE5        0.0000 
     52 CZ         26.9900   21.6500  -11.3800 C.ar      5 PHE5        0.0000 
     53 CZ         25.5300   21.2200   -9.9000 C.ar      5 PHE5        0.0000 
     54 CZ         24.3000   21.9000   -9.4000 C.ar      5 PHE5        0.0000 
     55 CZ         21.1500   19.9100   -5.4800 C.ar      5 PHE5        0.0000 
     56 CZ         21.3800   21.0300   -6.4500 C.ar      5 PHE5        0.0000 
     57 CZ         21.6100   22.1500   -7.4100 C.ar      5 PHE5        0.0000 
     58 CZ         27.8200   22.3700  -10.3500 C.ar      5 PHE5        0.0000 
     59 CZ         26.3600   21.9400   -8.8800 C.ar      5 PHE5        0.0000 
     60 CZ         26.5800   23.0600   -9.8400 C.ar      5 PHE5        0.0000 
     61 CZ         24.6700   20.3800   -6.4300 C.ar      5 PHE5        0.0000 
     62 CZ         25.1200   22.6200   -8.3700 C.ar      5 PHE5        0.0000 
     63 CZ         21.9800   20.6300   -4.4500 C.ar      5 PHE5        0.0000 
     64 CZ         22.2000   21.7500   -5.4200 C.ar      5 PHE5        0.0000 
     65 CZ         22.4300   22.8700   -6.3900 C.ar      5 PHE5        0.0000 
     66 CZ         28.1900   20.8500   -7.3900 C.ar      5 PHE5        0.0000 
     67 CZ         28.4100   21.9700   -8.3600 C.ar      5 PHE5        0.0000 
     68 CZ         26.5000   19.2900   -4.9400 C.ar      5 PHE5        0.0000 
     69 CZ         26.7300   20.4100   -5.9100 C.ar      5 PHE5        0.0000 
     70 CZ         26.9500   21.5300   -6.8800 C.ar      5 PHE5        0.0000 
     71 CZ         27.1800   22.6600   -7.8500 C.ar      5 PHE5        0.0000 
     72 CZ         25.2700   19.9700   -4.4400 C.ar      5 PHE5        0.0000 
     73 CZ         25.7200   22.2200   -6.3700 C.ar      5 PHE5        0.0000 
     74 CZ         22.9000   15.0400    0.9100 C.ar      5 PHE5        0.0000 
     75 CZ         23.1200   16.1700   -0.0600 C.ar      5 PHE5        0.0000 
     76 CZ         24.2600   21.7800   -4.9000 C.ar      5 PHE5        0.0000 
     77 CZ         29.0100   21.5700   -6.3600 C.ar      5 PHE5        0.0000 
     78 CA         24.4400   15.7200   -9.5600 C.3       6 GLY6        0.0000 
     79 CA         22.9800   15.2900   -8.0900 C.3       6 GLY6        0.0000 
     80 CA         23.2100   16.4100   -9.0500 C.3       6 GLY6        0.0000 
     81 CA         21.5200   14.8500   -6.6100 C.3       6 GLY6        0.0000 
     82 CA         23.8000   16.0000   -7.0600 C.3       6 GLY6        0.0000 
     83 CA         22.3400   15.5700   -5.5800 C.3       6 GLY6        0.0000 
     84 CA         29.0100   18.0300  -10.4600 C.3       6 GLY6        0.0000 
     85 CA         29.2300   19.1600  -11.4300 C.3       6 GLY6        0.0000 
     86 CA         27.7700   18.7200   -9.9500 C.3       6 GLY6        0.0000 
     87 CA         24.4000   15.6000   -5.0600 C.3       6 GLY6        0.0000 
     88 CA         22.7100   14.0400   -2.6200 C.3       6 GLY6        0.0000 
     89 CA         30.0600   19.8800  -10.4000 C.3       6 GLY6        0.0000 
     90 CA         28.6000   19.4400   -8.9200 C.3       6 GLY6        0.0000 
     91 CA         28.8200   20.5600   -9.8900 C.3       6 GLY6        0.0000 
     92 CA         26.9100   17.8800   -6.4800 C.3       6 GLY6        0.0000 
     93 CA         27.1400   19.0000   -7.4500 C.3       6 GLY6        0.0000 
     94 CA         27.3600   20.1300   -8.4200 C.3       6 GLY6        0.0000 
     95 CA         29.1900   19.0400   -6.9300 C.3       6 GLY6        0.0000 
     96 CA         29.4200   20.1600   -7.9000 C.3       6 GLY6        0.0000 
     97 CA         29.6500   21.2800   -8.8600 C.3       6 GLY6        0.0000 
     98 CA         29.8700   22.4100   -9.8300 C.3       6 GLY6        0.0000 
     99 CA         27.9600   19.7200   -6.4200 C.3       6 GLY6        0.0000 
    100 CA         27.4100   23.7800   -8.8200 C.3       6 GLY6        0.0000 
    101 CA         23.0300   22.4700   -4.3900 C.3       6 GLY6        0.0000 
    102 CA         29.2400   22.6900   -7.3300 C.3       6 GLY6        0.0000 
    103 DU         23.4300   17.5300  -10.0200 H         7 CUB7        0.0000 
    104 DU         23.6600   18.6500  -10.9900 H         7 CUB7        0.0000 
    105 DU         21.7500   15.9700   -7.5800 H         7 CUB7        0.0000 
    106 DU         21.9700   17.0900   -8.5500 H         7 CUB7        0.0000 
    107 DU         24.2600   18.2500   -9.0000 H         7 CUB7        0.0000 
    108 DU         24.4800   19.3700   -9.9600 H         7 CUB7        0.0000 
    109 DU         22.5700   16.6900   -6.5500 H         7 CUB7        0.0000 
    110 DU         23.2500   20.0600   -9.4600 H         7 CUB7        0.0000 
    111 DU         21.1100   16.2500   -5.0800 H         7 CUB7        0.0000 
    112 DU         21.3400   17.3800   -6.0400 H         7 CUB7        0.0000 
    113 DU         21.5600   18.5000   -7.0100 H         7 CUB7        0.0000 
    114 DU         21.7900   19.6200   -7.9800 H         7 CUB7        0.0000 
    115 DU         22.0200   20.7500   -8.9500 H         7 CUB7        0.0000 
    116 DU         28.0000   19.8400  -10.9200 H         7 CUB7        0.0000 
    117 DU         25.3100   20.0900   -8.9400 H         7 CUB7        0.0000 
    118 DU         23.3900   17.4100   -5.5200 H         7 CUB7        0.0000 
    119 DU         24.0700   20.7800   -8.4300 H         7 CUB7        0.0000 
    120 DU         21.9300   16.9700   -4.0500 H         7 CUB7        0.0000 
    121 DU         22.1600   18.1000   -5.0200 H         7 CUB7        0.0000 
    122 DU         22.3900   19.2200   -5.9900 H         7 CUB7        0.0000 
    123 DU         22.6100   20.3400   -6.9500 H         7 CUB7        0.0000 
    124 DU         22.8400   21.4700   -7.9200 H         7 CUB7        0.0000 
    125 DU         29.0500   21.6900  -10.8600 H         7 CUB7        0.0000 
    126 DU         27.5900   21.2500   -9.3800 H         7 CUB7        0.0000 
    127 DU         25.9000   19.6900   -6.9400 H         7 CUB7        0.0000 
    128 DU         26.1300   20.8100   -7.9100 H         7 CUB7        0.0000 
    129 DU         24.4400   19.2500   -5.4600 H         7 CUB7        0.0000 
    130 DU         24.9000   21.5000   -7.4000 H         7 CUB7        0.0000 
    131 DU         23.2100   19.9400   -4.9600 H         7 CUB7        0.0000 
    132 DU         23.4400   21.0600   -5.9300 H         7 CUB7        0.0000 
@<TRIPOS>BOND
@<TRIPOS>SUBSTRUCTURE
     1 SER1        1 GROUP   
     2 ALA2       20 GROUP   
     3 ASP3       33 GROUP   
     4 LYS4       43 GROUP   
     5 PHE5       49 GROUP   
     6 GLY6       78 GROUP   
     7 CUB7      103 GROUP   
@<TRIPOS>SET

