#    Name: 6ghj_1_PHE_ALA_GLN
#    Modification time : Fri May 22 19:29:31 2020

@<TRIPOS>MOLECULE
6ghj_1_PHE_ALA_GLN
   26    26     3     0     0
SMALL
NO_CHARGES


@<TRIPOS>ATOM
      1 N          19.9010   17.0190   -2.5830 N.4       1 PHE1        0.0000 
      2 CA         21.0880   17.8800   -2.5680 C.3       1 PHE1        0.0000 
      3 C          21.2390   18.5690   -3.9050 C.2       1 PHE1        0.0000 
      4 O          20.8750   18.0030   -4.9390 O.2       1 PHE1        0.0000 
      5 CB         22.3700   17.0820   -2.2690 C.3       1 PHE1        0.0000 
      6 CG         22.4120   16.4800   -0.8860 C.ar      1 PHE1        0.0000 
      7 CD1        22.2300   17.2790    0.2400 C.ar      1 PHE1        0.0000 
      8 CD2        22.6320   15.1060   -0.7100 C.ar      1 PHE1        0.0000 
      9 CE1        22.2600   16.7100    1.5210 C.ar      1 PHE1        0.0000 
     10 CE2        22.6790   14.5370    0.5630 C.ar      1 PHE1        0.0000 
     11 CZ         22.4840   15.3390    1.6780 C.ar      1 PHE1        0.0000 
     12 N          21.8070   19.7760   -3.8780 N.am      2 ALA2        0.0000 
     13 CA         22.0620   20.5130   -5.1120 C.3       2 ALA2        0.0000 
     14 C          22.8890   19.6910   -6.0940 C.2       2 ALA2        0.0000 
     15 O          22.5210   19.5520   -7.2650 O.2       2 ALA2        0.0000 
     16 CB         22.7550   21.8430   -4.8000 C.3       2 ALA2        0.0000 
     17 N          24.0010   19.1240   -5.6420 N.am      3 GLN3        0.0000 
     18 CA         24.7190   18.2150   -6.5350 C.3       3 GLN3        0.0000 
     19 C          25.1740   16.9080   -5.8620 C.2       3 GLN3        0.0000 
     20 O          24.8290   16.5860   -4.7160 O.2       3 GLN3        0.0000 
     21 CB         25.9120   18.9430   -7.1630 C.3       3 GLN3        0.0000 
     22 CG         26.9710   19.3990   -6.1810 C.3       3 GLN3        0.0000 
     23 CD         28.1670   20.0040   -6.8910 C.2       3 GLN3        0.0000 
     24 OE1        28.0230   20.5750   -7.9870 O.2       3 GLN3        0.0000 
     25 NE2        29.3570   19.8830   -6.2810 N.am      3 GLN3        0.0000 
     26 OXT        25.8840   16.1040   -6.4770 O.3       3 GLN3        0.0000 
@<TRIPOS>BOND
     1    1    2 1    
     2    2    3 1    
     3    2    5 1    
     4    3    4 2    
     5    3   12 am   
     6    5    6 1    
     7    6    7 ar   
     8    6    8 ar   
     9    7    9 ar   
    10    8   10 ar   
    11    9   11 ar   
    12   10   11 ar   
    13   12   13 1    
    14   13   14 1    
    15   13   16 1    
    16   14   15 2    
    17   14   17 am   
    18   17   18 1    
    19   18   19 1    
    20   18   21 1    
    21   19   20 2    
    22   19   26 1    
    23   21   22 1    
    24   22   23 1    
    25   23   24 2    
    26   23   25 am   
@<TRIPOS>SUBSTRUCTURE
     1 PHE1        1 RESIDUE 
     2 ALA2       12 RESIDUE 
     3 GLN3       17 RESIDUE 
@<TRIPOS>SET

