#    Name: 5zjp_1_RFW_CAVITY_N1_8
#    Modification time : Fri May 22 19:27:22 2020

@<TRIPOS>MOLECULE
5zjp_1_RFW_CAVITY_N1_8
   83     0     7     0     0
SMALL
NO_CHARGES


@<TRIPOS>ATOM
      1 OG        -11.2100   -4.3300   24.0400 O.3       1 SER1        0.0000 
      2 OG         -9.3500   -4.3600   23.0400 O.3       1 SER1        0.0000 
      3 OG         -9.8200   -4.7800   24.4000 O.3       1 SER1        0.0000 
      4 OG        -12.3000   -2.5200   24.2200 O.3       1 SER1        0.0000 
      5 OG        -10.9100   -2.9600   24.5700 O.3       1 SER1        0.0000 
      6 OG         -9.5200   -3.4000   24.9200 O.3       1 SER1        0.0000 
      7 OG         -8.1300   -3.8400   25.2700 O.3       1 SER1        0.0000 
      8 OG        -10.6100   -1.5900   25.0900 O.3       1 SER1        0.0000 
      9 OG        -13.5200    1.9400   21.8400 O.3       1 SER1        0.0000 
     10 OG         -9.8300    0.2000   24.2600 O.3       1 SER1        0.0000 
     11 OG        -10.3000   -0.2200   25.6200 O.3       1 SER1        0.0000 
     12 OG         -8.4400   -0.2400   24.6100 O.3       1 SER1        0.0000 
     13 N         -13.0800   -4.3100   25.0500 N.am      2 ALA2        0.0000 
     14 N         -11.6900   -4.7500   25.4100 N.am      2 ALA2        0.0000 
     15 N         -10.3000   -5.1900   25.7600 N.am      2 ALA2        0.0000 
     16 O         -10.7700   -5.6100   27.1200 O.2       2 ALA2        0.0000 
     17 O          -8.9100   -5.6300   26.1100 O.2       2 ALA2        0.0000 
     18 O         -13.6900   -2.0800   23.8700 O.2       2 ALA2        0.0000 
     19 O         -14.1600   -2.4900   25.2300 O.2       2 ALA2        0.0000 
     20 O         -12.7700   -2.9400   25.5800 O.2       2 ALA2        0.0000 
     21 O         -11.3800   -3.3800   25.9300 O.2       2 ALA2        0.0000 
     22 O         -14.7700   -0.2600   24.0400 O.2       2 ALA2        0.0000 
     23 O         -15.2500   -0.6800   25.4000 O.2       2 ALA2        0.0000 
     24 O         -13.3800   -0.7100   24.3900 O.2       2 ALA2        0.0000 
     25 O         -13.8600   -1.1200   25.7500 O.2       2 ALA2        0.0000 
     26 O         -12.4700   -1.5600   26.1000 O.2       2 ALA2        0.0000 
     27 O         -11.0800   -2.0000   26.4500 O.2       2 ALA2        0.0000 
     28 O         -13.5600    0.2500   26.2800 O.2       2 ALA2        0.0000 
     29 N         -11.3500    3.2800   21.3600 N.am      2 ALA2        0.0000 
     30 N         -11.3900    1.6000   25.7900 N.am      2 ALA2        0.0000 
     31 N         -11.0900    2.9700   26.3200 N.am      2 ALA2        0.0000 
     32 OD1       -12.4300    0.1200   21.6700 O.co2     3 ASP3        0.0000 
     33 OD1       -12.9100   -0.2900   23.0300 O.co2     3 ASP3        0.0000 
     34 OD1       -11.5200   -0.7300   23.3800 O.co2     3 ASP3        0.0000 
     35 OD1       -10.1300   -1.1700   23.7300 O.co2     3 ASP3        0.0000 
     36 OD1       -11.6500    1.9100   20.8300 O.co2     3 ASP3        0.0000 
     37 OD1       -12.1300    1.5000   22.1900 O.co2     3 ASP3        0.0000 
     38 OD1       -10.7400    1.0500   22.5500 O.co2     3 ASP3        0.0000 
     39 OD1        -8.4000    1.4400   20.1800 O.co2     3 ASP3        0.0000 
     40 OD1        -8.8700    1.0300   21.5400 O.co2     3 ASP3        0.0000 
     41 OD1        -9.3500    0.6100   22.9000 O.co2     3 ASP3        0.0000 
     42 OD1        -9.9600    2.8400   21.7100 O.co2     3 ASP3        0.0000 
     43 OD1       -11.5200    4.2400   23.2400 O.co2     3 ASP3        0.0000 
     44 OD1       -10.1300    3.8000   23.6000 O.co2     3 ASP3        0.0000 
     45 OD1        -8.2700    3.7700   22.5900 O.co2     3 ASP3        0.0000 
     46 NZ        -14.0000    1.5200   23.2000 N.4       4 LYS4        0.0000 
     47 NZ        -14.4700    1.1100   24.5600 N.4       4 LYS4        0.0000 
     48 NZ        -13.0800    0.6700   24.9200 N.4       4 LYS4        0.0000 
     49 NZ        -13.2200    3.3100   22.3700 N.4       4 LYS4        0.0000 
     50 NZ        -12.3000    2.4500   24.0800 N.4       4 LYS4        0.0000 
     51 NZ        -12.7800    2.0400   25.4400 N.4       4 LYS4        0.0000 
     52 NZ        -12.0000    3.8300   24.6100 N.4       4 LYS4        0.0000 
     53 CZ        -10.1300   -6.1500   23.8700 C.ar      5 PHE5        0.0000 
     54 CZ        -10.6000   -6.5600   25.2300 C.ar      5 PHE5        0.0000 
     55 CZ         -8.7400   -6.5900   24.2200 C.ar      5 PHE5        0.0000 
     56 CZ         -9.2100   -7.0000   25.5800 C.ar      5 PHE5        0.0000 
     57 CZ         -7.3500   -7.0300   24.5800 C.ar      5 PHE5        0.0000 
     58 CZ         -9.5200    1.5700   24.7800 C.ar      5 PHE5        0.0000 
     59 CZ        -10.0000    1.1500   26.1400 C.ar      5 PHE5        0.0000 
     60 CZ         -8.1300    1.1300   25.1400 C.ar      5 PHE5        0.0000 
     61 CZ         -9.2200    2.9400   25.3100 C.ar      5 PHE5        0.0000 
     62 CA         -9.3900   -6.0500   27.4700 C.3       6 GLY6        0.0000 
     63 CA        -10.0000   -3.8200   26.2800 C.3       6 GLY6        0.0000 
     64 CA         -8.6100   -4.2600   26.6300 C.3       6 GLY6        0.0000 
     65 CA        -14.3000    0.1500   22.6800 C.3       6 GLY6        0.0000 
     66 CA        -12.1700   -0.1900   26.6300 C.3       6 GLY6        0.0000 
     67 CA        -11.8700    1.1800   27.1500 C.3       6 GLY6        0.0000 
     68 CA        -10.6100    3.3800   24.9600 C.3       6 GLY6        0.0000 
     69 CA         -8.4400    4.7300   24.4700 C.3       6 GLY6        0.0000 
     70 CA         -8.9200    4.3100   25.8300 C.3       6 GLY6        0.0000 
     71 DU         -8.4300   -5.2200   24.7500 H         7 CUB7        0.0000 
     72 DU         -7.5200   -6.0700   26.4600 H         7 CUB7        0.0000 
     73 DU        -12.0000   -1.1500   24.7400 H         7 CUB7        0.0000 
     74 DU        -12.6100    1.0800   23.5600 H         7 CUB7        0.0000 
     75 DU        -11.2200    0.6400   23.9100 H         7 CUB7        0.0000 
     76 DU        -11.6900    0.2200   25.2700 H         7 CUB7        0.0000 
     77 DU        -11.8300    2.8700   22.7200 H         7 CUB7        0.0000 
     78 DU        -10.4400    2.4300   23.0700 H         7 CUB7        0.0000 
     79 DU        -10.9100    2.0100   24.4300 H         7 CUB7        0.0000 
     80 DU         -8.5700    2.4000   22.0600 H         7 CUB7        0.0000 
     81 DU         -9.0500    1.9900   23.4200 H         7 CUB7        0.0000 
     82 DU         -7.6600    1.5400   23.7800 H         7 CUB7        0.0000 
     83 DU         -8.7400    3.3600   23.9500 H         7 CUB7        0.0000 
@<TRIPOS>BOND
@<TRIPOS>SUBSTRUCTURE
     1 SER1        1 GROUP   
     2 ALA2       13 GROUP   
     3 ASP3       32 GROUP   
     4 LYS4       46 GROUP   
     5 PHE5       53 GROUP   
     6 GLY6       62 GROUP   
     7 CUB7       71 GROUP   
@<TRIPOS>SET

