#    Name: 5zjp_2_RFW_CAVITY_N1_4
#    Modification time : Fri May 22 19:27:26 2020

@<TRIPOS>MOLECULE
5zjp_2_RFW_CAVITY_N1_4
   90     0     7     0     0
SMALL
NO_CHARGES


@<TRIPOS>ATOM
      1 OG        -27.8300  -22.2100   16.0800 O.3       1 SER1        0.0000 
      2 OG        -26.4400  -22.6500   16.4300 O.3       1 SER1        0.0000 
      3 OG        -23.6200  -21.8500   12.7000 O.3       1 SER1        0.0000 
      4 OG        -25.0500  -23.1000   16.7800 O.3       1 SER1        0.0000 
      5 OG        -22.2300  -22.2900   13.0500 O.3       1 SER1        0.0000 
      6 OG        -26.6100  -21.7000   18.3100 O.3       1 SER1        0.0000 
      7 OG        -24.7500  -21.7200   17.3100 O.3       1 SER1        0.0000 
      8 OG        -25.2200  -22.1400   18.6700 O.3       1 SER1        0.0000 
      9 OG        -25.8300  -19.9100   17.4800 O.3       1 SER1        0.0000 
     10 OG        -26.3100  -20.3200   18.8400 O.3       1 SER1        0.0000 
     11 OG        -26.7900  -20.7400   20.2000 O.3       1 SER1        0.0000 
     12 OG        -23.9700  -19.9400   16.4700 O.3       1 SER1        0.0000 
     13 OG        -24.4400  -20.3500   17.8300 O.3       1 SER1        0.0000 
     14 OG        -26.0100  -18.9500   19.3600 O.3       1 SER1        0.0000 
     15 OG        -24.6200  -19.3900   19.7200 O.3       1 SER1        0.0000 
     16 N         -25.3100  -22.7800   11.8200 N.am      2 ALA2        0.0000 
     17 N         -25.0100  -21.4100   12.3500 N.am      2 ALA2        0.0000 
     18 O         -21.7900  -23.5600   16.1200 O.2       2 ALA2        0.0000 
     19 O         -22.8800  -21.7500   16.3000 O.2       2 ALA2        0.0000 
     20 O         -23.3600  -22.1600   17.6600 O.2       2 ALA2        0.0000 
     21 O         -21.0100  -21.7800   15.2900 O.2       2 ALA2        0.0000 
     22 O         -21.4900  -22.1900   16.6500 O.2       2 ALA2        0.0000 
     23 O         -21.9700  -22.6100   18.0100 O.2       2 ALA2        0.0000 
     24 O         -24.9200  -20.7700   19.1900 O.2       2 ALA2        0.0000 
     25 O         -22.5800  -20.3800   16.8200 O.2       2 ALA2        0.0000 
     26 O         -23.0500  -20.7900   18.1800 O.2       2 ALA2        0.0000 
     27 O         -21.6600  -21.2300   18.5300 O.2       2 ALA2        0.0000 
     28 O         -25.0900  -19.8100   21.0800 O.2       2 ALA2        0.0000 
     29 OD1       -31.5200  -25.4500   13.8000 O.co2     3 ASP3        0.0000 
     30 OD1       -29.6500  -25.4700   12.7900 O.co2     3 ASP3        0.0000 
     31 OD1       -31.2100  -24.0700   14.3200 O.co2     3 ASP3        0.0000 
     32 OD1       -28.8700  -23.6800   11.9500 O.co2     3 ASP3        0.0000 
     33 OD1       -29.3500  -24.1000   13.3100 O.co2     3 ASP3        0.0000 
     34 OD1       -29.8200  -24.5100   14.6800 O.co2     3 ASP3        0.0000 
     35 OD1       -27.4800  -24.1300   12.3100 O.co2     3 ASP3        0.0000 
     36 OD1       -25.6200  -24.1500   11.3000 O.co2     3 ASP3        0.0000 
     37 OD1       -29.0500  -22.7300   13.8400 O.co2     3 ASP3        0.0000 
     38 OD1       -29.5200  -23.1400   15.2000 O.co2     3 ASP3        0.0000 
     39 OD1       -27.1800  -22.7500   12.8300 O.co2     3 ASP3        0.0000 
     40 OD1       -26.8800  -21.3800   13.3600 O.co2     3 ASP3        0.0000 
     41 OD1       -27.3500  -21.8000   14.7200 O.co2     3 ASP3        0.0000 
     42 OD1       -25.4900  -21.8200   13.7100 O.co2     3 ASP3        0.0000 
     43 OD1       -25.9600  -22.2400   15.0700 O.co2     3 ASP3        0.0000 
     44 OD1       -28.4400  -19.9800   14.8900 O.co2     3 ASP3        0.0000 
     45 OD1       -25.6600  -20.8700   15.5900 O.co2     3 ASP3        0.0000 
     46 OD1       -26.1400  -21.2800   16.9500 O.co2     3 ASP3        0.0000 
     47 OD1       -23.7900  -20.8900   14.5800 O.co2     3 ASP3        0.0000 
     48 OD1       -24.2700  -21.3100   15.9500 O.co2     3 ASP3        0.0000 
     49 OD1       -27.2200  -19.4700   17.1300 O.co2     3 ASP3        0.0000 
     50 NZ        -24.2300  -24.5900   11.6500 N.4       4 LYS4        0.0000 
     51 NZ        -23.9200  -23.2200   12.1700 N.4       4 LYS4        0.0000 
     52 NZ        -24.4000  -23.6400   13.5300 N.4       4 LYS4        0.0000 
     53 NZ        -22.7100  -22.7100   14.4100 N.4       4 LYS4        0.0000 
     54 CZ        -28.7400  -26.3300   14.5000 C.ar      5 PHE5        0.0000 
     55 CZ        -31.6900  -24.4900   15.6800 C.ar      5 PHE5        0.0000 
     56 CZ        -28.4300  -24.9600   15.0300 C.ar      5 PHE5        0.0000 
     57 CZ        -27.0500  -25.4000   15.3800 C.ar      5 PHE5        0.0000 
     58 CZ        -30.0000  -23.5600   16.5600 C.ar      5 PHE5        0.0000 
     59 CZ        -28.1300  -23.5800   15.5500 C.ar      5 PHE5        0.0000 
     60 CZ        -26.7400  -24.0300   15.9000 C.ar      5 PHE5        0.0000 
     61 CZ        -25.3500  -24.4700   16.2600 C.ar      5 PHE5        0.0000 
     62 CA        -31.8200  -26.8200   13.2700 C.3       6 GLY6        0.0000 
     63 CA        -29.9500  -26.8400   12.2700 C.3       6 GLY6        0.0000 
     64 CA        -30.4300  -27.2600   13.6300 C.3       6 GLY6        0.0000 
     65 CA        -31.9900  -25.8600   15.1600 C.3       6 GLY6        0.0000 
     66 CA        -30.1300  -25.8900   14.1500 C.3       6 GLY6        0.0000 
     67 CA        -27.7900  -25.5000   11.7800 C.3       6 GLY6        0.0000 
     68 CA        -28.2600  -25.9100   13.1400 C.3       6 GLY6        0.0000 
     69 CA        -25.9200  -25.5200   10.7700 C.3       6 GLY6        0.0000 
     70 CA        -26.4000  -25.9400   12.1300 C.3       6 GLY6        0.0000 
     71 CA        -26.8700  -26.3500   13.4900 C.3       6 GLY6        0.0000 
     72 CA        -26.0900  -24.5700   12.6600 C.3       6 GLY6        0.0000 
     73 CA        -26.5700  -24.9800   14.0200 C.3       6 GLY6        0.0000 
     74 CA        -24.7000  -25.0100   13.0100 C.3       6 GLY6        0.0000 
     75 CA        -25.1800  -25.4200   14.3700 C.3       6 GLY6        0.0000 
     76 CA        -23.4900  -24.4900   15.2500 C.3       6 GLY6        0.0000 
     77 CA        -23.9600  -24.9100   16.6100 C.3       6 GLY6        0.0000 
     78 CA        -23.1800  -23.1200   15.7700 C.3       6 GLY6        0.0000 
     79 CA        -23.6600  -23.5400   17.1300 C.3       6 GLY6        0.0000 
     80 CA        -21.3200  -23.1500   14.7600 C.3       6 GLY6        0.0000 
     81 CA        -22.4000  -21.3300   14.9400 C.3       6 GLY6        0.0000 
     82 CA        -25.4000  -21.1800   20.5500 C.3       6 GLY6        0.0000 
     83 CA        -22.7500  -19.4200   18.7100 C.3       6 GLY6        0.0000 
     84 DU        -27.9600  -24.5400   13.6700 H         7 CUB7        0.0000 
     85 DU        -27.6600  -23.1700   14.1900 H         7 CUB7        0.0000 
     86 DU        -25.7900  -23.2000   13.1800 H         7 CUB7        0.0000 
     87 DU        -26.2700  -23.6100   14.5400 H         7 CUB7        0.0000 
     88 DU        -24.8800  -24.0500   14.9000 H         7 CUB7        0.0000 
     89 DU        -24.1000  -22.2600   14.0600 H         7 CUB7        0.0000 
     90 DU        -24.5700  -22.6800   15.4200 H         7 CUB7        0.0000 
@<TRIPOS>BOND
@<TRIPOS>SUBSTRUCTURE
     1 SER1        1 GROUP   
     2 ALA2       16 GROUP   
     3 ASP3       29 GROUP   
     4 LYS4       50 GROUP   
     5 PHE5       54 GROUP   
     6 GLY6       62 GROUP   
     7 CUB7       84 GROUP   
@<TRIPOS>SET

