#    Name: 5zjp_2_RFW
#    Modification time : Fri May 22 19:27:25 2020

@<TRIPOS>MOLECULE
5zjp_2_RFW
   19    18     1     0     0
SMALL
NO_CHARGES


@<TRIPOS>ATOM
      1 P         -22.6640  -20.9780   17.1780           1 RFW301      0.0000 
      2 C1        -25.5150  -24.0660   11.0150           1 RFW301      0.0000 
      3 O1        -24.5760  -24.0870   10.2920           1 RFW301      0.0000 
      4 C2        -25.3080  -23.8180   12.5110           1 RFW301      0.0000 
      5 N2        -26.3540  -24.3430   13.3950           1 RFW301      0.0000 
      6 C3        -25.1350  -22.3180   12.7560           1 RFW301      0.0000 
      7 O3        -26.3930  -21.7090   12.8410           1 RFW301      0.0000 
      8 C4        -24.3750  -22.0820   14.0610           1 RFW301      0.0000 
      9 O4        -24.0420  -20.7230   14.1480           1 RFW301      0.0000 
     10 C5        -23.0940  -22.9110   14.1280           1 RFW301      0.0000 
     11 O5        -23.3240  -24.1040   14.8270           1 RFW301      0.0000 
     12 C6        -22.0460  -22.1120   14.8940           1 RFW301      0.0000 
     13 O6        -22.2920  -22.2920   16.2580           1 RFW301      0.0000 
     14 C7        -27.6770  -24.8460   13.0350           1 RFW301      0.0000 
     15 O7        -28.0710  -24.8840   11.9200           1 RFW301      0.0000 
     16 C8        -28.6000  -25.3450   14.1450           1 RFW301      0.0000 
     17 O1P       -21.3960  -20.2550   17.5650           1 RFW301      0.0000 
     18 O2P       -23.3850  -21.4350   18.4230           1 RFW301      0.0000 
     19 O3P       -23.5580  -20.0430   16.3980           1 RFW301      0.0000 
@<TRIPOS>BOND
     1    1   13 du   
     2    1   17 du   
     3    1   18 du   
     4    1   19 du   
     5    2    3 du   
     6    2    4 du   
     7    4    5 du   
     8    4    6 du   
     9    5   14 du   
    10    6    7 du   
    11    6    8 du   
    12    8    9 du   
    13    8   10 du   
    14   10   11 du   
    15   10   12 du   
    16   12   13 du   
    17   14   15 du   
    18   14   16 du   
@<TRIPOS>SUBSTRUCTURE
     1 RFW301      1 GROUP   
@<TRIPOS>SET

