#    Name: 5zjp_1_RFW
#    Modification time : Fri May 22 19:27:21 2020

@<TRIPOS>MOLECULE
5zjp_1_RFW
   19    18     1     0     0
SMALL
NO_CHARGES


@<TRIPOS>ATOM
      1 P         -13.2560   -2.0400   24.6920           1 RFW301      0.0000 
      2 C1        -11.5720    4.8390   22.8800           1 RFW301      0.0000 
      3 O1        -12.6710    5.1100   22.5250           1 RFW301      0.0000 
      4 C2        -11.2810    3.4370   23.4190           1 RFW301      0.0000 
      5 N2         -9.9760    3.3040   24.0670           1 RFW301      0.0000 
      6 C3        -11.4740    2.3800   22.3240           1 RFW301      0.0000 
      7 O3        -10.2270    1.9220   21.8770           1 RFW301      0.0000 
      8 C4        -12.2830    1.1740   22.8240           1 RFW301      0.0000 
      9 O4        -12.9730    0.6310   21.7310           1 RFW301      0.0000 
     10 C5        -13.3050    1.4950   23.9200           1 RFW301      0.0000 
     11 O5        -12.7110    1.6070   25.1840           1 RFW301      0.0000 
     12 C6        -14.2380    0.2990   24.0310           1 RFW301      0.0000 
     13 O6        -13.7180   -0.5020   25.0530           1 RFW301      0.0000 
     14 C7         -8.7250    3.8980   23.6130           1 RFW301      0.0000 
     15 O7         -8.6650    4.5630   22.6340           1 RFW301      0.0000 
     16 C8         -7.4560    3.6480   24.4250           1 RFW301      0.0000 
     17 O1P       -14.4510   -2.9550   24.8140           1 RFW301      0.0000 
     18 O2P       -12.1760   -2.4830   25.6520           1 RFW301      0.0000 
     19 O3P       -12.7200   -2.0810   23.2820           1 RFW301      0.0000 
@<TRIPOS>BOND
     1    1   13 du   
     2    1   17 du   
     3    1   18 du   
     4    1   19 du   
     5    2    3 du   
     6    2    4 du   
     7    4    5 du   
     8    4    6 du   
     9    5   14 du   
    10    6    7 du   
    11    6    8 du   
    12    8    9 du   
    13    8   10 du   
    14   10   11 du   
    15   10   12 du   
    16   12   13 du   
    17   14   15 du   
    18   14   16 du   
@<TRIPOS>SUBSTRUCTURE
     1 RFW301      1 GROUP   
@<TRIPOS>SET

