#    Name: 6slt_1_AMP_CAVITY_N1_4
#    Modification time : Fri May 22 19:26:29 2020

@<TRIPOS>MOLECULE
6slt_1_AMP_CAVITY_N1_4
   81     0     5     0     0
SMALL
NO_CHARGES


@<TRIPOS>ATOM
      1 N          16.1100  -36.7000  -33.4100 N.am      1 ALA2        0.0000 
      2 N          15.4800  -36.0100  -34.5800 N.am      1 ALA2        0.0000 
      3 N          18.3900  -33.2500  -42.2100 N.am      1 ALA2        0.0000 
      4 N          17.7600  -32.5600  -43.3800 N.am      1 ALA2        0.0000 
      5 N          19.7200  -35.7100  -36.6900 N.am      1 ALA2        0.0000 
      6 N          16.6900  -34.3500  -36.1800 N.am      1 ALA2        0.0000 
      7 N          16.0600  -33.6600  -37.3500 N.am      1 ALA2        0.0000 
      8 O          16.7600  -35.4200  -33.0000 O.2       1 ALA2        0.0000 
      9 N          15.5000  -34.0200  -35.3400 N.am      1 ALA2        0.0000 
     10 N          14.8700  -33.3300  -36.5100 N.am      1 ALA2        0.0000 
     11 O          16.1900  -35.7800  -30.9900 O.2       1 ALA2        0.0000 
     12 N          14.3000  -33.6900  -34.4900 N.am      1 ALA2        0.0000 
     13 O          20.3000  -33.3600  -39.4500 O.2       1 ALA2        0.0000 
     14 O          19.6700  -32.6700  -40.6200 O.2       1 ALA2        0.0000 
     15 N          19.0400  -31.9700  -41.7900 N.am      1 ALA2        0.0000 
     16 N          18.4100  -31.2700  -42.9600 N.am      1 ALA2        0.0000 
     17 O          19.7400  -33.7300  -37.4400 O.2       1 ALA2        0.0000 
     18 O          19.1700  -34.0900  -35.4300 O.2       1 ALA2        0.0000 
     19 O          18.6000  -34.4600  -33.4200 O.2       1 ALA2        0.0000 
     20 O          17.9700  -33.7600  -34.5900 O.2       1 ALA2        0.0000 
     21 O          18.0300  -34.8300  -31.4100 O.2       1 ALA2        0.0000 
     22 O          17.4000  -34.1300  -32.5800 O.2       1 ALA2        0.0000 
     23 O          16.8400  -34.5000  -30.5700 O.2       1 ALA2        0.0000 
     24 N          19.2500  -33.1700  -33.0000 N.am      1 ALA2        0.0000 
     25 N          18.0700  -30.8600  -32.9100 N.am      1 ALA2        0.0000 
     26 OD1        18.4800  -32.3300  -39.7800 O.co2     2 ASP3        0.0000 
     27 OD1        17.8500  -31.6400  -40.9500 O.co2     2 ASP3        0.0000 
     28 OD1        17.2200  -30.9400  -42.1200 O.co2     2 ASP3        0.0000 
     29 OD1        17.9100  -32.7000  -37.7700 O.co2     2 ASP3        0.0000 
     30 OD1        16.7100  -32.3700  -36.9300 O.co2     2 ASP3        0.0000 
     31 OD1        15.5200  -32.0400  -36.0900 O.co2     2 ASP3        0.0000 
     32 OD1        18.5000  -30.3500  -40.5300 O.co2     2 ASP3        0.0000 
     33 OD1        17.9300  -30.7200  -38.5200 O.co2     2 ASP3        0.0000 
     34 OD1        17.3600  -31.0800  -36.5100 O.co2     2 ASP3        0.0000 
     35 OD1        16.1600  -30.7500  -35.6700 O.co2     2 ASP3        0.0000 
     36 NZ         19.6900  -30.6800  -41.3800 N.4       3 LYS4        0.0000 
     37 NZ         19.0600  -29.9900  -42.5500 N.4       3 LYS4        0.0000 
     38 NZ         19.8800  -33.8700  -31.8300 N.4       3 LYS4        0.0000 
     39 NZ         18.6800  -33.5400  -30.9900 N.4       3 LYS4        0.0000 
     40 NZ         19.1400  -29.0600  -40.1200 N.4       3 LYS4        0.0000 
     41 CA         17.1200  -33.8400  -43.8000 C.3       4 GLY6        0.0000 
     42 CA         17.2400  -35.9700  -37.4400 C.3       4 GLY6        0.0000 
     43 CA         16.6100  -35.2700  -38.6100 C.3       4 GLY6        0.0000 
     44 CA         16.6700  -36.3400  -35.4300 C.3       4 GLY6        0.0000 
     45 CA         16.0400  -35.6400  -36.5900 C.3       4 GLY6        0.0000 
     46 CA         19.6500  -34.6500  -39.8700 C.3       4 GLY6        0.0000 
     47 CA         19.0200  -33.9500  -41.0400 C.3       4 GLY6        0.0000 
     48 CA         19.0900  -35.0200  -37.8600 C.3       4 GLY6        0.0000 
     49 CA         18.4600  -34.3200  -39.0300 C.3       4 GLY6        0.0000 
     50 CA         16.5700  -32.2300  -42.5400 C.3       4 GLY6        0.0000 
     51 CA         18.5200  -35.3800  -35.8500 C.3       4 GLY6        0.0000 
     52 CA         17.2600  -33.9900  -38.1900 C.3       4 GLY6        0.0000 
     53 CA         17.9500  -35.7500  -33.8400 C.3       4 GLY6        0.0000 
     54 CA         17.3200  -35.0500  -35.0100 C.3       4 GLY6        0.0000 
     55 CA         19.1100  -33.0300  -38.6100 C.3       4 GLY6        0.0000 
     56 CA         18.5400  -33.4000  -36.6000 C.3       4 GLY6        0.0000 
     57 CA         17.3400  -33.0700  -35.7600 C.3       4 GLY6        0.0000 
     58 CA         15.6400  -34.1700  -29.7300 C.3       4 GLY6        0.0000 
     59 CA         20.3200  -31.3800  -40.2100 C.3       4 GLY6        0.0000 
     60 CA         19.7500  -31.7500  -38.2000 C.3       4 GLY6        0.0000 
     61 CA         19.1200  -31.0500  -39.3600 C.3       4 GLY6        0.0000 
     62 CA         18.5600  -31.4100  -37.3500 C.3       4 GLY6        0.0000 
     63 CA         18.6200  -32.4800  -34.1700 C.3       4 GLY6        0.0000 
     64 CA         17.9900  -31.7800  -35.3400 C.3       4 GLY6        0.0000 
     65 CA         19.2700  -31.1900  -33.7600 C.3       4 GLY6        0.0000 
     66 CA         18.0100  -29.8000  -36.0900 C.3       4 GLY6        0.0000 
     67 CA         18.7000  -31.5600  -31.7400 C.3       4 GLY6        0.0000 
     68 CA         17.5000  -31.2300  -30.9000 C.3       4 GLY6        0.0000 
     69 DU         17.8900  -34.6800  -37.0200 H         5 CUB7        0.0000 
     70 DU         16.1300  -34.7200  -34.1700 H         5 CUB7        0.0000 
     71 DU         15.5600  -35.0900  -32.1600 H         5 CUB7        0.0000 
     72 DU         14.9300  -34.3900  -33.3200 H         5 CUB7        0.0000 
     73 DU         16.1400  -32.7400  -34.9200 H         5 CUB7        0.0000 
     74 DU         16.2100  -33.8000  -31.7400 H         5 CUB7        0.0000 
     75 DU         14.9500  -32.4100  -34.0800 H         5 CUB7        0.0000 
     76 DU         18.0500  -32.8400  -32.1600 H         5 CUB7        0.0000 
     77 DU         17.4200  -32.1500  -33.3300 H         5 CUB7        0.0000 
     78 DU         16.7900  -31.4500  -34.5000 H         5 CUB7        0.0000 
     79 DU         17.4900  -33.2100  -30.1500 H         5 CUB7        0.0000 
     80 DU         16.8600  -32.5100  -31.3200 H         5 CUB7        0.0000 
     81 DU         15.6000  -31.1200  -33.6600 H         5 CUB7        0.0000 
@<TRIPOS>BOND
@<TRIPOS>SUBSTRUCTURE
     1 ALA2        1 GROUP   
     2 ASP3       26 GROUP   
     3 LYS4       36 GROUP   
     4 GLY6       41 GROUP   
     5 CUB7       69 GROUP   
@<TRIPOS>SET

