#    Name: 6slt_1_AMP
#    Modification time : Fri May 22 19:26:28 2020

@<TRIPOS>MOLECULE
6slt_1_AMP
   23    25     1     0     1
SMALL
NO_CHARGES


@<TRIPOS>ATOM
      1 P          12.9900  -33.0760  -33.1700 P.3       1 AMP609      0.0000 
      2 O1P        12.7430  -31.8250  -34.0220 O.co2     1 AMP609      0.0000 
      3 O2P        13.4650  -32.7230  -31.7670 O.co2     1 AMP609      0.0000 
      4 O3P        11.8230  -34.0630  -33.1790 O.co2     1 AMP609      0.0000 
      5 O5'        14.2150  -33.8950  -33.8620 O.3       1 AMP609      0.0000 
      6 C5'        14.5810  -35.2190  -33.3670 C.3       1 AMP609      0.0000 
      7 C4'        16.0750  -35.4150  -33.5040 C.3       1 AMP609      0.0000 
      8 O4'        16.4310  -35.4580  -34.9130 O.3       1 AMP609      0.0000 
      9 C3'        16.9760  -34.3210  -32.8960 C.3       1 AMP609      0.0000 
     10 O3'        18.1220  -34.8720  -32.2610 O.3       1 AMP609      0.0000 
     11 C2'        17.3820  -33.4920  -34.1200 C.3       1 AMP609      0.0000 
     12 O2'        18.5660  -32.7330  -33.9900 O.3       1 AMP609      0.0000 
     13 C1'        17.5390  -34.6130  -35.1360 C.3       1 AMP609      0.0000 
     14 N9         17.5240  -34.1500  -36.5150 N.pl3     1 AMP609      0.0000 
     15 C8         16.4540  -33.6540  -37.2160 C.2       1 AMP609      0.0000 
     16 N7         16.7490  -33.2940  -38.4400 N.2       1 AMP609      0.0000 
     17 C5         18.1030  -33.5690  -38.5520 C.ar      1 AMP609      0.0000 
     18 C6         19.0150  -33.4080  -39.6120 C.ar      1 AMP609      0.0000 
     19 N6         18.7040  -32.9070  -40.8020 N.pl3     1 AMP609      0.0000 
     20 N1         20.2920  -33.7830  -39.3880 N.ar      1 AMP609      0.0000 
     21 C2         20.6110  -34.2800  -38.1840 C.ar      1 AMP609      0.0000 
     22 N3         19.8440  -34.4700  -37.1150 N.ar      1 AMP609      0.0000 
     23 C4         18.5870  -34.0920  -37.3690 C.ar      1 AMP609      0.0000 
@<TRIPOS>BOND
     1    1    2 ar   
     2    1    3 ar   
     3    1    4 ar   
     4    1    5 1    
     5    5    6 1    
     6    6    7 1    
     7    7    8 1    
     8    7    9 1    
     9    8   13 1    
    10    9   10 1    
    11    9   11 1    
    12   11   12 1    
    13   11   13 1    
    14   13   14 1    
    15   14   15 1    
    16   14   23 1    
    17   15   16 2    
    18   16   17 1    
    19   17   18 ar   
    20   17   23 ar   
    21   18   19 1    
    22   18   20 ar   
    23   20   21 ar   
    24   21   22 ar   
    25   22   23 ar   
@<TRIPOS>SUBSTRUCTURE
     1 AMP609      1 GROUP   
@<TRIPOS>SET
ATOM$ORANGE STATIC     ATOMS   COLORGROUP SYSTEM 
20 6 6 7 7 9 9 11 11 13 13 15 15 17 17 18 18 21 \
21 23 23 

