#    Name: 6slt_2_FAD
#    Modification time : Fri May 22 19:26:32 2020

@<TRIPOS>MOLECULE
6slt_2_FAD
   53    58     1     0     1
SMALL
NO_CHARGES


@<TRIPOS>ATOM
      1 PA        -20.3320  -90.5630  -29.0050 P.3       1 FAD603      0.0000 
      2 O1A       -19.3550  -91.3850  -28.2100 O.co2     1 FAD603      0.0000 
      3 O2A       -20.7020  -90.8920  -30.4240 O.co2     1 FAD603      0.0000 
      4 O5B       -21.6630  -90.4430  -28.1250 O.3       1 FAD603      0.0000 
      5 C5B       -22.9610  -90.5730  -28.7510 C.3       1 FAD603      0.0000 
      6 C4B       -23.9800  -90.6980  -27.6520 C.3       1 FAD603      0.0000 
      7 O4B       -25.2880  -90.3290  -28.1620 O.3       1 FAD603      0.0000 
      8 C3B       -24.1260  -92.1110  -27.0650 C.3       1 FAD603      0.0000 
      9 O3B       -24.0580  -92.0020  -25.6480 O.3       1 FAD603      0.0000 
     10 C2B       -25.4680  -92.5620  -27.6580 C.3       1 FAD603      0.0000 
     11 O2B       -26.2040  -93.5030  -26.9170 O.3       1 FAD603      0.0000 
     12 C1B       -26.2040  -91.2400  -27.6170 C.3       1 FAD603      0.0000 
     13 N9A       -27.4090  -91.1860  -28.3580 N.pl3     1 FAD603      0.0000 
     14 C8A       -27.5720  -90.9880  -29.7030 C.2       1 FAD603      0.0000 
     15 N7A       -28.8360  -90.9510  -30.0530 N.2       1 FAD603      0.0000 
     16 C5A       -29.5320  -91.1270  -28.8610 C.ar      1 FAD603      0.0000 
     17 C6A       -30.9030  -91.1880  -28.5530 C.ar      1 FAD603      0.0000 
     18 N6A       -31.8620  -91.0580  -29.4550 N.pl3     1 FAD603      0.0000 
     19 N1A       -31.2510  -91.3610  -27.2590 N.ar      1 FAD603      0.0000 
     20 C2A       -30.2800  -91.4860  -26.3460 C.ar      1 FAD603      0.0000 
     21 N3A       -28.9620  -91.4600  -26.5130 N.ar      1 FAD603      0.0000 
     22 C4A       -28.6550  -91.2700  -27.8080 C.ar      1 FAD603      0.0000 
     23 N1         -9.9970  -87.9840  -29.0220 N.2       1 FAD603      0.0000 
     24 C2         -8.8300  -87.8820  -28.3480 C.2       1 FAD603      0.0000 
     25 O2         -8.6850  -87.0390  -27.4470 O.2       1 FAD603      0.0000 
     26 N3         -7.7880  -88.7480  -28.5930 N.am      1 FAD603      0.0000 
     27 C4         -7.8440  -89.7060  -29.5810 C.2       1 FAD603      0.0000 
     28 O4         -6.8900  -90.4580  -29.7540 O.2       1 FAD603      0.0000 
     29 C4X        -9.0380  -89.8000  -30.3360 C.2       1 FAD603      0.0000 
     30 N5         -9.1140  -90.7010  -31.2840 N.2       1 FAD603      0.0000 
     31 C5X       -10.2690  -90.7470  -32.0250 C.ar      1 FAD603      0.0000 
     32 C6        -10.3440  -91.6710  -33.0810 C.ar      1 FAD603      0.0000 
     33 C7        -11.4520  -91.7560  -33.8880 C.ar      1 FAD603      0.0000 
     34 C7M       -11.4830  -92.7660  -35.0040 C.3       1 FAD603      0.0000 
     35 C8        -12.5670  -90.9280  -33.6210 C.ar      1 FAD603      0.0000 
     36 C8M       -13.8250  -91.0210  -34.4440 C.3       1 FAD603      0.0000 
     37 C9        -12.5240  -90.0490  -32.5660 C.ar      1 FAD603      0.0000 
     38 C9A       -11.3750  -89.9110  -31.7670 C.ar      1 FAD603      0.0000 
     39 N10       -11.2750  -88.9820  -30.7270 N.pl3     1 FAD603      0.0000 
     40 C10       -10.0970  -88.8820  -29.9860 C.2       1 FAD603      0.0000 
     41 C1'       -12.4450  -88.1570  -30.3450 C.3       1 FAD603      0.0000 
     42 C2'       -13.1160  -88.7690  -29.0690 C.3       1 FAD603      0.0000 
     43 O2'       -13.2010  -90.1880  -29.2120 O.3       1 FAD603      0.0000 
     44 C3'       -14.5220  -88.2810  -28.7140 C.3       1 FAD603      0.0000 
     45 O3'       -14.4400  -86.8820  -28.6550 O.3       1 FAD603      0.0000 
     46 C4'       -15.1200  -88.8340  -27.4030 C.3       1 FAD603      0.0000 
     47 O4'       -14.4540  -90.0280  -26.9530 O.3       1 FAD603      0.0000 
     48 C5'       -16.6010  -89.1600  -27.4940 C.3       1 FAD603      0.0000 
     49 O5'       -17.3810  -88.2380  -28.3490 O.3       1 FAD603      0.0000 
     50 P         -18.9750  -88.0200  -28.0930 P.3       1 FAD603      0.0000 
     51 O1P       -19.1850  -88.5030  -26.6830 O.co2     1 FAD603      0.0000 
     52 O2P       -19.3790  -86.6680  -28.6120 O.co2     1 FAD603      0.0000 
     53 O3P       -19.7770  -89.0410  -29.0580 O.3       1 FAD603      0.0000 
@<TRIPOS>BOND
     1    1    2 ar   
     2    1    3 ar   
     3    1    4 1    
     4    1   53 1    
     5    4    5 1    
     6    5    6 1    
     7    6    7 1    
     8    6    8 1    
     9    7   12 1    
    10    8    9 1    
    11    8   10 1    
    12   10   11 1    
    13   10   12 1    
    14   12   13 1    
    15   13   14 1    
    16   13   22 1    
    17   14   15 2    
    18   15   16 1    
    19   16   17 ar   
    20   16   22 ar   
    21   17   18 1    
    22   17   19 ar   
    23   19   20 ar   
    24   20   21 ar   
    25   21   22 ar   
    26   23   24 1    
    27   23   40 2    
    28   24   25 2    
    29   24   26 am   
    30   26   27 am   
    31   27   28 2    
    32   27   29 1    
    33   29   30 2    
    34   29   40 1    
    35   30   31 1    
    36   31   32 ar   
    37   31   38 ar   
    38   32   33 ar   
    39   33   34 1    
    40   33   35 ar   
    41   35   36 1    
    42   35   37 ar   
    43   37   38 ar   
    44   38   39 1    
    45   39   40 1    
    46   39   41 1    
    47   41   42 1    
    48   42   43 1    
    49   42   44 1    
    50   44   45 1    
    51   44   46 1    
    52   46   47 1    
    53   46   48 1    
    54   48   49 1    
    55   49   50 1    
    56   50   51 ar   
    57   50   52 ar   
    58   50   53 1    
@<TRIPOS>SUBSTRUCTURE
     1 FAD603      1 GROUP   
@<TRIPOS>SET
ATOM$ORANGE STATIC     ATOMS   COLORGROUP SYSTEM 
54 5 5 6 6 8 8 10 10 12 12 14 14 16 16 17 17 20 \
20 22 22 24 24 27 27 29 29 31 31 32 32 33 33 34 34 35 \
35 36 36 37 37 38 38 40 40 41 41 42 42 44 44 46 46 48 \
48 

