#    Name: 6gi9_1_FMN_CAVITY_N1_8
#    Modification time : Fri May 22 19:31:24 2020

@<TRIPOS>MOLECULE
6gi9_1_FMN_CAVITY_N1_8
   72     0     6     0     0
SMALL
NO_CHARGES


@<TRIPOS>ATOM
      1 OG          2.1900  -12.0800  -23.0000 O.3       1 SER1        0.0000 
      2 OG          4.1600  -11.3200  -23.2300 O.3       1 SER1        0.0000 
      3 OG          6.1300  -10.5700  -23.4600 O.3       1 SER1        0.0000 
      4 OG          7.1800  -10.0400  -22.5300 O.3       1 SER1        0.0000 
      5 OG          7.0000   -7.0400  -24.0200 O.3       1 SER1        0.0000 
      6 OG          7.5500   -8.4300  -23.8500 O.3       1 SER1        0.0000 
      7 OG          8.1000   -9.8100  -23.6900 O.3       1 SER1        0.0000 
      8 OG          7.6800   -8.1300  -21.7600 O.3       1 SER1        0.0000 
      9 OG          8.6000   -7.9000  -22.9200 O.3       1 SER1        0.0000 
     10 OG          9.1500   -9.2800  -22.7500 O.3       1 SER1        0.0000 
     11 O           3.6100   -9.9400  -23.3900 O.2       2 ALA2        0.0000 
     12 N           4.6600   -9.4100  -22.4600 N.am      2 ALA2        0.0000 
     13 O           5.5800   -9.1800  -23.6200 O.2       2 ALA2        0.0000 
     14 O           2.2100  -12.7900  -15.3900 O.2       2 ALA2        0.0000 
     15 O           3.1300  -12.5600  -16.5500 O.2       2 ALA2        0.0000 
     16 O           3.6800  -13.9500  -16.3800 O.2       2 ALA2        0.0000 
     17 N           3.8700   -9.3400  -19.2000 N.am      2 ALA2        0.0000 
     18 N           5.3400  -10.4900  -20.2000 N.am      2 ALA2        0.0000 
     19 N           5.7100   -8.8800  -21.5300 N.am      2 ALA2        0.0000 
     20 N           6.0800   -7.2700  -22.8500 N.am      2 ALA2        0.0000 
     21 N           6.6300   -8.6500  -22.6900 N.am      2 ALA2        0.0000 
     22 O           3.6300  -10.6500  -15.7800 O.2       2 ALA2        0.0000 
     23 O           4.1800  -12.0400  -15.6200 O.2       2 ALA2        0.0000 
     24 N           4.9200   -8.8100  -18.2700 N.am      2 ALA2        0.0000 
     25 N           5.8400   -8.5800  -19.4300 N.am      2 ALA2        0.0000 
     26 N           6.7600   -8.3500  -20.5900 N.am      2 ALA2        0.0000 
     27 N           7.1300   -6.7400  -21.9200 N.am      2 ALA2        0.0000 
     28 N           8.0500   -6.5100  -23.0800 N.am      2 ALA2        0.0000 
     29 OD1         2.0800  -13.0900  -17.4800 O.co2     3 ASP3        0.0000 
     30 OD1         2.6300  -14.4800  -17.3200 O.co2     3 ASP3        0.0000 
     31 OD1         4.5500  -10.4200  -16.9400 O.co2     3 ASP3        0.0000 
     32 OD1         5.4700  -10.2000  -18.1000 O.co2     3 ASP3        0.0000 
     33 OD1         6.3900   -9.9700  -19.2700 O.co2     3 ASP3        0.0000 
     34 CZ          0.2300  -12.8300  -22.7700 C.ar      4 PHE5        0.0000 
     35 CZ          1.1500  -12.6100  -23.9400 C.ar      4 PHE5        0.0000 
     36 CZ          8.4700   -8.2000  -25.0200 C.ar      4 PHE5        0.0000 
     37 CZ          6.9400  -11.3500  -19.1000 C.ar      4 PHE5        0.0000 
     38 CZ          7.4900  -12.7400  -18.9400 C.ar      4 PHE5        0.0000 
     39 CZ          7.3100   -9.7400  -20.4300 C.ar      4 PHE5        0.0000 
     40 CA          0.5900  -11.2200  -24.1000 C.3       5 GLY6        0.0000 
     41 CA          0.7200  -10.9200  -22.0000 C.3       5 GLY6        0.0000 
     42 CA          1.2700  -12.3100  -21.8400 C.3       5 GLY6        0.0000 
     43 CA          1.8300  -13.6900  -21.6700 C.3       5 GLY6        0.0000 
     44 CA          1.6400  -10.6900  -23.1700 C.3       5 GLY6        0.0000 
     45 CA          1.9500  -13.3900  -19.5800 C.3       5 GLY6        0.0000 
     46 CA          2.3200  -11.7800  -20.9100 C.3       5 GLY6        0.0000 
     47 CA          2.8700  -13.1600  -20.7400 C.3       5 GLY6        0.0000 
     48 CA          2.6900  -10.1600  -22.2300 C.3       5 GLY6        0.0000 
     49 CA          3.2400  -11.5500  -22.0700 C.3       5 GLY6        0.0000 
     50 CA          3.7900  -12.9400  -21.9000 C.3       5 GLY6        0.0000 
     51 CA          2.4500  -11.4800  -18.8100 C.3       5 GLY6        0.0000 
     52 CA          3.0000  -12.8600  -18.6500 C.3       5 GLY6        0.0000 
     53 CA          3.3700  -11.2500  -19.9700 C.3       5 GLY6        0.0000 
     54 CA          3.9200  -12.6400  -19.8100 C.3       5 GLY6        0.0000 
     55 CA          3.7400   -9.6400  -21.3000 C.3       5 GLY6        0.0000 
     56 CA          4.2900  -11.0200  -21.1300 C.3       5 GLY6        0.0000 
     57 CA          4.8400  -12.4100  -20.9700 C.3       5 GLY6        0.0000 
     58 CA          2.5800  -11.1800  -16.7100 C.3       5 GLY6        0.0000 
     59 CA          2.9500   -9.5700  -18.0400 C.3       5 GLY6        0.0000 
     60 CA          3.5000  -10.9500  -17.8800 C.3       5 GLY6        0.0000 
     61 CA          4.6000  -13.7200  -17.5500 C.3       5 GLY6        0.0000 
     62 CA          5.5200  -13.4900  -18.7100 C.3       5 GLY6        0.0000 
     63 CA          6.4400  -13.2700  -19.8700 C.3       5 GLY6        0.0000 
     64 CA          4.7300  -13.4200  -15.4500 C.3       5 GLY6        0.0000 
     65 DU          5.2100  -10.7900  -22.3000 H         6 CUB7        0.0000 
     66 DU          4.0500  -12.3400  -17.7100 H         6 CUB7        0.0000 
     67 DU          4.4200  -10.7200  -19.0400 H         6 CUB7        0.0000 
     68 DU          4.9700  -12.1100  -18.8700 H         6 CUB7        0.0000 
     69 DU          5.8900  -11.8800  -20.0400 H         6 CUB7        0.0000 
     70 DU          6.2600  -10.2700  -21.3600 H         6 CUB7        0.0000 
     71 DU          5.1000  -11.8100  -16.7800 H         6 CUB7        0.0000 
     72 DU          6.0200  -11.5800  -17.9400 H         6 CUB7        0.0000 
@<TRIPOS>BOND
@<TRIPOS>SUBSTRUCTURE
     1 SER1        1 GROUP   
     2 ALA2       11 GROUP   
     3 ASP3       29 GROUP   
     4 PHE5       34 GROUP   
     5 GLY6       40 GROUP   
     6 CUB7       65 GROUP   
@<TRIPOS>SET

