#    Name: 6gi9_1_FMN
#    Modification time : Fri May 22 19:31:22 2020

@<TRIPOS>MOLECULE
6gi9_1_FMN
   50    52     1     0     1
SMALL
NO_CHARGES


@<TRIPOS>ATOM
      1 N1          7.3380   -8.3060  -20.6510 N.2       1 FMN1401     0.0000 
      2 C2          8.0380   -7.1750  -20.8880 C.2       1 FMN1401     0.0000 
      3 O2          8.9530   -6.7970  -20.1510 O.2       1 FMN1401     0.0000 
      4 N3          7.7060   -6.3810  -21.9570 N.am      1 FMN1401     0.0000 
      5 C4          6.7000   -6.7570  -22.8170 C.2       1 FMN1401     0.0000 
      6 O4          6.4450   -6.0000  -23.7770 O.2       1 FMN1401     0.0000 
      7 C4A         6.0280   -7.9410  -22.6100 C.2       1 FMN1401     0.0000 
      8 N5          5.0380   -8.4090  -23.4850 N.2       1 FMN1401     0.0000 
      9 C5A         4.2730   -9.4870  -23.1510 C.ar      1 FMN1401     0.0000 
     10 C6          3.2310   -9.8930  -23.9690 C.ar      1 FMN1401     0.0000 
     11 C7          2.4690  -11.0090  -23.6770 C.ar      1 FMN1401     0.0000 
     12 C7M         1.3420  -11.3780  -24.6020 C.3       1 FMN1401     0.0000 
     13 C8          2.7590  -11.7310  -22.5350 C.ar      1 FMN1401     0.0000 
     14 C8M         1.9770  -12.9310  -22.1620 C.3       1 FMN1401     0.0000 
     15 C9          3.7890  -11.3300  -21.7100 C.ar      1 FMN1401     0.0000 
     16 C9A         4.5530  -10.2090  -21.9960 C.ar      1 FMN1401     0.0000 
     17 N10         5.6280   -9.8510  -21.1960 N.pl3     1 FMN1401     0.0000 
     18 C10         6.3170   -8.6910  -21.4750 C.2       1 FMN1401     0.0000 
     19 C1'         5.8740  -10.5290  -19.9030 C.3       1 FMN1401     0.0000 
     20 C2'         4.8340   -9.9340  -18.9210 C.3       1 FMN1401     0.0000 
     21 O2'         5.1130   -8.5500  -18.6270 O.3       1 FMN1401     0.0000 
     22 C3'         4.7650  -10.7100  -17.5670 C.3       1 FMN1401     0.0000 
     23 O3'         5.9990  -10.5260  -16.9080 O.3       1 FMN1401     0.0000 
     24 C4'         4.4330  -12.1710  -17.8020 C.3       1 FMN1401     0.0000 
     25 O4'         3.2000  -12.0920  -18.5520 O.3       1 FMN1401     0.0000 
     26 C5'         4.2890  -13.1670  -16.6630 C.3       1 FMN1401     0.0000 
     27 O5'         3.2990  -12.7610  -15.8050 O.3       1 FMN1401     0.0000 
     28 P           1.7710  -13.2880  -15.7150 P.3       1 FMN1401     0.0000 
     29 O1P         1.7770  -14.7450  -15.2280 O.co2     1 FMN1401     0.0000 
     30 O2P         1.1930  -13.1650  -17.1120 O.co2     1 FMN1401     0.0000 
     31 O3P         1.1240  -12.3550  -14.7390 O.co2     1 FMN1401     0.0000 
     32 HN3         8.2170   -5.4900  -22.1180 H         1 FMN1401     0.0000 
     33 H6          3.0050   -9.3170  -24.8670 H         1 FMN1401     0.0000 
     34 HM71        1.3580  -12.4530  -24.7830 H         1 FMN1401     0.0000 
     35 HM72        0.3920  -11.1010  -24.1460 H         1 FMN1401     0.0000 
     36 HM73        1.4600  -10.8490  -25.5470 H         1 FMN1401     0.0000 
     37 HM81        2.3220  -13.3040  -21.1980 H         1 FMN1401     0.0000 
     38 HM82        2.1110  -13.7020  -22.9200 H         1 FMN1401     0.0000 
     39 HM83        0.9210  -12.6690  -22.0930 H         1 FMN1401     0.0000 
     40 H9          4.0060  -11.9080  -20.8120 H         1 FMN1401     0.0000 
     41 H1'1        6.8900  -10.3430  -19.5540 H         1 FMN1401     0.0000 
     42 H1'2        5.7450  -11.6070  -19.9990 H         1 FMN1401     0.0000 
     43 H2'         3.8750  -10.0200  -19.4320 H         1 FMN1401     0.0000 
     44 HO2'        5.3050   -8.4520  -17.6710 H         1 FMN1401     0.0000 
     45 H3'         3.9690  -10.3250  -16.9300 H         1 FMN1401     0.0000 
     46 HO3'        6.2710  -11.3660  -16.4820 H         1 FMN1401     0.0000 
     47 H4'         5.3120  -12.6100  -18.2720 H         1 FMN1401     0.0000 
     48 HO4'        2.9710  -12.9810  -18.8970 H         1 FMN1401     0.0000 
     49 H5'1        4.0480  -14.1510  -17.0640 H         1 FMN1401     0.0000 
     50 H5'2        5.2330  -13.2470  -16.1230 H         1 FMN1401     0.0000 
@<TRIPOS>BOND
     1    1    2 1    
     2    1   18 2    
     3    2    3 2    
     4    2    4 am   
     5    4    5 am   
     6    4   32 1    
     7    5    6 2    
     8    5    7 1    
     9    7    8 2    
    10    7   18 1    
    11    8    9 1    
    12    9   10 ar   
    13    9   16 ar   
    14   10   11 ar   
    15   10   33 1    
    16   11   12 1    
    17   11   13 ar   
    18   12   34 1    
    19   12   35 1    
    20   12   36 1    
    21   13   14 1    
    22   13   15 ar   
    23   14   37 1    
    24   14   38 1    
    25   14   39 1    
    26   15   16 ar   
    27   15   40 1    
    28   16   17 1    
    29   17   18 1    
    30   17   19 1    
    31   19   20 1    
    32   19   41 1    
    33   19   42 1    
    34   20   21 1    
    35   20   22 1    
    36   20   43 1    
    37   21   44 1    
    38   22   23 1    
    39   22   24 1    
    40   22   45 1    
    41   23   46 1    
    42   24   25 1    
    43   24   26 1    
    44   24   47 1    
    45   25   48 1    
    46   26   27 1    
    47   26   49 1    
    48   26   50 1    
    49   27   28 1    
    50   28   29 ar   
    51   28   30 ar   
    52   28   31 ar   
@<TRIPOS>SUBSTRUCTURE
     1 FMN1401     1 GROUP   
@<TRIPOS>SET
ATOM$ORANGE STATIC     ATOMS   COLORGROUP SYSTEM 
34 2 2 5 5 7 7 9 9 10 10 11 11 12 12 13 13 14 \
14 15 15 16 16 18 18 19 19 20 20 22 22 24 24 26 26 

