#    Name: 5y4q_4_S4M
#    Modification time : Fri May 22 19:26:03 2020

@<TRIPOS>MOLECULE
5y4q_4_S4M
   24    26     1     0     0
SMALL
NO_CHARGES


@<TRIPOS>ATOM
      1 CA         10.4800   11.8500   39.0330 C.3       1 S4M301      0.0000 
      2 N           9.8900   11.5230   37.7110 N.3       1 S4M301      0.0000 
      3 CB         10.9060   10.5480   39.6710 C.3       1 S4M301      0.0000 
      4 CG         12.3450   10.1610   39.3530 C.3       1 S4M301      0.0000 
      5 SD         12.5320    9.1550   37.8350 S.3       1 S4M301      0.0000 
      6 CE         11.4920    7.7380   38.3340 C.3       1 S4M301      0.0000 
      7 C5'        14.1560    8.4500   38.3040 C.3       1 S4M301      0.0000 
      8 C4'        14.6330    7.4990   37.2090 C.3       1 S4M301      0.0000 
      9 O4'        16.0120    7.6390   36.8760 O.3       1 S4M301      0.0000 
     10 C1'        16.4410    6.3420   36.4540 C.3       1 S4M301      0.0000 
     11 C2'        15.8220    5.4330   37.4820 C.3       1 S4M301      0.0000 
     12 O2'        15.7490    4.0950   37.0200 O.3       1 S4M301      0.0000 
     13 C3'        14.4670    6.0740   37.6670 C.3       1 S4M301      0.0000 
     14 O3'        13.4620    5.5350   36.8280 O.3       1 S4M301      0.0000 
     15 N9         17.8930    6.2570   36.3860 N.pl3     1 S4M301      0.0000 
     16 C8         18.7630    6.1690   37.4380 C.ar      1 S4M301      0.0000 
     17 N7         20.0130    6.1080   37.0290 N.ar      1 S4M301      0.0000 
     18 C5         19.9440    6.1610   35.6620 C.ar      1 S4M301      0.0000 
     19 C6         20.9340    6.1350   34.6920 C.ar      1 S4M301      0.0000 
     20 N6         22.2830    6.0420   35.0230 N.pl3     1 S4M301      0.0000 
     21 C4         18.6340    6.2550   35.2410 C.ar      1 S4M301      0.0000 
     22 N3         18.2080    6.3190   33.9750 N.ar      1 S4M301      0.0000 
     23 C2         19.2460    6.2900   33.1330 C.ar      1 S4M301      0.0000 
     24 N1         20.5560    6.2050   33.4070 N.ar      1 S4M301      0.0000 
@<TRIPOS>BOND
     1    1    2 1    
     2    1    3 1    
     3    3    4 1    
     4    4    5 1    
     5    5    6 1    
     6    5    7 1    
     7    7    8 1    
     8    8    9 1    
     9    8   13 1    
    10    9   10 1    
    11   10   11 1    
    12   10   15 1    
    13   11   12 1    
    14   11   13 1    
    15   13   14 1    
    16   15   16 ar   
    17   15   21 ar   
    18   16   17 ar   
    19   17   18 ar   
    20   18   19 ar   
    21   18   21 ar   
    22   19   20 1    
    23   19   24 ar   
    24   21   22 ar   
    25   22   23 ar   
    26   23   24 ar   
@<TRIPOS>SUBSTRUCTURE
     1 S4M301      1 GROUP   
@<TRIPOS>SET

