#    Name: 5y4q_3_S4M
#    Modification time : Fri May 22 19:26:00 2020

@<TRIPOS>MOLECULE
5y4q_3_S4M
   24    26     1     0     0
SMALL
NO_CHARGES


@<TRIPOS>ATOM
      1 CA          5.5880   31.3930   64.9920 C.3       1 S4M301      0.0000 
      2 N           6.2210   32.4680   65.7940 N.3       1 S4M301      0.0000 
      3 CB          4.8640   30.4240   65.9050 C.3       1 S4M301      0.0000 
      4 CG          3.4530   30.8520   66.2800 C.3       1 S4M301      0.0000 
      5 SD          3.4020   31.6540   67.9260 S.3       1 S4M301      0.0000 
      6 CE          4.2370   30.3330   68.8610 C.3       1 S4M301      0.0000 
      7 C5'         1.6980   31.2300   68.4120 C.3       1 S4M301      0.0000 
      8 C4'         1.3250   32.0560   69.6340 C.3       1 S4M301      0.0000 
      9 O4'         0.0140   32.6220   69.5290 O.3       1 S4M301      0.0000 
     10 C1'        -0.5420   32.6320   70.8490 C.3       1 S4M301      0.0000 
     11 C2'        -0.0430   31.3620   71.5020 C.3       1 S4M301      0.0000 
     12 O2'         0.0610   31.5280   72.9050 O.3       1 S4M301      0.0000 
     13 C3'         1.3170   31.1700   70.8570 C.3       1 S4M301      0.0000 
     14 O3'         2.4050   31.5630   71.6960 O.3       1 S4M301      0.0000 
     15 N9         -2.0040   32.8120   70.8500 N.pl3     1 S4M301      0.0000 
     16 C8         -2.9810   31.9110   70.5250 C.ar      1 S4M301      0.0000 
     17 N7         -4.1870   32.4370   70.6460 N.ar      1 S4M301      0.0000 
     18 C5         -3.9830   33.7270   71.0690 C.ar      1 S4M301      0.0000 
     19 C6         -4.8600   34.7660   71.3690 C.ar      1 S4M301      0.0000 
     20 N6         -6.2480   34.6350   71.2720 N.pl3     1 S4M301      0.0000 
     21 C4         -2.6300   33.9760   71.1970 C.ar      1 S4M301      0.0000 
     22 N3         -2.0680   35.1220   71.5810 N.ar      1 S4M301      0.0000 
     23 C2         -3.0030   36.0400   71.8360 C.ar      1 S4M301      0.0000 
     24 N1         -4.3310   35.9320   71.7600 N.ar      1 S4M301      0.0000 
@<TRIPOS>BOND
     1    1    2 1    
     2    1    3 1    
     3    3    4 1    
     4    4    5 1    
     5    5    6 1    
     6    5    7 1    
     7    7    8 1    
     8    8    9 1    
     9    8   13 1    
    10    9   10 1    
    11   10   11 1    
    12   10   15 1    
    13   11   12 1    
    14   11   13 1    
    15   13   14 1    
    16   15   16 ar   
    17   15   21 ar   
    18   16   17 ar   
    19   17   18 ar   
    20   18   19 ar   
    21   18   21 ar   
    22   19   20 1    
    23   19   24 ar   
    24   21   22 ar   
    25   22   23 ar   
    26   23   24 ar   
@<TRIPOS>SUBSTRUCTURE
     1 S4M301      1 GROUP   
@<TRIPOS>SET

