#    Name: 6ok2_3_ADP
#    Modification time : Fri May 22 19:33:53 2020

@<TRIPOS>MOLECULE
6ok2_3_ADP
   27    29     1     0     1
SMALL
NO_CHARGES


@<TRIPOS>ATOM
      1 PB        -23.8440  -22.3950  -64.9790 P.3       1 ADP401      0.0000 
      2 O1B       -22.9540  -23.4630  -65.6350 O.co2     1 ADP401      0.0000 
      3 O2B       -22.9690  -21.2890  -64.3360 O.co2     1 ADP401      0.0000 
      4 O3B       -24.7020  -23.0190  -63.9090 O.co2     1 ADP401      0.0000 
      5 PA        -26.0300  -20.6350  -65.7210 P.3       1 ADP401      0.0000 
      6 O1A       -25.3890  -19.3260  -65.2930 O.co2     1 ADP401      0.0000 
      7 O2A       -26.8960  -21.1920  -64.5790 O.co2     1 ADP401      0.0000 
      8 O3A       -24.8470  -21.7360  -66.1060 O.3       1 ADP401      0.0000 
      9 O5'       -26.9950  -20.3610  -67.0450 O.3       1 ADP401      0.0000 
     10 C5'       -26.3820  -20.1470  -68.3310 C.3       1 ADP401      0.0000 
     11 C4'       -27.4800  -19.9970  -69.3850 C.3       1 ADP401      0.0000 
     12 O4'       -28.2830  -21.0550  -69.3710 O.3       1 ADP401      0.0000 
     13 C3'       -28.3840  -18.7710  -69.0530 C.3       1 ADP401      0.0000 
     14 O3'       -28.7410  -18.1240  -70.1960 O.3       1 ADP401      0.0000 
     15 C2'       -29.6310  -19.3920  -68.3800 C.3       1 ADP401      0.0000 
     16 O2'       -30.7630  -18.5430  -68.5750 O.3       1 ADP401      0.0000 
     17 C1'       -29.7860  -20.5420  -69.0260 C.3       1 ADP401      0.0000 
     18 N9        -30.4460  -21.5240  -68.2210 N.pl3     1 ADP401      0.0000 
     19 C8        -30.1560  -21.8380  -66.9570 C.2       1 ADP401      0.0000 
     20 N7        -30.9900  -22.8090  -66.5670 N.2       1 ADP401      0.0000 
     21 C5        -31.8010  -23.1000  -67.6020 C.ar      1 ADP401      0.0000 
     22 C6        -32.8380  -24.0140  -67.7490 C.ar      1 ADP401      0.0000 
     23 N6        -33.4120  -24.9920  -66.8120 N.pl3     1 ADP401      0.0000 
     24 N1        -33.4860  -24.1010  -68.8950 N.ar      1 ADP401      0.0000 
     25 C2        -33.1380  -23.2890  -69.9420 C.ar      1 ADP401      0.0000 
     26 N3        -32.1330  -22.4020  -69.8000 N.ar      1 ADP401      0.0000 
     27 C4        -31.4640  -22.3110  -68.6210 C.ar      1 ADP401      0.0000 
@<TRIPOS>BOND
     1    1    2 ar   
     2    1    3 ar   
     3    1    4 ar   
     4    1    8 1    
     5    5    6 ar   
     6    5    7 ar   
     7    5    8 1    
     8    5    9 1    
     9    9   10 1    
    10   10   11 1    
    11   11   12 1    
    12   11   13 1    
    13   12   17 1    
    14   13   14 1    
    15   13   15 1    
    16   15   16 1    
    17   15   17 1    
    18   17   18 1    
    19   18   19 1    
    20   18   27 1    
    21   19   20 2    
    22   20   21 1    
    23   21   22 ar   
    24   21   27 ar   
    25   22   23 1    
    26   22   24 ar   
    27   24   25 ar   
    28   25   26 ar   
    29   26   27 ar   
@<TRIPOS>SUBSTRUCTURE
     1 ADP401      1 GROUP   
@<TRIPOS>SET
ATOM$ORANGE STATIC     ATOMS   COLORGROUP SYSTEM 
20 10 10 11 11 13 13 15 15 17 17 19 19 21 21 22 22 25 \
25 27 27 

