#    Name: 6ok2_2_ADP
#    Modification time : Fri May 22 19:33:46 2020

@<TRIPOS>MOLECULE
6ok2_2_ADP
   27    29     1     0     1
SMALL
NO_CHARGES


@<TRIPOS>ATOM
      1 PB         40.4700  -19.1900  -72.9640 P.3       1 ADP401      0.0000 
      2 O1B        40.6530  -20.3190  -73.9480 O.co2     1 ADP401      0.0000 
      3 O2B        40.5390  -19.7620  -71.5410 O.co2     1 ADP401      0.0000 
      4 O3B        39.0970  -18.5030  -73.1840 O.co2     1 ADP401      0.0000 
      5 PA         42.0230  -17.4270  -74.6720 P.3       1 ADP401      0.0000 
      6 O1A        41.1770  -18.1300  -75.7440 O.co2     1 ADP401      0.0000 
      7 O2A        41.7010  -15.9420  -74.6390 O.co2     1 ADP401      0.0000 
      8 O3A        41.6770  -18.0890  -73.1870 O.3       1 ADP401      0.0000 
      9 O5'        43.6240  -17.6520  -75.0700 O.3       1 ADP401      0.0000 
     10 C5'        44.6390  -17.4870  -74.0630 C.3       1 ADP401      0.0000 
     11 C4'        45.8840  -16.8620  -74.6960 C.3       1 ADP401      0.0000 
     12 O4'        46.6920  -17.8020  -75.1720 O.3       1 ADP401      0.0000 
     13 C3'        45.4700  -15.9560  -75.8920 C.3       1 ADP401      0.0000 
     14 O3'        45.8340  -14.6650  -75.6480 O.3       1 ADP401      0.0000 
     15 C2'        46.2110  -16.5050  -77.1390 C.3       1 ADP401      0.0000 
     16 O2'        46.9800  -15.4600  -77.7410 O.3       1 ADP401      0.0000 
     17 C1'        46.9880  -17.5180  -76.7450 C.3       1 ADP401      0.0000 
     18 N9         46.6210  -18.6860  -77.4850 N.pl3     1 ADP401      0.0000 
     19 C8         45.3740  -19.1400  -77.5550 C.2       1 ADP401      0.0000 
     20 N7         45.3680  -20.2370  -78.3110 N.2       1 ADP401      0.0000 
     21 C5         46.6190  -20.4700  -78.7220 C.ar      1 ADP401      0.0000 
     22 C6         47.1370  -21.4790  -79.5220 C.ar      1 ADP401      0.0000 
     23 N6         46.4760  -22.6120  -80.1840 N.pl3     1 ADP401      0.0000 
     24 N1         48.4260  -21.5100  -79.7930 N.ar      1 ADP401      0.0000 
     25 C2         49.2430  -20.5380  -79.2760 C.ar      1 ADP401      0.0000 
     26 N3         48.7350  -19.5550  -78.4950 N.ar      1 ADP401      0.0000 
     27 C4         47.4040  -19.5200  -78.2140 C.ar      1 ADP401      0.0000 
@<TRIPOS>BOND
     1   15   16 1    
     2   15   17 1    
     3   17   18 1    
     4   18   19 1    
     5   18   27 1    
     6   19   20 2    
     7   20   21 1    
     8   21   22 ar   
     9   21   27 ar   
    10   22   23 1    
    11   22   24 ar   
    12   24   25 ar   
    13   25   26 ar   
    14   26   27 ar   
    15    1    2 ar   
    16    1    3 ar   
    17    1    4 ar   
    18    1    8 1    
    19    5    6 ar   
    20    5    7 ar   
    21    5    8 1    
    22    5    9 1    
    23    9   10 1    
    24   10   11 1    
    25   11   12 1    
    26   11   13 1    
    27   12   17 1    
    28   13   14 1    
    29   13   15 1    
@<TRIPOS>SUBSTRUCTURE
     1 ADP401      1 GROUP   
@<TRIPOS>SET
ATOM$ORANGE STATIC     ATOMS   COLORGROUP SYSTEM 
20 10 10 11 11 13 13 15 15 17 17 19 19 21 21 22 22 25 \
25 27 27 

