#    Name: 6ok2_1_ADP_CAVITY_N1_6
#    Modification time : Fri May 22 19:33:41 2020

@<TRIPOS>MOLECULE
6ok2_1_ADP_CAVITY_N1_6
   80     0     6     0     0
SMALL
NO_CHARGES


@<TRIPOS>ATOM
      1 OG         47.7600  -18.9900  -35.6000 O.3       1 SER1        0.0000 
      2 OG         47.6100  -20.3500  -35.0000 O.3       1 SER1        0.0000 
      3 OG         47.4600  -21.7200  -34.4000 O.3       1 SER1        0.0000 
      4 OG         48.6300  -20.0100  -33.9500 O.3       1 SER1        0.0000 
      5 OG         48.4800  -21.3800  -33.3500 O.3       1 SER1        0.0000 
      6 OG         49.7200  -20.5200  -34.8500 O.3       1 SER1        0.0000 
      7 N          40.3700  -28.0400  -31.8400 N.am      2 ALA2        0.0000 
      8 N          39.9700  -19.8400  -32.0000 N.am      2 ALA2        0.0000 
      9 N          39.8200  -21.2000  -31.4000 N.am      2 ALA2        0.0000 
     10 N          40.4500  -25.8200  -30.5000 N.am      2 ALA2        0.0000 
     11 N          41.0000  -19.4900  -30.9600 N.am      2 ALA2        0.0000 
     12 N          40.8400  -20.8600  -30.3600 N.am      2 ALA2        0.0000 
     13 N          40.6900  -22.2200  -29.7600 N.am      2 ALA2        0.0000 
     14 N          41.6300  -24.1100  -30.0600 N.am      2 ALA2        0.0000 
     15 N          41.4800  -25.4700  -29.4600 N.am      2 ALA2        0.0000 
     16 N          42.4100  -27.3500  -29.7500 N.am      2 ALA2        0.0000 
     17 N          43.5800  -25.6400  -29.3100 N.am      2 ALA2        0.0000 
     18 N          44.6700  -26.1600  -30.2000 N.am      2 ALA2        0.0000 
     19 N          46.6100  -17.6100  -32.7600 N.am      2 ALA2        0.0000 
     20 N          46.4500  -18.9800  -32.1600 N.am      2 ALA2        0.0000 
     21 N          47.6900  -18.1300  -33.6600 N.am      2 ALA2        0.0000 
     22 N          47.5400  -19.4900  -33.0600 N.am      2 ALA2        0.0000 
     23 N          47.4800  -18.6400  -31.1200 N.am      2 ALA2        0.0000 
     24 N          48.5600  -19.1500  -32.0100 N.am      2 ALA2        0.0000 
     25 OD1        41.2100  -18.9800  -33.5000 O.co2     3 ASP3        0.0000 
     26 OD1        42.3000  -19.5000  -34.3900 O.co2     3 ASP3        0.0000 
     27 OD1        42.2400  -18.6400  -32.4600 O.co2     3 ASP3        0.0000 
     28 OD1        43.4800  -17.7900  -33.9500 O.co2     3 ASP3        0.0000 
     29 OD1        43.3200  -19.1500  -33.3500 O.co2     3 ASP3        0.0000 
     30 OD1        44.4100  -19.6700  -34.2500 O.co2     3 ASP3        0.0000 
     31 NZ         44.7100  -16.9400  -35.4500 N.4       4 LYS4        0.0000 
     32 NZ         44.5600  -18.3000  -34.8500 N.4       4 LYS4        0.0000 
     33 NZ         45.5000  -20.1800  -35.1400 N.4       4 LYS4        0.0000 
     34 NZ         46.6700  -18.4700  -34.7000 N.4       4 LYS4        0.0000 
     35 CA         40.0400  -20.6900  -33.9400 C.3       5 GLY6        0.0000 
     36 CA         39.6700  -22.5700  -30.8000 C.3       5 GLY6        0.0000 
     37 CA         41.0600  -20.3500  -32.9000 C.3       5 GLY6        0.0000 
     38 CA         40.9100  -21.7200  -32.3000 C.3       5 GLY6        0.0000 
     39 CA         42.1500  -20.8600  -33.7900 C.3       5 GLY6        0.0000 
     40 CA         41.1500  -18.1300  -31.5600 C.3       5 GLY6        0.0000 
     41 CA         42.3900  -17.2700  -33.0600 C.3       5 GLY6        0.0000 
     42 CA         41.9300  -21.3700  -31.2600 C.3       5 GLY6        0.0000 
     43 CA         41.7800  -22.7400  -30.6600 C.3       5 GLY6        0.0000 
     44 CA         43.6300  -16.4200  -34.5500 C.3       5 GLY6        0.0000 
     45 CA         43.0200  -21.8900  -32.1500 C.3       5 GLY6        0.0000 
     46 CA         43.5000  -27.8700  -30.6500 C.3       5 GLY6        0.0000 
     47 CA         43.4100  -16.9300  -32.0100 C.3       5 GLY6        0.0000 
     48 CA         43.2600  -18.3000  -31.4100 C.3       5 GLY6        0.0000 
     49 CA         44.6500  -16.0800  -33.5100 C.3       5 GLY6        0.0000 
     50 CA         44.5000  -17.4400  -32.9100 C.3       5 GLY6        0.0000 
     51 CA         43.4300  -27.0100  -28.7100 C.3       5 GLY6        0.0000 
     52 CA         45.7400  -16.5900  -34.4000 C.3       5 GLY6        0.0000 
     53 CA         45.5800  -17.9600  -33.8000 C.3       5 GLY6        0.0000 
     54 CA         44.5200  -27.5200  -29.6000 C.3       5 GLY6        0.0000 
     55 CA         46.8200  -17.1100  -35.3000 C.3       5 GLY6        0.0000 
     56 CA         44.1300  -19.3200  -29.7700 C.3       5 GLY6        0.0000 
     57 CA         45.5200  -17.1000  -31.8700 C.3       5 GLY6        0.0000 
     58 CA         45.3700  -18.4700  -31.2700 C.3       5 GLY6        0.0000 
     59 CA         47.8500  -16.7600  -34.2600 C.3       5 GLY6        0.0000 
     60 CA         48.7800  -18.6400  -34.5500 C.3       5 GLY6        0.0000 
     61 CA         49.6500  -19.6600  -32.9100 C.3       5 GLY6        0.0000 
     62 DU         42.0800  -20.0100  -31.8600 H         6 CUB7        0.0000 
     63 DU         43.1700  -20.5200  -32.7500 H         6 CUB7        0.0000 
     64 DU         44.2600  -21.0300  -33.6500 H         6 CUB7        0.0000 
     65 DU         41.8700  -20.5100  -29.3200 H         6 CUB7        0.0000 
     66 DU         41.7100  -21.8800  -28.7200 H         6 CUB7        0.0000 
     67 DU         43.1100  -19.6600  -30.8100 H         6 CUB7        0.0000 
     68 DU         42.9500  -21.0300  -30.2100 H         6 CUB7        0.0000 
     69 DU         42.8000  -22.3900  -29.6100 H         6 CUB7        0.0000 
     70 DU         42.6500  -23.7600  -29.0100 H         6 CUB7        0.0000 
     71 DU         42.5000  -25.1300  -28.4100 H         6 CUB7        0.0000 
     72 DU         44.3400  -18.8100  -32.3100 H         6 CUB7        0.0000 
     73 DU         44.1900  -20.1800  -31.7100 H         6 CUB7        0.0000 
     74 DU         44.0400  -21.5400  -31.1100 H         6 CUB7        0.0000 
     75 DU         43.8900  -22.9100  -30.5100 H         6 CUB7        0.0000 
     76 DU         45.4300  -19.3200  -33.2000 H         6 CUB7        0.0000 
     77 DU         46.5200  -19.8400  -34.1000 H         6 CUB7        0.0000 
     78 DU         43.9700  -20.6800  -29.1700 H         6 CUB7        0.0000 
     79 DU         45.2100  -19.8300  -30.6700 H         6 CUB7        0.0000 
     80 DU         47.3900  -20.8600  -32.4600 H         6 CUB7        0.0000 
@<TRIPOS>BOND
@<TRIPOS>SUBSTRUCTURE
     1 SER1        1 GROUP   
     2 ALA2        7 GROUP   
     3 ASP3       25 GROUP   
     4 LYS4       31 GROUP   
     5 GLY6       35 GROUP   
     6 CUB7       62 GROUP   
@<TRIPOS>SET

