#    Name: 6ok2_1_ADP
#    Modification time : Fri May 22 19:33:40 2020

@<TRIPOS>MOLECULE
6ok2_1_ADP
   27    29     1     0     1
SMALL
NO_CHARGES


@<TRIPOS>ATOM
      1 PB         41.8660  -23.2180  -36.6250 P.3       1 ADP401      0.0000 
      2 O1B        42.3990  -23.4890  -38.0090 O.co2     1 ADP401      0.0000 
      3 O2B        40.7800  -24.2430  -36.2650 O.co2     1 ADP401      0.0000 
      4 O3B        41.2700  -21.7880  -36.5820 O.co2     1 ADP401      0.0000 
      5 PA         44.4920  -22.4040  -35.7380 P.3       1 ADP401      0.0000 
      6 O1A        45.0870  -22.6510  -37.1340 O.co2     1 ADP401      0.0000 
      7 O2A        44.1350  -20.9330  -35.6100 O.co2     1 ADP401      0.0000 
      8 O3A        43.1200  -23.3260  -35.5630 O.3       1 ADP401      0.0000 
      9 O5'        45.6220  -22.8230  -34.5890 O.3       1 ADP401      0.0000 
     10 C5'        45.1850  -23.0960  -33.2440 C.3       1 ADP401      0.0000 
     11 C4'        46.3640  -23.6070  -32.4150 C.3       1 ADP401      0.0000 
     12 O4'        46.7510  -24.7960  -32.8540 O.3       1 ADP401      0.0000 
     13 C3'        47.5970  -22.6680  -32.5810 C.3       1 ADP401      0.0000 
     14 O3'        48.1840  -22.4550  -31.3700 O.3       1 ADP401      0.0000 
     15 C2'        48.5560  -23.4530  -33.5090 C.3       1 ADP401      0.0000 
     16 O2'        49.9070  -23.0630  -33.2540 O.3       1 ADP401      0.0000 
     17 C1'        48.3440  -24.7170  -33.1560 C.3       1 ADP401      0.0000 
     18 N9         48.6810  -25.6250  -34.2100 N.pl3     1 ADP401      0.0000 
     19 C8         48.3060  -25.5140  -35.4860 C.2       1 ADP401      0.0000 
     20 N7         48.8110  -26.5490  -36.1640 N.2       1 ADP401      0.0000 
     21 C5         49.5000  -27.3140  -35.2980 C.ar      1 ADP401      0.0000 
     22 C6         50.2130  -28.4970  -35.4660 C.ar      1 ADP401      0.0000 
     23 N6         50.4580  -29.3190  -36.6610 N.pl3     1 ADP401      0.0000 
     24 N1         50.8130  -29.0600  -34.4350 N.ar      1 ADP401      0.0000 
     25 C2         50.7310  -28.4780  -33.1970 C.ar      1 ADP401      0.0000 
     26 N3         50.0390  -27.3310  -33.0330 N.ar      1 ADP401      0.0000 
     27 C4         49.4200  -26.7480  -34.0940 C.ar      1 ADP401      0.0000 
@<TRIPOS>BOND
     1    1    2 ar   
     2    1    3 ar   
     3    1    4 ar   
     4    1    8 1    
     5    5    6 ar   
     6    5    7 ar   
     7    5    8 1    
     8    5    9 1    
     9    9   10 1    
    10   10   11 1    
    11   11   12 1    
    12   11   13 1    
    13   12   17 1    
    14   13   14 1    
    15   13   15 1    
    16   15   16 1    
    17   15   17 1    
    18   17   18 1    
    19   18   19 1    
    20   18   27 1    
    21   19   20 2    
    22   20   21 1    
    23   21   22 ar   
    24   21   27 ar   
    25   22   23 1    
    26   22   24 ar   
    27   24   25 ar   
    28   25   26 ar   
    29   26   27 ar   
@<TRIPOS>SUBSTRUCTURE
     1 ADP401      1 GROUP   
@<TRIPOS>SET
ATOM$ORANGE STATIC     ATOMS   COLORGROUP SYSTEM 
20 10 10 11 11 13 13 15 15 17 17 19 19 21 21 22 22 25 \
25 27 27 

