#    Name: 6ok2_1_ADP_CAVITY_N1_4
#    Modification time : Fri May 22 19:33:41 2020

@<TRIPOS>MOLECULE
6ok2_1_ADP_CAVITY_N1_4
   32     0     6     0     0
SMALL
NO_CHARGES


@<TRIPOS>ATOM
      1 OG         47.6100  -20.3500  -35.0000 O.3       1 SER1        0.0000 
      2 OG         47.4600  -21.7200  -34.4000 O.3       1 SER1        0.0000 
      3 OG         48.6300  -20.0100  -33.9500 O.3       1 SER1        0.0000 
      4 OG         48.4800  -21.3800  -33.3500 O.3       1 SER1        0.0000 
      5 OG         49.7200  -20.5200  -34.8500 O.3       1 SER1        0.0000 
      6 N          44.6700  -26.1600  -30.2000 N.am      2 ALA2        0.0000 
      7 N          46.4500  -18.9800  -32.1600 N.am      2 ALA2        0.0000 
      8 N          47.5400  -19.4900  -33.0600 N.am      2 ALA2        0.0000 
      9 N          47.4800  -18.6400  -31.1200 N.am      2 ALA2        0.0000 
     10 N          48.5600  -19.1500  -32.0100 N.am      2 ALA2        0.0000 
     11 OD1        42.3000  -19.5000  -34.3900 O.co2     3 ASP3        0.0000 
     12 OD1        43.4800  -17.7900  -33.9500 O.co2     3 ASP3        0.0000 
     13 OD1        43.3200  -19.1500  -33.3500 O.co2     3 ASP3        0.0000 
     14 OD1        44.4100  -19.6700  -34.2500 O.co2     3 ASP3        0.0000 
     15 NZ         44.5600  -18.3000  -34.8500 N.4       4 LYS4        0.0000 
     16 NZ         45.5000  -20.1800  -35.1400 N.4       4 LYS4        0.0000 
     17 NZ         46.6700  -18.4700  -34.7000 N.4       4 LYS4        0.0000 
     18 CA         40.0400  -20.6900  -33.9400 C.3       5 GLY6        0.0000 
     19 CA         41.0600  -20.3500  -32.9000 C.3       5 GLY6        0.0000 
     20 CA         42.1500  -20.8600  -33.7900 C.3       5 GLY6        0.0000 
     21 CA         43.0200  -21.8900  -32.1500 C.3       5 GLY6        0.0000 
     22 CA         45.5800  -17.9600  -33.8000 C.3       5 GLY6        0.0000 
     23 CA         49.6500  -19.6600  -32.9100 C.3       5 GLY6        0.0000 
     24 DU         43.1700  -20.5200  -32.7500 H         6 CUB7        0.0000 
     25 DU         44.2600  -21.0300  -33.6500 H         6 CUB7        0.0000 
     26 DU         44.3400  -18.8100  -32.3100 H         6 CUB7        0.0000 
     27 DU         44.1900  -20.1800  -31.7100 H         6 CUB7        0.0000 
     28 DU         44.0400  -21.5400  -31.1100 H         6 CUB7        0.0000 
     29 DU         43.8900  -22.9100  -30.5100 H         6 CUB7        0.0000 
     30 DU         45.4300  -19.3200  -33.2000 H         6 CUB7        0.0000 
     31 DU         46.5200  -19.8400  -34.1000 H         6 CUB7        0.0000 
     32 DU         47.3900  -20.8600  -32.4600 H         6 CUB7        0.0000 
@<TRIPOS>BOND
@<TRIPOS>SUBSTRUCTURE
     1 SER1        1 GROUP   
     2 ALA2        6 GROUP   
     3 ASP3       11 GROUP   
     4 LYS4       15 GROUP   
     5 GLY6       18 GROUP   
     6 CUB7       24 GROUP   
@<TRIPOS>SET

