#    Name: 6pnx_2_ACP
#    Modification time : Fri May 22 19:29:22 2020

@<TRIPOS>MOLECULE
6pnx_2_ACP
   31    33     1     0     1
SMALL
NO_CHARGES


@<TRIPOS>ATOM
      1 PG         13.3040  -11.2560    9.9520 P.3       1 ACP801      0.0000 
      2 O1G        12.0420  -10.4690   10.1460 O.co2     1 ACP801      0.0000 
      3 O2G        13.0170  -12.4780    9.0100 O.co2     1 ACP801      0.0000 
      4 O3G        13.8100  -11.7770   11.3370 O.co2     1 ACP801      0.0000 
      5 PB         14.0660   -9.7240    7.4740 P.3       1 ACP801      0.0000 
      6 O1B        13.3850  -10.8980    6.8290 O.co2     1 ACP801      0.0000 
      7 O2B        13.0640   -8.5250    7.5480 O.co2     1 ACP801      0.0000 
      8 C3B        14.5880  -10.1790    9.1850 C.3       1 ACP801      0.0000 
      9 PA         16.5020   -8.4230    7.2160 P.3       1 ACP801      0.0000 
     10 O1A        17.2010   -7.6900    6.1000 O.co2     1 ACP801      0.0000 
     11 O2A        15.9470   -7.4150    8.2060 O.co2     1 ACP801      0.0000 
     12 O3A        15.3260   -9.2950    6.6020 O.3       1 ACP801      0.0000 
     13 O5'        17.5610   -9.3900    7.9500 O.3       1 ACP801      0.0000 
     14 C5'        18.7150   -8.8430    8.5400 C.3       1 ACP801      0.0000 
     15 C4'        19.8960   -9.2460    7.7550 C.3       1 ACP801      0.0000 
     16 O4'        21.1230   -8.7690    8.4200 O.3       1 ACP801      0.0000 
     17 C3'        19.9790  -10.6930    7.6460 C.3       1 ACP801      0.0000 
     18 O3'        20.3970  -11.0780    6.3370 O.3       1 ACP801      0.0000 
     19 C2'        20.9330  -11.1330    8.6070 C.3       1 ACP801      0.0000 
     20 O2'        21.7040  -12.2230    8.0680 O.3       1 ACP801      0.0000 
     21 C1'        21.7900  -10.0040    8.9080 C.3       1 ACP801      0.0000 
     22 N9         22.0050   -9.9080   10.2820 N.pl3     1 ACP801      0.0000 
     23 C8         21.1440   -9.4390   11.1920 C.2       1 ACP801      0.0000 
     24 N7         21.6930   -9.4990   12.4030 N.2       1 ACP801      0.0000 
     25 C5         22.9190  -10.0060   12.3110 C.ar      1 ACP801      0.0000 
     26 C6         23.9340  -10.2920   13.2310 C.ar      1 ACP801      0.0000 
     27 N6         23.7300  -10.0220   14.6440 N.pl3     1 ACP801      0.0000 
     28 N1         25.0940  -10.8160   12.8100 N.ar      1 ACP801      0.0000 
     29 C2         25.3150  -11.0800   11.4990 C.ar      1 ACP801      0.0000 
     30 N3         24.3480  -10.8130   10.5750 N.ar      1 ACP801      0.0000 
     31 C4         23.1540  -10.2820   10.9490 C.ar      1 ACP801      0.0000 
@<TRIPOS>BOND
     1    1    2 ar   
     2    1    3 ar   
     3    1    4 ar   
     4    1    8 1    
     5    5    6 ar   
     6    5    7 ar   
     7    5    8 1    
     8    5   12 1    
     9    9   10 ar   
    10    9   11 ar   
    11    9   12 1    
    12    9   13 1    
    13   13   14 1    
    14   14   15 1    
    15   15   16 1    
    16   15   17 1    
    17   16   21 1    
    18   17   18 1    
    19   17   19 1    
    20   19   20 1    
    21   19   21 1    
    22   21   22 1    
    23   22   23 1    
    24   22   31 1    
    25   23   24 2    
    26   24   25 1    
    27   25   26 ar   
    28   25   31 ar   
    29   26   27 1    
    30   26   28 ar   
    31   28   29 ar   
    32   29   30 ar   
    33   30   31 ar   
@<TRIPOS>SUBSTRUCTURE
     1 ACP801      1 GROUP   
@<TRIPOS>SET
ATOM$ORANGE STATIC     ATOMS   COLORGROUP SYSTEM 
22 8 8 14 14 15 15 17 17 19 19 21 21 23 23 25 25 26 \
26 29 29 31 31 

