#    Name: 6pnx_1_ACP
#    Modification time : Fri May 22 19:29:11 2020

@<TRIPOS>MOLECULE
6pnx_1_ACP
   31    33     1     0     1
SMALL
NO_CHARGES


@<TRIPOS>ATOM
      1 PG         -5.5050  -19.6410  -14.6940 P.3       1 ACP801      0.0000 
      2 O1G        -5.0390  -19.5830  -16.1170 O.co2     1 ACP801      0.0000 
      3 O2G        -5.4560  -21.1290  -14.1980 O.co2     1 ACP801      0.0000 
      4 O3G        -6.9760  -19.1160  -14.6050 O.co2     1 ACP801      0.0000 
      5 PB         -4.1580  -16.9330  -14.3590 P.3       1 ACP801      0.0000 
      6 O1B        -2.9580  -16.2850  -13.7290 O.co2     1 ACP801      0.0000 
      7 O2B        -5.4250  -16.0540  -14.0930 O.co2     1 ACP801      0.0000 
      8 C3B        -4.4160  -18.6070  -13.6220 C.3       1 ACP801      0.0000 
      9 PA         -3.8920  -15.7550  -16.8280 P.3       1 ACP801      0.0000 
     10 O1A        -2.4650  -15.3240  -17.0520 O.co2     1 ACP801      0.0000 
     11 O2A        -4.6630  -14.6420  -16.1420 O.co2     1 ACP801      0.0000 
     12 O3A        -3.9250  -17.0590  -15.9260 O.3       1 ACP801      0.0000 
     13 O5'        -4.5790  -16.0890  -18.2460 O.3       1 ACP801      0.0000 
     14 C5'        -5.9500  -16.4070  -18.2860 C.3       1 ACP801      0.0000 
     15 C4'        -6.3620  -16.6740  -19.6750 C.3       1 ACP801      0.0000 
     16 O4'        -6.2270  -15.4360  -20.4640 O.3       1 ACP801      0.0000 
     17 C3'        -5.5250  -17.6920  -20.2890 C.3       1 ACP801      0.0000 
     18 O3'        -6.1920  -18.9530  -20.3060 O.3       1 ACP801      0.0000 
     19 C2'        -5.2490  -17.2760  -21.6230 C.3       1 ACP801      0.0000 
     20 O2'        -5.9970  -18.0870  -22.5500 O.3       1 ACP801      0.0000 
     21 C1'        -5.6310  -15.8830  -21.7480 C.3       1 ACP801      0.0000 
     22 N9         -4.5170  -15.1010  -22.0530 N.pl3     1 ACP801      0.0000 
     23 C8         -3.6250  -14.5990  -21.1910 C.2       1 ACP801      0.0000 
     24 N7         -2.7000  -13.9060  -21.8530 N.2       1 ACP801      0.0000 
     25 C5         -2.9680  -13.9410  -23.1560 C.ar      1 ACP801      0.0000 
     26 C6         -2.3600  -13.4070  -24.3010 C.ar      1 ACP801      0.0000 
     27 N6         -1.1510  -12.6120  -24.1810 N.pl3     1 ACP801      0.0000 
     28 N1         -2.8940  -13.6300  -25.5090 N.ar      1 ACP801      0.0000 
     29 C2         -4.0210  -14.3680  -25.6570 C.ar      1 ACP801      0.0000 
     30 N3         -4.6390  -14.9040  -24.5670 N.ar      1 ACP801      0.0000 
     31 C4         -4.1390  -14.7070  -23.3190 C.ar      1 ACP801      0.0000 
@<TRIPOS>BOND
     1    1    2 ar   
     2    1    3 ar   
     3    1    4 ar   
     4    1    8 1    
     5    5    6 ar   
     6    5    7 ar   
     7    5    8 1    
     8    5   12 1    
     9    9   10 ar   
    10    9   11 ar   
    11    9   12 1    
    12    9   13 1    
    13   13   14 1    
    14   14   15 1    
    15   15   16 1    
    16   15   17 1    
    17   16   21 1    
    18   17   18 1    
    19   17   19 1    
    20   19   20 1    
    21   19   21 1    
    22   21   22 1    
    23   22   23 1    
    24   22   31 1    
    25   23   24 2    
    26   24   25 1    
    27   25   26 ar   
    28   25   31 ar   
    29   26   27 1    
    30   26   28 ar   
    31   28   29 ar   
    32   29   30 ar   
    33   30   31 ar   
@<TRIPOS>SUBSTRUCTURE
     1 ACP801      1 GROUP   
@<TRIPOS>SET
ATOM$ORANGE STATIC     ATOMS   COLORGROUP SYSTEM 
22 8 8 14 14 15 15 17 17 19 19 21 21 23 23 25 25 26 \
26 29 29 31 31 

