#    Name: 5y0n_1_ATP
#    Modification time : Fri May 22 19:21:02 2020

@<TRIPOS>MOLECULE
5y0n_1_ATP
   31    33     1     0     1
SMALL
NO_CHARGES


@<TRIPOS>ATOM
      1 PG         20.4950    4.8990  -56.1120 P.3       1 ATP1001     0.0000 
      2 O1G        19.9310    5.2470  -57.4760 O.co2     1 ATP1001     0.0000 
      3 O2G        19.9850    5.8210  -55.0170 O.co2     1 ATP1001     0.0000 
      4 O3G        22.0040    4.7460  -56.0950 O.co2     1 ATP1001     0.0000 
      5 PB         20.2650    1.9580  -56.3660 P.3       1 ATP1001     0.0000 
      6 O1B        20.1730    2.0800  -57.8760 O.co2     1 ATP1001     0.0000 
      7 O2B        21.5770    1.4850  -55.7690 O.co2     1 ATP1001     0.0000 
      8 O3B        19.8960    3.4240  -55.7380 O.3       1 ATP1001     0.0000 
      9 PA         18.9290   -0.6810  -55.7870 P.3       1 ATP1001     0.0000 
     10 O1A        20.3170   -1.2500  -55.6050 O.co2     1 ATP1001     0.0000 
     11 O2A        17.7980   -1.0900  -54.8740 O.co2     1 ATP1001     0.0000 
     12 O3A        19.0410    0.9680  -55.8360 O.3       1 ATP1001     0.0000 
     13 O5'        18.4000   -1.0200  -57.2770 O.3       1 ATP1001     0.0000 
     14 C5'        18.2460   -2.3410  -57.7980 C.3       1 ATP1001     0.0000 
     15 C4'        18.4430   -2.3020  -59.3170 C.3       1 ATP1001     0.0000 
     16 O4'        17.5290   -1.3780  -59.9180 O.3       1 ATP1001     0.0000 
     17 C3'        19.8330   -1.8150  -59.6810 C.3       1 ATP1001     0.0000 
     18 O3'        20.3020   -2.6190  -60.7660 O.3       1 ATP1001     0.0000 
     19 C2'        19.6100   -0.3750  -60.0920 C.3       1 ATP1001     0.0000 
     20 O2'        20.6110    0.1110  -60.9790 O.3       1 ATP1001     0.0000 
     21 C1'        18.2370   -0.4390  -60.7240 C.3       1 ATP1001     0.0000 
     22 N9         17.5520    0.8760  -60.7440 N.pl3     1 ATP1001     0.0000 
     23 C8         16.8650    1.4340  -59.7340 C.2       1 ATP1001     0.0000 
     24 N7         16.3610    2.6490  -60.0920 N.2       1 ATP1001     0.0000 
     25 C5         16.7240    2.8880  -61.3680 C.ar      1 ATP1001     0.0000 
     26 C6         16.5310    3.9800  -62.3620 C.ar      1 ATP1001     0.0000 
     27 N6         15.8300    5.1020  -62.0750 N.pl3     1 ATP1001     0.0000 
     28 N1         17.0830    3.8210  -63.5810 N.ar      1 ATP1001     0.0000 
     29 C2         17.7790    2.7130  -63.8900 C.ar      1 ATP1001     0.0000 
     30 N3         17.9980    1.6960  -63.0440 N.ar      1 ATP1001     0.0000 
     31 C4         17.5050    1.7130  -61.7870 C.ar      1 ATP1001     0.0000 
@<TRIPOS>BOND
     1    1    2 ar   
     2    1    3 ar   
     3    1    4 ar   
     4    1    8 1    
     5    5    6 ar   
     6    5    7 ar   
     7    5    8 1    
     8    5   12 1    
     9    9   10 ar   
    10    9   11 ar   
    11    9   12 1    
    12    9   13 1    
    13   13   14 1    
    14   14   15 1    
    15   15   16 1    
    16   15   17 1    
    17   16   21 1    
    18   17   18 1    
    19   17   19 1    
    20   19   20 1    
    21   19   21 1    
    22   21   22 1    
    23   22   23 1    
    24   22   31 1    
    25   23   24 2    
    26   24   25 1    
    27   25   26 ar   
    28   25   31 ar   
    29   26   27 1    
    30   26   28 ar   
    31   28   29 ar   
    32   29   30 ar   
    33   30   31 ar   
@<TRIPOS>SUBSTRUCTURE
     1 ATP1001     1 GROUP   
@<TRIPOS>SET
ATOM$ORANGE STATIC     ATOMS   COLORGROUP SYSTEM 
20 14 14 15 15 17 17 19 19 21 21 23 23 25 25 26 26 29 \
29 31 31 

