#    Name: 5y0n_2_ATP
#    Modification time : Fri May 22 19:21:05 2020

@<TRIPOS>MOLECULE
5y0n_2_ATP
   31    33     1     0     1
SMALL
NO_CHARGES


@<TRIPOS>ATOM
      1 PG         12.7370   -3.2870    3.9230 P.3       1 ATP1001     0.0000 
      2 O1G        11.6030   -2.9400    2.9740 O.co2     1 ATP1001     0.0000 
      3 O2G        12.8740   -2.3010    5.0680 O.co2     1 ATP1001     0.0000 
      4 O3G        12.7420   -4.7350    4.3720 O.co2     1 ATP1001     0.0000 
      5 PB         15.4890   -3.9110    3.2060 P.3       1 ATP1001     0.0000 
      6 O1B        15.5900   -4.9170    2.0850 O.co2     1 ATP1001     0.0000 
      7 O2B        15.6180   -4.4000    4.6330 O.co2     1 ATP1001     0.0000 
      8 O3B        14.0840   -3.1130    3.0320 O.3       1 ATP1001     0.0000 
      9 PA         18.1730   -2.7080    3.3100 P.3       1 ATP1001     0.0000 
     10 O1A        18.8280   -3.9960    2.8430 O.co2     1 ATP1001     0.0000 
     11 O2A        18.7180   -1.3390    2.9570 O.co2     1 ATP1001     0.0000 
     12 O3A        16.5850   -2.7240    2.9220 O.3       1 ATP1001     0.0000 
     13 O5'        18.1340   -2.7260    4.9240 O.3       1 ATP1001     0.0000 
     14 C5'        19.2530   -2.3830    5.7600 C.3       1 ATP1001     0.0000 
     15 C4'        18.9350   -2.9140    7.1530 C.3       1 ATP1001     0.0000 
     16 O4'        17.9940   -2.0380    7.7870 O.3       1 ATP1001     0.0000 
     17 C3'        18.2740   -4.2800    6.9760 C.3       1 ATP1001     0.0000 
     18 O3'        19.0480   -5.3360    7.5680 O.3       1 ATP1001     0.0000 
     19 C2'        16.8870   -4.1360    7.5870 C.3       1 ATP1001     0.0000 
     20 O2'        16.5900   -5.2470    8.4360 O.3       1 ATP1001     0.0000 
     21 C1'        16.9210   -2.8060    8.3360 C.3       1 ATP1001     0.0000 
     22 N9         15.6420   -2.0540    8.2330 N.pl3     1 ATP1001     0.0000 
     23 C8         15.2440   -1.2820    7.2090 C.2       1 ATP1001     0.0000 
     24 N7         14.0210   -0.7340    7.4440 N.2       1 ATP1001     0.0000 
     25 C5         13.6120   -1.1510    8.6560 C.ar      1 ATP1001     0.0000 
     26 C6         12.4250   -0.9490    9.5290 C.ar      1 ATP1001     0.0000 
     27 N6         11.3840   -0.1670    9.1480 N.pl3     1 ATP1001     0.0000 
     28 N1         12.4090   -1.5730   10.7270 N.ar      1 ATP1001     0.0000 
     29 C2         13.4270   -2.3490   11.1260 C.ar      1 ATP1001     0.0000 
     30 N3         14.5230   -2.5790   10.3910 N.ar      1 ATP1001     0.0000 
     31 C4         14.6850   -2.0200    9.1680 C.ar      1 ATP1001     0.0000 
@<TRIPOS>BOND
     1    1    2 ar   
     2    1    3 ar   
     3    1    4 ar   
     4    1    8 1    
     5    5    6 ar   
     6    5    7 ar   
     7    5    8 1    
     8    5   12 1    
     9    9   10 ar   
    10    9   11 ar   
    11    9   12 1    
    12    9   13 1    
    13   13   14 1    
    14   14   15 1    
    15   15   16 1    
    16   15   17 1    
    17   16   21 1    
    18   17   18 1    
    19   17   19 1    
    20   19   20 1    
    21   19   21 1    
    22   21   22 1    
    23   22   23 1    
    24   22   31 1    
    25   23   24 2    
    26   24   25 1    
    27   25   26 ar   
    28   25   31 ar   
    29   26   27 1    
    30   26   28 ar   
    31   28   29 ar   
    32   29   30 ar   
    33   30   31 ar   
@<TRIPOS>SUBSTRUCTURE
     1 ATP1001     1 GROUP   
@<TRIPOS>SET
ATOM$ORANGE STATIC     ATOMS   COLORGROUP SYSTEM 
20 14 14 15 15 17 17 19 19 21 21 23 23 25 25 26 26 29 \
29 31 31 

