#    Name: 5y0n_1_ATP_CAVITY_N1_12
#    Modification time : Fri May 22 19:21:03 2020

@<TRIPOS>MOLECULE
5y0n_1_ATP_CAVITY_N1_12
  172     0     7     0     0
SMALL
NO_CHARGES


@<TRIPOS>ATOM
      1 OG         18.6100    0.0000  -64.8700 O.3       1 SER1        0.0000 
      2 OG         17.9700    1.4600  -63.4800 O.3       1 SER1        0.0000 
      3 OG         18.8900    0.2800  -63.4200 O.3       1 SER1        0.0000 
      4 OG         18.0200   -0.3100  -61.5800 O.3       1 SER1        0.0000 
      5 OG         19.0000   -3.2700  -59.6300 O.3       1 SER1        0.0000 
      6 OG         18.3000   -0.0300  -60.1400 O.3       1 SER1        0.0000 
      7 OG         19.2300   -1.2100  -60.0800 O.3       1 SER1        0.0000 
      8 OG         18.6400   -1.5200  -56.7900 O.3       1 SER1        0.0000 
      9 OG         17.9400    1.7200  -57.3000 O.3       1 SER1        0.0000 
     10 OG         18.8600    0.5400  -57.2400 O.3       1 SER1        0.0000 
     11 OG         18.9200   -1.2300  -55.3500 O.3       1 SER1        0.0000 
     12 OG         17.3000    3.1900  -55.9000 O.3       1 SER1        0.0000 
     13 OG         18.2200    2.0100  -55.8500 O.3       1 SER1        0.0000 
     14 OG         19.1400    0.8300  -55.8000 O.3       1 SER1        0.0000 
     15 OG         19.4300    1.1100  -54.3500 O.3       1 SER1        0.0000 
     16 OG         20.1500    5.5200  -53.8000 O.3       1 SER1        0.0000 
     17 OG         21.0800    4.3400  -53.7500 O.3       1 SER1        0.0000 
     18 OG         21.3000    6.4000  -54.2000 O.3       1 SER1        0.0000 
     19 OG         22.2200    5.2200  -54.1500 O.3       1 SER1        0.0000 
     20 OG         21.3600    4.6200  -52.3100 O.3       1 SER1        0.0000 
     21 OG         22.5000    5.5000  -52.7000 O.3       1 SER1        0.0000 
     22 OG         22.7800    5.7900  -51.2600 O.3       1 SER1        0.0000 
     23 N          18.8400    2.0600  -65.3200 N.am      2 ALA2        0.0000 
     24 N          15.9000    1.7600  -63.1300 N.am      2 ALA2        0.0000 
     25 N          16.4000    4.1100  -62.1400 N.am      2 ALA2        0.0000 
     26 N          17.3200    2.9300  -62.0800 N.am      2 ALA2        0.0000 
     27 O          20.1000   -0.6100  -61.9200 O.2       2 ALA2        0.0000 
     28 N          16.4600    2.3300  -60.2400 N.am      2 ALA2        0.0000 
     29 O          21.3000   -1.5100  -60.4200 O.2       2 ALA2        0.0000 
     30 N          19.2800   -2.9800  -58.1900 N.am      2 ALA2        0.0000 
     31 N          20.4300   -2.1000  -58.5800 N.am      2 ALA2        0.0000 
     32 O          21.5800   -1.2200  -58.9800 O.2       2 ALA2        0.0000 
     33 N          17.1800    6.7400  -59.6900 N.am      2 ALA2        0.0000 
     34 N          18.3300    7.6200  -60.0900 N.am      2 ALA2        0.0000 
     35 N          18.5600    9.6800  -60.5400 N.am      2 ALA2        0.0000 
     36 N          19.5700   -2.7000  -56.7400 N.am      2 ALA2        0.0000 
     37 N          20.7100   -1.8200  -57.1400 N.am      2 ALA2        0.0000 
     38 N          21.6400   -3.0000  -57.0800 N.am      2 ALA2        0.0000 
     39 O          20.9400    0.2400  -57.5900 O.2       2 ALA2        0.0000 
     40 O          21.8600   -0.9400  -57.5300 O.2       2 ALA2        0.0000 
     41 O          19.8500   -2.4100  -55.3000 O.2       2 ALA2        0.0000 
     42 O          20.7700   -3.5900  -55.2400 O.2       2 ALA2        0.0000 
     43 N          21.9200   -2.7100  -55.6400 N.am      2 ALA2        0.0000 
     44 O          17.5200    5.2500  -56.3500 O.2       2 ALA2        0.0000 
     45 O          18.4400    4.0700  -56.3000 O.2       2 ALA2        0.0000 
     46 O          21.2200    0.5300  -56.1400 O.2       2 ALA2        0.0000 
     47 O          22.1400   -0.6500  -56.0900 O.2       2 ALA2        0.0000 
     48 N          20.5200    3.7700  -56.6400 N.am      2 ALA2        0.0000 
     49 N          21.4400    2.5900  -56.5900 N.am      2 ALA2        0.0000 
     50 N          21.6600    4.6500  -57.0400 N.am      2 ALA2        0.0000 
     51 O          20.1300   -2.1300  -53.8500 O.2       2 ALA2        0.0000 
     52 O          21.5000    0.8100  -54.6900 O.2       2 ALA2        0.0000 
     53 O          18.9500    6.4100  -55.3000 O.2       2 ALA2        0.0000 
     54 O          19.8700    5.2300  -55.2500 O.2       2 ALA2        0.0000 
     55 N          21.7200    2.8700  -55.1400 N.am      2 ALA2        0.0000 
     56 O          22.6400    1.6900  -55.0900 O.2       2 ALA2        0.0000 
     57 O          23.5700    0.5100  -55.0400 O.2       2 ALA2        0.0000 
     58 N          21.9400    4.9300  -55.5900 N.am      2 ALA2        0.0000 
     59 N          22.8700    3.7500  -55.5400 N.am      2 ALA2        0.0000 
     60 O          23.7900    2.5700  -55.4900 O.2       2 ALA2        0.0000 
     61 N          24.0200    4.6300  -55.9400 N.am      2 ALA2        0.0000 
     62 O          19.2900    4.9200  -51.9600 O.2       2 ALA2        0.0000 
     63 OD1        18.2500    1.7500  -62.0300 O.co2     3 ASP3        0.0000 
     64 OD1        19.1700    0.5700  -61.9800 O.co2     3 ASP3        0.0000 
     65 OD1        17.6000    3.2100  -60.6400 O.co2     3 ASP3        0.0000 
     66 OD1        18.5300    2.0300  -60.5800 O.co2     3 ASP3        0.0000 
     67 OD1        19.4500    0.8500  -60.5300 O.co2     3 ASP3        0.0000 
     68 OD1        20.3800   -0.3300  -60.4800 O.co2     3 ASP3        0.0000 
     69 OD1        17.8300    5.2800  -61.0900 O.co2     3 ASP3        0.0000 
     70 OD1        17.8800    3.5000  -59.1900 O.co2     3 ASP3        0.0000 
     71 OD1        18.8100    2.3200  -59.1400 O.co2     3 ASP3        0.0000 
     72 OD1        19.7300    1.1400  -59.0900 O.co2     3 ASP3        0.0000 
     73 OD1        20.6600   -0.0400  -59.0300 O.co2     3 ASP3        0.0000 
     74 OD1        18.1100    5.5600  -59.6400 O.co2     3 ASP3        0.0000 
     75 OD1        19.2600    6.4400  -60.0400 O.co2     3 ASP3        0.0000 
     76 OD1        20.4000    7.3200  -60.4300 O.co2     3 ASP3        0.0000 
     77 OD1        18.1600    3.7800  -57.7500 O.co2     3 ASP3        0.0000 
     78 OD1        19.0900    2.6000  -57.6900 O.co2     3 ASP3        0.0000 
     79 OD1        20.0100    1.4200  -57.6400 O.co2     3 ASP3        0.0000 
     80 OD1        18.3900    5.8400  -58.2000 O.co2     3 ASP3        0.0000 
     81 OD1        19.3100    4.6600  -58.1400 O.co2     3 ASP3        0.0000 
     82 OD1        19.5400    6.7300  -58.5900 O.co2     3 ASP3        0.0000 
     83 OD1        20.6800    7.6100  -58.9900 O.co2     3 ASP3        0.0000 
     84 OD1        19.5900    4.9500  -56.7000 O.co2     3 ASP3        0.0000 
     85 OD1        20.7400    5.8300  -57.0900 O.co2     3 ASP3        0.0000 
     86 OD1        21.8900    6.7100  -57.4900 O.co2     3 ASP3        0.0000 
     87 OD1        22.4200   -0.3700  -54.6400 O.co2     3 ASP3        0.0000 
     88 OD1        21.7800    1.1000  -53.2500 O.co2     3 ASP3        0.0000 
     89 OD1        22.7000   -0.0800  -53.2000 O.co2     3 ASP3        0.0000 
     90 OD1        22.9300    1.9800  -53.6400 O.co2     3 ASP3        0.0000 
     91 OD1        25.2200    3.7400  -54.4400 O.co2     3 ASP3        0.0000 
     92 OD1        19.0600    2.8600  -51.5100 O.co2     3 ASP3        0.0000 
     93 OD1        19.9900    1.6800  -51.4600 O.co2     3 ASP3        0.0000 
     94 OD1        20.2100    3.7400  -51.9100 O.co2     3 ASP3        0.0000 
     95 OD1        22.9800    0.2000  -51.7500 O.co2     3 ASP3        0.0000 
     96 OD1        23.2100    2.2600  -52.2000 O.co2     3 ASP3        0.0000 
     97 OD1        24.3500    3.1400  -52.5900 O.co2     3 ASP3        0.0000 
     98 OD1        25.5000    4.0200  -52.9900 O.co2     3 ASP3        0.0000 
     99 OD1        20.2700    1.9700  -50.0100 O.co2     3 ASP3        0.0000 
    100 OD1        21.4100    2.8500  -50.4100 O.co2     3 ASP3        0.0000 
    101 OD1        24.6300    3.4300  -51.1500 O.co2     3 ASP3        0.0000 
    102 OD1        21.6900    3.1300  -48.9600 O.co2     3 ASP3        0.0000 
    103 OD1        22.8400    4.0100  -49.3600 O.co2     3 ASP3        0.0000 
    104 NZ         20.6300    0.2200  -52.8500 N.4       4 LYS4        0.0000 
    105 NZ         21.5500   -0.9600  -52.8000 N.4       4 LYS4        0.0000 
    106 NZ         20.9100    0.5000  -51.4100 N.4       4 LYS4        0.0000 
    107 NZ         22.0600    1.3800  -51.8000 N.4       4 LYS4        0.0000 
    108 NZ         21.1900    0.7900  -49.9600 N.4       4 LYS4        0.0000 
    109 NZ         22.3400    1.6700  -50.3600 N.4       4 LYS4        0.0000 
    110 NZ         22.6200    1.9500  -48.9100 N.4       4 LYS4        0.0000 
    111 CZ         17.6900    1.1800  -64.9200 C.ar      5 PHE5        0.0000 
    112 CZ         17.0400    2.6400  -63.5300 C.ar      5 PHE5        0.0000 
    113 CZ         16.2300    0.2700  -59.7900 C.ar      5 PHE5        0.0000 
    114 CZ         17.1600   -0.9100  -59.7400 C.ar      5 PHE5        0.0000 
    115 CZ         18.0800   -2.0900  -59.6900 C.ar      5 PHE5        0.0000 
    116 CZ         17.3800    1.1500  -60.1900 C.ar      5 PHE5        0.0000 
    117 CZ         20.1500   -2.3900  -60.0300 C.ar      5 PHE5        0.0000 
    118 CZ         18.3600   -1.8000  -58.2400 C.ar      5 PHE5        0.0000 
    119 CZ         17.6600    1.4400  -58.7400 C.ar      5 PHE5        0.0000 
    120 CZ         18.5800    0.2600  -58.6900 C.ar      5 PHE5        0.0000 
    121 CZ         16.9600    4.6800  -59.2500 C.ar      5 PHE5        0.0000 
    122 CZ         17.0200    2.9000  -57.3500 C.ar      5 PHE5        0.0000 
    123 CZ         17.2400    4.9600  -57.8000 C.ar      5 PHE5        0.0000 
    124 CZ         22.8400   -3.8900  -55.5800 C.ar      5 PHE5        0.0000 
    125 CZ         23.1200   -3.6100  -54.1400 C.ar      5 PHE5        0.0000 
    126 CA         16.8200    0.5800  -63.0800 C.3       6 GLY6        0.0000 
    127 CA         19.1200    2.3500  -63.8700 C.3       6 GLY6        0.0000 
    128 CA         20.0400    1.1600  -63.8200 C.3       6 GLY6        0.0000 
    129 CA         17.1000    0.8700  -61.6300 C.3       6 GLY6        0.0000 
    130 CA         18.4700    3.8100  -62.4800 C.3       6 GLY6        0.0000 
    131 CA         19.4000    2.6300  -62.4300 C.3       6 GLY6        0.0000 
    132 CA         16.6800    4.3900  -60.6900 C.3       6 GLY6        0.0000 
    133 CA         18.9800    6.1600  -61.4800 C.3       6 GLY6        0.0000 
    134 CA         19.2000    8.2200  -61.9300 C.3       6 GLY6        0.0000 
    135 CA         17.4600    7.0300  -58.2500 C.3       6 GLY6        0.0000 
    136 CA         18.6100    7.9100  -58.6400 C.3       6 GLY6        0.0000 
    137 CA         23.0700   -1.8300  -56.0300 C.3       6 GLY6        0.0000 
    138 CA         18.6700    6.1300  -56.7500 C.3       6 GLY6        0.0000 
    139 CA         19.8200    7.0100  -57.1500 C.3       6 GLY6        0.0000 
    140 CA         19.2000   -0.9500  -53.9000 C.3       6 GLY6        0.0000 
    141 CA         21.2700   -1.2500  -54.2500 C.3       6 GLY6        0.0000 
    142 CA         22.2000   -2.4300  -54.1900 C.3       6 GLY6        0.0000 
    143 CA         18.7200    4.3500  -54.8500 C.3       6 GLY6        0.0000 
    144 CA         19.6500    3.1700  -54.8000 C.3       6 GLY6        0.0000 
    145 CA         23.3500   -1.5500  -54.5900 C.3       6 GLY6        0.0000 
    146 CA         24.2700   -2.7300  -54.5300 C.3       6 GLY6        0.0000 
    147 CA         24.2400    6.7000  -56.3800 C.3       6 GLY6        0.0000 
    148 CA         19.0000    4.6400  -53.4100 C.3       6 GLY6        0.0000 
    149 CA         19.9300    3.4600  -53.3600 C.3       6 GLY6        0.0000 
    150 CA         24.3000    4.9200  -54.4900 C.3       6 GLY6        0.0000 
    151 CA         23.2600    0.4900  -50.3000 C.3       6 GLY6        0.0000 
    152 CA         23.4900    2.5500  -50.7500 C.3       6 GLY6        0.0000 
    153 CA         23.7700    2.8300  -49.3100 C.3       6 GLY6        0.0000 
    154 CA         24.9100    3.7100  -49.7000 C.3       6 GLY6        0.0000 
    155 DU         19.5100   -0.9200  -58.6400 H         7 CUB7        0.0000 
    156 DU         19.7900   -0.6400  -57.1900 H         7 CUB7        0.0000 
    157 DU         20.0700   -0.3500  -55.7400 H         7 CUB7        0.0000 
    158 DU         20.9900   -1.5300  -55.6900 H         7 CUB7        0.0000 
    159 DU         19.3700    2.8900  -56.2500 H         7 CUB7        0.0000 
    160 DU         20.2900    1.7100  -56.1900 H         7 CUB7        0.0000 
    161 DU         20.3500   -0.0700  -54.3000 H         7 CUB7        0.0000 
    162 DU         20.5700    1.9900  -54.7500 H         7 CUB7        0.0000 
    163 DU         20.8000    4.0500  -55.2000 H         7 CUB7        0.0000 
    164 DU         21.0200    6.1100  -55.6500 H         7 CUB7        0.0000 
    165 DU         20.8500    2.2800  -53.3000 H         7 CUB7        0.0000 
    166 DU         22.0000    3.1600  -53.7000 H         7 CUB7        0.0000 
    167 DU         23.1500    4.0400  -54.0900 H         7 CUB7        0.0000 
    168 DU         21.1300    2.5600  -51.8600 H         7 CUB7        0.0000 
    169 DU         22.2800    3.4400  -52.2500 H         7 CUB7        0.0000 
    170 DU         23.4300    4.3200  -52.6500 H         7 CUB7        0.0000 
    171 DU         22.5600    3.7300  -50.8100 H         7 CUB7        0.0000 
    172 DU         23.7100    4.6100  -51.2000 H         7 CUB7        0.0000 
@<TRIPOS>BOND
@<TRIPOS>SUBSTRUCTURE
     1 SER1        1 GROUP   
     2 ALA2       23 GROUP   
     3 ASP3       63 GROUP   
     4 LYS4      104 GROUP   
     5 PHE5      111 GROUP   
     6 GLY6      126 GROUP   
     7 CUB7      155 GROUP   
@<TRIPOS>SET

