#    Name: 6ifr_1_ATP
#    Modification time : Fri May 22 19:25:16 2020

@<TRIPOS>MOLECULE
6ifr_1_ATP
   31    33     1     0     1
SMALL
NO_CHARGES


@<TRIPOS>ATOM
      1 PG         -1.0690  -20.1180  -47.3420 P.3       1 ATP801      0.0000 
      2 O1G        -1.0270  -19.5540  -48.7410 O.co2     1 ATP801      0.0000 
      3 O2G        -1.9910  -21.2990  -47.1730 O.co2     1 ATP801      0.0000 
      4 O3G        -1.1790  -19.0850  -46.2480 O.co2     1 ATP801      0.0000 
      5 PB          1.6780  -19.8760  -47.5910 P.3       1 ATP801      0.0000 
      6 O1B         1.9870  -20.1940  -49.0290 O.co2     1 ATP801      0.0000 
      7 O2B         1.4830  -18.4380  -47.1800 O.co2     1 ATP801      0.0000 
      8 O3B         0.4000  -20.7350  -47.1430 O.3       1 ATP801      0.0000 
      9 PA          3.1020  -20.0170  -45.2150 P.3       1 ATP801      0.0000 
     10 O1A         4.0070  -21.0080  -44.5340 O.co2     1 ATP801      0.0000 
     11 O2A         1.7860  -19.6340  -44.5900 O.co2     1 ATP801      0.0000 
     12 O3A         2.8350  -20.5390  -46.7050 O.3       1 ATP801      0.0000 
     13 O5'         3.9230  -18.6670  -45.4880 O.3       1 ATP801      0.0000 
     14 C5'         4.1380  -17.7660  -44.4150 C.3       1 ATP801      0.0000 
     15 C4'         5.1620  -16.6950  -44.7680 C.3       1 ATP801      0.0000 
     16 O4'         6.4990  -17.1870  -44.7140 O.3       1 ATP801      0.0000 
     17 C3'         5.0070  -16.1150  -46.1590 C.3       1 ATP801      0.0000 
     18 O3'         4.1340  -14.9860  -46.1340 O.3       1 ATP801      0.0000 
     19 C2'         6.4080  -15.6780  -46.5220 C.3       1 ATP801      0.0000 
     20 O2'         6.4960  -14.2550  -46.4630 O.3       1 ATP801      0.0000 
     21 C1'         7.3020  -16.2710  -45.4510 C.3       1 ATP801      0.0000 
     22 N9          8.4840  -16.9080  -46.0740 N.pl3     1 ATP801      0.0000 
     23 C8          8.5840  -17.3330  -47.3440 C.2       1 ATP801      0.0000 
     24 N7          9.8140  -17.8480  -47.5880 N.2       1 ATP801      0.0000 
     25 C5         10.5230  -17.7490  -46.4530 C.ar      1 ATP801      0.0000 
     26 C6         11.8900  -18.0920  -46.0150 C.ar      1 ATP801      0.0000 
     27 N6         12.7700  -18.6720  -46.8590 N.pl3     1 ATP801      0.0000 
     28 N1         12.2350  -17.8050  -44.7470 N.ar      1 ATP801      0.0000 
     29 C2         11.3720  -17.2310  -43.8950 C.ar      1 ATP801      0.0000 
     30 N3         10.1180  -16.8930  -44.2250 N.ar      1 ATP801      0.0000 
     31 C4          9.6450  -17.1210  -45.4660 C.ar      1 ATP801      0.0000 
@<TRIPOS>BOND
     1    1    2 ar   
     2    1    3 ar   
     3    1    4 ar   
     4    1    8 1    
     5    5    6 ar   
     6    5    7 ar   
     7    5    8 1    
     8    5   12 1    
     9    9   10 ar   
    10    9   11 ar   
    11    9   12 1    
    12    9   13 1    
    13   13   14 1    
    14   14   15 1    
    15   15   16 1    
    16   15   17 1    
    17   16   21 1    
    18   17   18 1    
    19   17   19 1    
    20   19   20 1    
    21   19   21 1    
    22   21   22 1    
    23   22   23 1    
    24   22   31 1    
    25   23   24 2    
    26   24   25 1    
    27   25   26 ar   
    28   25   31 ar   
    29   26   27 1    
    30   26   28 ar   
    31   28   29 ar   
    32   29   30 ar   
    33   30   31 ar   
@<TRIPOS>SUBSTRUCTURE
     1 ATP801      1 GROUP   
@<TRIPOS>SET
ATOM$ORANGE STATIC     ATOMS   COLORGROUP SYSTEM 
20 14 14 15 15 17 17 19 19 21 21 23 23 25 25 26 26 29 \
29 31 31 

