#    Name: 6ifr_1_ATP_CAVITY_N1_ALL
#    Modification time : Fri May 22 19:25:18 2020

@<TRIPOS>MOLECULE
6ifr_1_ATP_CAVITY_N1_ALL
   79     0     7     0     0
SMALL
NO_CHARGES


@<TRIPOS>ATOM
      1 OG          3.0900  -26.7900  -33.8300 O.3       1 SER1        0.0000 
      2 O           4.3500  -23.4200  -36.0700 O.2       2 ALA2        0.0000 
      3 O           4.4000  -26.3100  -34.3700 O.2       2 ALA2        0.0000 
      4 O           3.7200  -25.1100  -34.9500 O.2       2 ALA2        0.0000 
      5 O           5.8600  -19.2900  -37.0400 O.2       2 ALA2        0.0000 
      6 O           5.1800  -18.0900  -37.6200 O.2       2 ALA2        0.0000 
      7 O           4.5000  -16.8800  -38.2000 O.2       2 ALA2        0.0000 
      8 N           5.9100  -22.1800  -35.3400 N.am      2 ALA2        0.0000 
      9 N           4.6000  -22.6700  -34.8000 N.am      2 ALA2        0.0000 
     10 N           4.6500  -25.5600  -33.1000 N.am      2 ALA2        0.0000 
     11 N           3.9600  -24.3500  -33.6800 N.am      2 ALA2        0.0000 
     12 N           3.2800  -23.1500  -34.2600 N.am      2 ALA2        0.0000 
     13 O           6.7400  -16.8500  -36.8800 O.2       2 ALA2        0.0000 
     14 O           6.0600  -15.6500  -37.4700 O.2       2 ALA2        0.0000 
     15 N           6.1100  -18.5400  -35.7600 N.am      2 ALA2        0.0000 
     16 N           5.4300  -17.3300  -36.3500 N.am      2 ALA2        0.0000 
     17 O           4.7500  -16.1300  -36.9300 O.2       2 ALA2        0.0000 
     18 N           6.1600  -21.4300  -34.0600 N.am      2 ALA2        0.0000 
     19 N           2.7500  -15.4100  -36.9700 N.am      2 ALA2        0.0000 
     20 N           4.8400  -21.9100  -33.5200 N.am      2 ALA2        0.0000 
     21 N           4.8900  -24.8000  -31.8200 N.am      2 ALA2        0.0000 
     22 N           4.2100  -23.6000  -32.4100 N.am      2 ALA2        0.0000 
     23 O           7.0300  -18.9900  -33.9100 O.2       2 ALA2        0.0000 
     24 O           6.3500  -17.7800  -34.4900 O.2       2 ALA2        0.0000 
     25 N           6.4000  -20.6800  -32.7900 N.am      2 ALA2        0.0000 
     26 N           5.7700  -22.3600  -31.6700 N.am      2 ALA2        0.0000 
     27 OD1         2.8900  -15.2300  -40.6400 O.co2     3 ASP3        0.0000 
     28 OD1         3.8200  -15.6800  -38.7800 O.co2     3 ASP3        0.0000 
     29 OD1         3.1400  -14.4800  -39.3600 O.co2     3 ASP3        0.0000 
     30 NZ          4.3000  -20.5300  -37.7700 N.4       4 LYS4        0.0000 
     31 NZ          2.9900  -21.0100  -37.2300 N.4       4 LYS4        0.0000 
     32 NZ          3.0400  -23.9000  -35.5300 N.4       4 LYS4        0.0000 
     33 NZ          5.2300  -20.9800  -35.9200 N.4       4 LYS4        0.0000 
     34 NZ          4.5500  -19.7700  -36.5000 N.4       4 LYS4        0.0000 
     35 NZ          1.8300  -14.9600  -38.8200 N.4       4 LYS4        0.0000 
     36 NZ          3.9200  -21.4600  -35.3800 N.4       4 LYS4        0.0000 
     37 NZ          1.1900  -16.6500  -37.7000 N.4       4 LYS4        0.0000 
     38 NZ          0.5100  -15.4400  -38.2800 N.4       4 LYS4        0.0000 
     39 NZ          2.1200  -17.1000  -35.8500 N.4       4 LYS4        0.0000 
     40 NZ          1.4400  -15.8900  -36.4300 N.4       4 LYS4        0.0000 
     41 NZ          0.7600  -14.6900  -37.0100 N.4       4 LYS4        0.0000 
     42 CZ          3.2400  -20.2600  -35.9600 C.ar      5 PHE5        0.0000 
     43 CZ          7.4200  -18.0500  -36.3000 C.ar      5 PHE5        0.0000 
     44 CZ          4.7900  -19.0200  -35.2300 C.ar      5 PHE5        0.0000 
     45 CZ          4.1100  -17.8200  -35.8100 C.ar      5 PHE5        0.0000 
     46 CZ          4.1600  -20.7100  -34.1100 C.ar      5 PHE5        0.0000 
     47 CZ          3.4800  -19.5000  -34.6900 C.ar      5 PHE5        0.0000 
     48 CZ          2.8000  -18.3000  -35.2700 C.ar      5 PHE5        0.0000 
     49 CZ          3.5300  -22.4000  -32.9900 C.ar      5 PHE5        0.0000 
     50 CZ          2.8500  -21.1900  -33.5700 C.ar      5 PHE5        0.0000 
     51 CZ          1.4900  -18.7800  -34.7300 C.ar      5 PHE5        0.0000 
     52 CZ          3.7700  -21.6400  -31.7100 C.ar      5 PHE5        0.0000 
     53 CZ          2.4600  -22.1200  -31.1700 C.ar      5 PHE5        0.0000 
     54 CA          3.5800  -16.4300  -40.0500 C.3       6 GLY6        0.0000 
     55 CA          3.6200  -19.3200  -38.3500 C.3       6 GLY6        0.0000 
     56 CA          2.9400  -18.1200  -38.9300 C.3       6 GLY6        0.0000 
     57 CA          2.2600  -16.9200  -39.5200 C.3       6 GLY6        0.0000 
     58 CA          6.5400  -20.5000  -36.4600 C.3       6 GLY6        0.0000 
     59 CA          3.8700  -18.5700  -37.0800 C.3       6 GLY6        0.0000 
     60 CA          3.1900  -17.3700  -37.6600 C.3       6 GLY6        0.0000 
     61 CA          7.4700  -20.9500  -34.6000 C.3       6 GLY6        0.0000 
     62 CA          6.7900  -19.7400  -35.1800 C.3       6 GLY6        0.0000 
     63 CA          4.0700  -14.9300  -37.5100 C.3       6 GLY6        0.0000 
     64 CA          5.4800  -20.2200  -34.6400 C.3       6 GLY6        0.0000 
     65 CA          5.7200  -19.4700  -33.3700 C.3       6 GLY6        0.0000 
     66 CA          4.3600  -17.0600  -34.5300 C.3       6 GLY6        0.0000 
     67 CA          3.6800  -15.8600  -35.1100 C.3       6 GLY6        0.0000 
     68 CA          5.0900  -21.1600  -32.2500 C.3       6 GLY6        0.0000 
     69 CA          2.3600  -16.3400  -34.5800 C.3       6 GLY6        0.0000 
     70 DU          1.5800  -15.7100  -40.1000 H         7 CUB7        0.0000 
     71 DU          2.4100  -25.5900  -34.4100 H         7 CUB7        0.0000 
     72 DU          2.5100  -16.1600  -38.2400 H         7 CUB7        0.0000 
     73 DU          2.5500  -19.0500  -36.5400 H         7 CUB7        0.0000 
     74 DU          1.8700  -17.8500  -37.1200 H         7 CUB7        0.0000 
     75 DU          2.6000  -21.9400  -34.8400 H         7 CUB7        0.0000 
     76 DU          2.6500  -24.8400  -33.1400 H         7 CUB7        0.0000 
     77 DU          1.9700  -23.6300  -33.7200 H         7 CUB7        0.0000 
     78 DU          3.4300  -16.6100  -36.3900 H         7 CUB7        0.0000 
     79 DU          4.4500  -22.8500  -31.1300 H         7 CUB7        0.0000 
@<TRIPOS>BOND
@<TRIPOS>SUBSTRUCTURE
     1 SER1        1 GROUP   
     2 ALA2        2 GROUP   
     3 ASP3       27 GROUP   
     4 LYS4       30 GROUP   
     5 PHE5       42 GROUP   
     6 GLY6       54 GROUP   
     7 CUB7       70 GROUP   
@<TRIPOS>SET

