#    Name: 6ifr_1_ATP_CAVITY_N1_8
#    Modification time : Fri May 22 19:25:18 2020

@<TRIPOS>MOLECULE
6ifr_1_ATP_CAVITY_N1_8
   25     0     5     0     0
SMALL
NO_CHARGES


@<TRIPOS>ATOM
      1 O           5.8600  -19.2900  -37.0400 O.2       1 ALA2        0.0000 
      2 O           5.1800  -18.0900  -37.6200 O.2       1 ALA2        0.0000 
      3 O           4.5000  -16.8800  -38.2000 O.2       1 ALA2        0.0000 
      4 O           6.7400  -16.8500  -36.8800 O.2       1 ALA2        0.0000 
      5 O           6.0600  -15.6500  -37.4700 O.2       1 ALA2        0.0000 
      6 O           4.7500  -16.1300  -36.9300 O.2       1 ALA2        0.0000 
      7 N           2.7500  -15.4100  -36.9700 N.am      1 ALA2        0.0000 
      8 OD1         2.8900  -15.2300  -40.6400 O.co2     2 ASP3        0.0000 
      9 OD1         3.8200  -15.6800  -38.7800 O.co2     2 ASP3        0.0000 
     10 OD1         3.1400  -14.4800  -39.3600 O.co2     2 ASP3        0.0000 
     11 NZ          4.3000  -20.5300  -37.7700 N.4       3 LYS4        0.0000 
     12 NZ          2.9900  -21.0100  -37.2300 N.4       3 LYS4        0.0000 
     13 NZ          1.8300  -14.9600  -38.8200 N.4       3 LYS4        0.0000 
     14 NZ          1.1900  -16.6500  -37.7000 N.4       3 LYS4        0.0000 
     15 NZ          0.5100  -15.4400  -38.2800 N.4       3 LYS4        0.0000 
     16 CA          3.5800  -16.4300  -40.0500 C.3       4 GLY6        0.0000 
     17 CA          3.6200  -19.3200  -38.3500 C.3       4 GLY6        0.0000 
     18 CA          2.9400  -18.1200  -38.9300 C.3       4 GLY6        0.0000 
     19 CA          2.2600  -16.9200  -39.5200 C.3       4 GLY6        0.0000 
     20 CA          3.8700  -18.5700  -37.0800 C.3       4 GLY6        0.0000 
     21 CA          3.1900  -17.3700  -37.6600 C.3       4 GLY6        0.0000 
     22 CA          4.0700  -14.9300  -37.5100 C.3       4 GLY6        0.0000 
     23 DU          1.5800  -15.7100  -40.1000 H         5 CUB7        0.0000 
     24 DU          2.5100  -16.1600  -38.2400 H         5 CUB7        0.0000 
     25 DU          1.8700  -17.8500  -37.1200 H         5 CUB7        0.0000 
@<TRIPOS>BOND
@<TRIPOS>SUBSTRUCTURE
     1 ALA2        1 GROUP   
     2 ASP3        8 GROUP   
     3 LYS4       11 GROUP   
     4 GLY6       16 GROUP   
     5 CUB7       23 GROUP   
@<TRIPOS>SET

