#    Name: 6bpm_3_POG
#    Modification time : Fri May 22 19:29:35 2020

@<TRIPOS>MOLECULE
6bpm_3_POG
   73    72     1     0     0
SMALL
NO_CHARGES


@<TRIPOS>ATOM
      1 OH        -28.2910   51.1050   44.1220 O.3       1 POG803      0.0000 
      2 C2        -29.5700   50.5320   44.1990 C.3       1 POG803      0.0000 
      3 C1        -29.4340   49.0290   44.4230 C.3       1 POG803      0.0000 
      4 C3        -30.3670   50.7720   42.9160 C.3       1 POG803      0.0000 
      5 O2        -30.0210   51.9980   42.3320 O.3       1 POG803      0.0000 
      6 C5        -28.8160   52.1320   41.6280 C.3       1 POG803      0.0000 
      7 O1        -34.6910   63.0680   27.7600 O.3       1 POG803      0.0000 
      8 C4        -34.5160   61.7850   28.2980 C.3       1 POG803      0.0000 
      9 C6        -34.9970   61.7410   29.7460 C.3       1 POG803      0.0000 
     10 O3        -34.0710   61.0140   30.5000 O.3       1 POG803      0.0000 
     11 C7        -34.3490   60.8600   31.8630 C.3       1 POG803      0.0000 
     12 C8        -33.2430   60.0120   32.4910 C.3       1 POG803      0.0000 
     13 O4        -33.8330   59.3470   33.5830 O.3       1 POG803      0.0000 
     14 C9        -33.0910   58.9370   34.6920 C.3       1 POG803      0.0000 
     15 C10       -32.2180   57.7350   34.3680 C.3       1 POG803      0.0000 
     16 O5        -31.7400   57.2940   35.5930 O.3       1 POG803      0.0000 
     17 C11       -32.0590   55.9860   35.9550 C.3       1 POG803      0.0000 
     18 C12       -31.0370   55.5870   37.0100 C.3       1 POG803      0.0000 
     19 O6        -31.3010   56.2810   38.1990 O.3       1 POG803      0.0000 
     20 C13       -31.2170   55.5290   39.3770 C.3       1 POG803      0.0000 
     21 C14       -29.8400   54.8700   39.4870 C.3       1 POG803      0.0000 
     22 O7        -29.7460   54.1160   40.6600 O.3       1 POG803      0.0000 
     23 C15       -29.1110   52.9120   40.3640 C.3       1 POG803      0.0000 
     24 C16       -28.1870   50.8150   41.1750 C.3       1 POG803      0.0000 
     25 C17       -28.7250   55.9140   39.4710 C.3       1 POG803      0.0000 
     26 C18       -29.6410   55.9650   36.5100 C.3       1 POG803      0.0000 
     27 C19       -30.9990   58.0940   33.5230 C.3       1 POG803      0.0000 
     28 C20       -32.0460   60.9240   32.8070 C.3       1 POG803      0.0000 
     29 C21       -36.3540   61.0510   29.7920 C.3       1 POG803      0.0000 
     30 HOH       -28.3490   51.9440   44.2450 H         1 POG803      0.0000 
     31 H2        -30.0480   50.9230   44.9470 H         1 POG803      0.0000 
     32 H11       -30.3160   48.6270   44.4600 H         1 POG803      0.0000 
     33 H12A      -28.9310   48.6370   43.6930 H         1 POG803      0.0000 
     34 H13       -28.9700   48.8670   45.2590 H         1 POG803      0.0000 
     35 H31       -31.3170   50.7660   43.1140 H         1 POG803      0.0000 
     36 H32       -30.1730   50.0590   42.2870 H         1 POG803      0.0000 
     37 H5        -28.1790   52.6240   42.1700 H         1 POG803      0.0000 
     38 HO1       -33.9360   63.4530   27.6950 H         1 POG803      0.0000 
     39 H41       -33.5760   61.5500   28.2660 H         1 POG803      0.0000 
     40 H42       -35.0240   61.1460   27.7730 H         1 POG803      0.0000 
     41 H6        -35.0730   62.6430   30.0960 H         1 POG803      0.0000 
     42 H71       -35.2040   60.4150   31.9740 H         1 POG803      0.0000 
     43 H72       -34.3760   61.7300   32.2910 H         1 POG803      0.0000 
     44 H8        -32.9590   59.3470   31.8440 H         1 POG803      0.0000 
     45 H91       -33.7000   58.7010   35.4100 H         1 POG803      0.0000 
     46 H92       -32.5260   59.6690   34.9840 H         1 POG803      0.0000 
     47 H10       -32.7400   57.0410   33.9360 H         1 POG803      0.0000 
     48 H111      -31.9910   55.3990   35.1850 H         1 POG803      0.0000 
     49 H112      -32.9540   55.9500   36.3260 H         1 POG803      0.0000 
     50 H12       -31.0830   54.6310   37.1690 H         1 POG803      0.0000 
     51 H131      -31.9020   54.8420   39.3690 H         1 POG803      0.0000 
     52 H132      -31.3560   56.1110   40.1400 H         1 POG803      0.0000 
     53 H14       -29.7190   54.2780   38.7290 H         1 POG803      0.0000 
     54 H151      -28.2790   53.0960   39.9010 H         1 POG803      0.0000 
     55 H152      -29.6850   52.3820   39.7890 H         1 POG803      0.0000 
     56 H161      -27.4220   51.0000   40.6080 H         1 POG803      0.0000 
     57 H162      -28.8410   50.3000   40.6770 H         1 POG803      0.0000 
     58 H163      -27.9000   50.3100   41.9510 H         1 POG803      0.0000 
     59 H171      -29.1030   56.7870   39.2800 H         1 POG803      0.0000 
     60 H172      -28.0770   55.6850   38.7860 H         1 POG803      0.0000 
     61 H173      -28.2880   55.9340   40.3370 H         1 POG803      0.0000 
     62 H181      -29.6690   56.1120   35.5520 H         1 POG803      0.0000 
     63 H182      -29.0210   55.2460   36.7090 H         1 POG803      0.0000 
     64 H183      -29.3470   56.7760   36.9540 H         1 POG803      0.0000 
     65 H191      -30.3410   57.3840   33.5880 H         1 POG803      0.0000 
     66 H192      -30.6140   58.9220   33.8480 H         1 POG803      0.0000 
     67 H193      -31.2680   58.2020   32.5980 H         1 POG803      0.0000 
     68 H201      -32.1660   61.7790   32.3650 H         1 POG803      0.0000 
     69 H202      -31.2300   60.5070   32.4900 H         1 POG803      0.0000 
     70 H203      -31.9880   61.0610   33.7650 H         1 POG803      0.0000 
     71 H211      -36.9230   61.4100   29.0940 H         1 POG803      0.0000 
     72 H212      -36.2360   60.0980   29.6550 H         1 POG803      0.0000 
     73 H213      -36.7660   61.2050   30.6560 H         1 POG803      0.0000 
@<TRIPOS>BOND
     1    1    2 1    
     2    2    3 1    
     3    1   30 1    
     4    2    4 1    
     5    2   31 1    
     6    3   32 1    
     7    3   33 1    
     8    3   34 1    
     9    4    5 1    
    10    4   35 1    
    11    4   36 1    
    12    5    6 1    
    13    6   23 1    
    14    6   24 1    
    15    6   37 1    
    16    7    8 1    
    17    8    9 1    
    18    7   38 1    
    19    8   39 1    
    20    8   40 1    
    21    9   10 1    
    22    9   29 1    
    23    9   41 1    
    24   10   11 1    
    25   11   12 1    
    26   11   42 1    
    27   11   43 1    
    28   12   13 1    
    29   12   28 1    
    30   12   44 1    
    31   13   14 1    
    32   14   15 1    
    33   14   45 1    
    34   14   46 1    
    35   15   16 1    
    36   15   27 1    
    37   15   47 1    
    38   16   17 1    
    39   17   18 1    
    40   17   48 1    
    41   17   49 1    
    42   18   19 1    
    43   18   26 1    
    44   18   50 1    
    45   19   20 1    
    46   20   21 1    
    47   20   51 1    
    48   20   52 1    
    49   21   22 1    
    50   21   25 1    
    51   21   53 1    
    52   22   23 1    
    53   23   54 1    
    54   23   55 1    
    55   24   56 1    
    56   24   57 1    
    57   24   58 1    
    58   25   59 1    
    59   25   60 1    
    60   25   61 1    
    61   26   62 1    
    62   26   63 1    
    63   26   64 1    
    64   27   66 1    
    65   27   65 1    
    66   27   67 1    
    67   28   68 1    
    68   28   69 1    
    69   28   70 1    
    70   29   71 1    
    71   29   72 1    
    72   29   73 1    
@<TRIPOS>SUBSTRUCTURE
     1 POG803      1 GROUP   
@<TRIPOS>SET

