#    Name: 6bpm_4_POG
#    Modification time : Fri May 22 19:30:06 2020

@<TRIPOS>MOLECULE
6bpm_4_POG
   73    72     1     0     0
SMALL
NO_CHARGES


@<TRIPOS>ATOM
      1 OH        -27.3870   51.8720   30.6310 O.3       1 POG801      0.0000 
      2 C2        -28.7690   52.0440   30.7620 C.3       1 POG801      0.0000 
      3 C1        -29.0590   53.3970   31.4060 C.3       1 POG801      0.0000 
      4 C3        -29.3200   50.9220   31.6330 C.3       1 POG801      0.0000 
      5 O2        -28.4330   49.8360   31.5910 O.3       1 POG801      0.0000 
      6 C5        -27.8690   49.3940   32.8000 C.3       1 POG801      0.0000 
      7 O1        -27.9840   47.8750   40.4070 O.3       1 POG801      0.0000 
      8 C4        -27.9110   47.9620   39.0120 C.3       1 POG801      0.0000 
      9 C6        -29.0580   47.1860   38.3780 C.3       1 POG801      0.0000 
     10 O3        -28.8240   45.7940   38.4450 O.3       1 POG801      0.0000 
     11 C7        -29.4700   45.0400   37.4440 C.3       1 POG801      0.0000 
     12 C8        -29.4110   43.5370   37.6630 C.3       1 POG801      0.0000 
     13 O4        -30.5410   42.9690   37.0540 O.3       1 POG801      0.0000 
     14 C9        -30.6140   43.2600   35.6830 C.3       1 POG801      0.0000 
     15 C10       -31.3500   42.1570   34.9080 C.3       1 POG801      0.0000 
     16 O5        -31.7370   42.6410   33.6420 O.3       1 POG801      0.0000 
     17 C11       -30.6570   42.7970   32.7480 C.3       1 POG801      0.0000 
     18 C12       -30.8700   43.9700   31.7790 C.3       1 POG801      0.0000 
     19 O6        -29.6810   44.6700   31.5490 O.3       1 POG801      0.0000 
     20 C13       -29.0870   45.2950   32.6580 C.3       1 POG801      0.0000 
     21 C14       -29.0040   46.8030   32.4390 C.3       1 POG801      0.0000 
     22 O7        -29.0730   47.4340   33.6950 O.3       1 POG801      0.0000 
     23 C15       -28.9580   48.8370   33.7390 C.3       1 POG801      0.0000 
     24 C16       -27.0890   50.5340   33.4510 C.3       1 POG801      0.0000 
     25 C17       -30.1010   47.3130   31.4940 C.3       1 POG801      0.0000 
     26 C18       -31.9180   44.9460   32.3050 C.3       1 POG801      0.0000 
     27 C19       -32.5710   41.7240   35.6990 C.3       1 POG801      0.0000 
     28 C20       -29.3880   43.2200   39.1450 C.3       1 POG801      0.0000 
     29 C21       -29.2020   47.6970   36.9380 C.3       1 POG801      0.0000 
     30 HOH       -26.9830   52.4960   31.0420 H         1 POG801      0.0000 
     31 H2        -29.1840   52.0070   29.8860 H         1 POG801      0.0000 
     32 H11       -28.8290   53.3630   32.3480 H         1 POG801      0.0000 
     33 H12A      -30.0010   53.6060   31.3100 H         1 POG801      0.0000 
     34 H13       -28.5300   54.0830   30.9690 H         1 POG801      0.0000 
     35 H31       -29.4180   51.2280   32.5480 H         1 POG801      0.0000 
     36 H32       -30.1850   50.6440   31.2920 H         1 POG801      0.0000 
     37 H5        -27.2470   48.6780   32.6000 H         1 POG801      0.0000 
     38 HO1       -28.5510   47.2800   40.6240 H         1 POG801      0.0000 
     39 H41       -27.9670   48.8930   38.7460 H         1 POG801      0.0000 
     40 H42       -27.0670   47.5920   38.7110 H         1 POG801      0.0000 
     41 H6        -29.8750   47.3870   38.8610 H         1 POG801      0.0000 
     42 H71       -30.4010   45.3100   37.4090 H         1 POG801      0.0000 
     43 H72       -29.0560   45.2430   36.5910 H         1 POG801      0.0000 
     44 H8        -28.6090   43.1820   37.2470 H         1 POG801      0.0000 
     45 H91       -29.7150   43.3490   35.3300 H         1 POG801      0.0000 
     46 H92       -31.0850   44.1000   35.5630 H         1 POG801      0.0000 
     47 H10       -30.7580   41.3980   34.7930 H         1 POG801      0.0000 
     48 H111      -30.5530   41.9810   32.2350 H         1 POG801      0.0000 
     49 H112      -29.8470   42.9540   33.2580 H         1 POG801      0.0000 
     50 H12       -31.1820   43.6130   30.9330 H         1 POG801      0.0000 
     51 H131      -28.1940   44.9400   32.7850 H         1 POG801      0.0000 
     52 H132      -29.6190   45.1150   33.4490 H         1 POG801      0.0000 
     53 H14       -28.1420   47.0070   32.0430 H         1 POG801      0.0000 
     54 H151      -28.7490   49.1020   34.6490 H         1 POG801      0.0000 
     55 H152      -29.8110   49.2260   33.4900 H         1 POG801      0.0000 
     56 H161      -27.5480   50.8210   34.2560 H         1 POG801      0.0000 
     57 H162      -27.0270   51.2780   32.8320 H         1 POG801      0.0000 
     58 H163      -26.1980   50.2270   33.6790 H         1 POG801      0.0000 
     59 H171      -29.7960   48.1190   31.0490 H         1 POG801      0.0000 
     60 H172      -30.9030   47.5090   32.0040 H         1 POG801      0.0000 
     61 H173      -30.2980   46.6320   30.8310 H         1 POG801      0.0000 
     62 H181      -32.1530   45.5760   31.6050 H         1 POG801      0.0000 
     63 H182      -31.5580   45.4270   33.0660 H         1 POG801      0.0000 
     64 H183      -32.7090   44.4550   32.5770 H         1 POG801      0.0000 
     65 H191      -33.0890   41.0940   35.1740 H         1 POG801      0.0000 
     66 H192      -33.1150   42.5000   35.9040 H         1 POG801      0.0000 
     67 H193      -32.2880   41.3010   36.5240 H         1 POG801      0.0000 
     68 H201      -29.5240   42.2680   39.2740 H         1 POG801      0.0000 
     69 H202      -30.0960   43.7110   39.5910 H         1 POG801      0.0000 
     70 H203      -28.5310   43.4780   39.5180 H         1 POG801      0.0000 
     71 H211      -29.1630   48.6660   36.9340 H         1 POG801      0.0000 
     72 H212      -30.0530   47.4050   36.5750 H         1 POG801      0.0000 
     73 H213      -28.4800   47.3420   36.3960 H         1 POG801      0.0000 
@<TRIPOS>BOND
     1    1    2 1    
     2    2    3 1    
     3    1   30 1    
     4    2    4 1    
     5    2   31 1    
     6    3   32 1    
     7    3   33 1    
     8    3   34 1    
     9    4    5 1    
    10    4   35 1    
    11    4   36 1    
    12    5    6 1    
    13    6   23 1    
    14    6   24 1    
    15    6   37 1    
    16    7    8 1    
    17    8    9 1    
    18    7   38 1    
    19    8   39 1    
    20    8   40 1    
    21    9   10 1    
    22    9   29 1    
    23    9   41 1    
    24   10   11 1    
    25   11   12 1    
    26   11   42 1    
    27   11   43 1    
    28   12   13 1    
    29   12   28 1    
    30   12   44 1    
    31   13   14 1    
    32   14   15 1    
    33   14   45 1    
    34   14   46 1    
    35   15   16 1    
    36   15   27 1    
    37   15   47 1    
    38   16   17 1    
    39   17   18 1    
    40   17   48 1    
    41   17   49 1    
    42   18   19 1    
    43   18   26 1    
    44   18   50 1    
    45   19   20 1    
    46   20   21 1    
    47   20   51 1    
    48   20   52 1    
    49   21   22 1    
    50   21   25 1    
    51   21   53 1    
    52   22   23 1    
    53   23   54 1    
    54   23   55 1    
    55   24   56 1    
    56   24   57 1    
    57   24   58 1    
    58   25   59 1    
    59   25   60 1    
    60   25   61 1    
    61   26   62 1    
    62   26   63 1    
    63   26   64 1    
    64   27   66 1    
    65   27   65 1    
    66   27   67 1    
    67   28   68 1    
    68   28   69 1    
    69   28   70 1    
    70   29   71 1    
    71   29   72 1    
    72   29   73 1    
@<TRIPOS>SUBSTRUCTURE
     1 POG801      1 GROUP   
@<TRIPOS>SET

