#    Name: 6bpm_1_POG
#    Modification time : Fri May 22 19:29:08 2020

@<TRIPOS>MOLECULE
6bpm_1_POG
   73    72     1     0     0
SMALL
NO_CHARGES


@<TRIPOS>ATOM
      1 OH        -34.7840   36.7200   44.9860 O.3       1 POG801      0.0000 
      2 C2        -35.2690   35.6760   44.1930 C.3       1 POG801      0.0000 
      3 C1        -34.7860   34.3320   44.7420 C.3       1 POG801      0.0000 
      4 C3        -34.8220   35.8480   42.7390 C.3       1 POG801      0.0000 
      5 O2        -34.8200   37.2030   42.3540 O.3       1 POG801      0.0000 
      6 C5        -34.7570   37.5280   40.9790 C.3       1 POG801      0.0000 
      7 O1        -34.0330   28.2650   45.7090 O.3       1 POG801      0.0000 
      8 C4        -34.9800   29.2960   45.7060 C.3       1 POG801      0.0000 
      9 C6        -35.3970   29.6360   44.2720 C.3       1 POG801      0.0000 
     10 O3        -35.3140   28.5310   43.4040 O.3       1 POG801      0.0000 
     11 C7        -36.4570   28.1950   42.6470 C.3       1 POG801      0.0000 
     12 C8        -36.8350   29.2490   41.5980 C.3       1 POG801      0.0000 
     13 O4        -35.7230   30.0030   41.1890 O.3       1 POG801      0.0000 
     14 C9        -35.8850   30.7810   40.0250 C.3       1 POG801      0.0000 
     15 C10       -36.2050   32.2360   40.4070 C.3       1 POG801      0.0000 
     16 O5        -36.1490   33.1820   39.3620 O.3       1 POG801      0.0000 
     17 C11       -36.4160   32.8040   38.0480 C.3       1 POG801      0.0000 
     18 C12       -35.0390   32.6510   37.4230 C.3       1 POG801      0.0000 
     19 O6        -34.4880   33.8350   36.8420 O.3       1 POG801      0.0000 
     20 C13       -34.8710   35.1360   37.2370 C.3       1 POG801      0.0000 
     21 C14       -33.7200   35.9770   37.8010 C.3       1 POG801      0.0000 
     22 O7        -34.2100   36.8870   38.7480 O.3       1 POG801      0.0000 
     23 C15       -34.5190   36.3570   40.0180 C.3       1 POG801      0.0000 
     24 C16       -33.5890   38.4790   40.7460 C.3       1 POG801      0.0000 
     25 C17       -33.0780   36.8500   36.7360 C.3       1 POG801      0.0000 
     26 C18       -35.1890   31.5120   36.4140 C.3       1 POG801      0.0000 
     27 C19       -35.1790   32.7010   41.4330 C.3       1 POG801      0.0000 
     28 C20       -37.8870   30.1920   42.1710 C.3       1 POG801      0.0000 
     29 C21       -34.4480   30.7170   43.7700 C.3       1 POG801      0.0000 
     30 HOH       -34.8660   36.5140   45.8070 H         1 POG801      0.0000 
     31 H2        -36.2380   35.6910   44.2220 H         1 POG801      0.0000 
     32 H11       -35.2400   33.6110   44.2780 H         1 POG801      0.0000 
     33 H12A      -34.9830   34.2810   45.6910 H         1 POG801      0.0000 
     34 H13       -33.8290   34.2520   44.6060 H         1 POG801      0.0000 
     35 H31       -33.9310   35.4820   42.6250 H         1 POG801      0.0000 
     36 H32       -35.4340   35.3620   42.1650 H         1 POG801      0.0000 
     37 H5        -35.5790   37.9760   40.7270 H         1 POG801      0.0000 
     38 HO1       -33.9320   27.9710   44.9180 H         1 POG801      0.0000 
     39 H41       -34.5980   30.0840   46.1230 H         1 POG801      0.0000 
     40 H42       -35.7610   29.0150   46.2090 H         1 POG801      0.0000 
     41 H6        -36.3050   29.9780   44.2730 H         1 POG801      0.0000 
     42 H71       -37.2060   28.0790   43.2530 H         1 POG801      0.0000 
     43 H72       -36.2910   27.3530   42.1940 H         1 POG801      0.0000 
     44 H8        -37.2070   28.7990   40.8240 H         1 POG801      0.0000 
     45 H91       -36.6130   30.4200   39.4950 H         1 POG801      0.0000 
     46 H92       -35.0670   30.7570   39.5050 H         1 POG801      0.0000 
     47 H10       -37.0870   32.2670   40.8100 H         1 POG801      0.0000 
     48 H111      -36.9220   33.4940   37.5910 H         1 POG801      0.0000 
     49 H112      -36.8950   31.9600   38.0270 H         1 POG801      0.0000 
     50 H12       -34.4300   32.3540   38.1170 H         1 POG801      0.0000 
     51 H131      -35.2410   35.5960   36.4670 H         1 POG801      0.0000 
     52 H132      -35.5610   35.0620   37.9140 H         1 POG801      0.0000 
     53 H14       -33.0530   35.4010   38.2070 H         1 POG801      0.0000 
     54 H151      -33.7790   35.8170   40.3370 H         1 POG801      0.0000 
     55 H152      -35.3200   35.8130   39.9600 H         1 POG801      0.0000 
     56 H161      -33.6590   38.8660   39.8590 H         1 POG801      0.0000 
     57 H162      -32.7540   37.9910   40.8200 H         1 POG801      0.0000 
     58 H163      -33.6100   39.1860   41.4090 H         1 POG801      0.0000 
     59 H171      -32.3770   37.3880   37.1370 H         1 POG801      0.0000 
     60 H172      -33.7490   37.4330   36.3470 H         1 POG801      0.0000 
     61 H173      -32.6980   36.2880   36.0430 H         1 POG801      0.0000 
     62 H181      -36.1300   31.3310   36.2680 H         1 POG801      0.0000 
     63 H182      -34.7560   30.7150   36.7600 H         1 POG801      0.0000 
     64 H183      -34.7740   31.7660   35.5750 H         1 POG801      0.0000 
     65 H191      -34.4530   32.0600   41.4770 H         1 POG801      0.0000 
     66 H192      -35.6010   32.7720   42.3030 H         1 POG801      0.0000 
     67 H193      -34.8300   33.5670   41.1710 H         1 POG801      0.0000 
     68 H201      -38.4760   29.6980   42.7620 H         1 POG801      0.0000 
     69 H202      -38.4050   30.5770   41.4470 H         1 POG801      0.0000 
     70 H203      -37.4490   30.9010   42.6680 H         1 POG801      0.0000 
     71 H211      -34.8790   31.5830   43.8390 H         1 POG801      0.0000 
     72 H212      -34.2200   30.5420   42.8440 H         1 POG801      0.0000 
     73 H213      -33.6410   30.7130   44.3080 H         1 POG801      0.0000 
@<TRIPOS>BOND
     1    1    2 1    
     2    2    3 1    
     3    1   30 1    
     4    2    4 1    
     5    2   31 1    
     6    3   32 1    
     7    3   33 1    
     8    3   34 1    
     9    4    5 1    
    10    4   35 1    
    11    4   36 1    
    12    5    6 1    
    13    6   23 1    
    14    6   24 1    
    15    6   37 1    
    16    7    8 1    
    17    8    9 1    
    18    7   38 1    
    19    8   39 1    
    20    8   40 1    
    21    9   10 1    
    22    9   29 1    
    23    9   41 1    
    24   10   11 1    
    25   11   12 1    
    26   11   42 1    
    27   11   43 1    
    28   12   13 1    
    29   12   28 1    
    30   12   44 1    
    31   13   14 1    
    32   14   15 1    
    33   14   45 1    
    34   14   46 1    
    35   15   16 1    
    36   15   27 1    
    37   15   47 1    
    38   16   17 1    
    39   17   18 1    
    40   17   48 1    
    41   17   49 1    
    42   18   19 1    
    43   18   26 1    
    44   18   50 1    
    45   19   20 1    
    46   20   21 1    
    47   20   51 1    
    48   20   52 1    
    49   21   22 1    
    50   21   25 1    
    51   21   53 1    
    52   22   23 1    
    53   23   54 1    
    54   23   55 1    
    55   24   56 1    
    56   24   57 1    
    57   24   58 1    
    58   25   59 1    
    59   25   60 1    
    60   25   61 1    
    61   26   62 1    
    62   26   63 1    
    63   26   64 1    
    64   27   66 1    
    65   27   65 1    
    66   27   67 1    
    67   28   68 1    
    68   28   69 1    
    69   28   70 1    
    70   29   71 1    
    71   29   72 1    
    72   29   73 1    
@<TRIPOS>SUBSTRUCTURE
     1 POG801      1 GROUP   
@<TRIPOS>SET

