#    Name: 6bpm_5_POG
#    Modification time : Fri May 22 19:30:28 2020

@<TRIPOS>MOLECULE
6bpm_5_POG
   73    72     1     0     0
SMALL
NO_CHARGES


@<TRIPOS>ATOM
      1 OH        -29.6880   14.9900   49.0910 O.3       1 POG802      0.0000 
      2 C2        -30.0970   16.2510   48.6270 C.3       1 POG802      0.0000 
      3 C1        -31.6220   16.3500   48.7240 C.3       1 POG802      0.0000 
      4 C3        -29.6180   16.4560   47.1740 C.3       1 POG802      0.0000 
      5 O2        -29.8230   17.7690   46.7090 O.3       1 POG802      0.0000 
      6 C5        -29.1560   18.8060   47.3850 C.3       1 POG802      0.0000 
      7 O1        -33.3220   35.6790   47.3910 O.3       1 POG802      0.0000 
      8 C4        -33.6100   35.0430   48.6060 C.3       1 POG802      0.0000 
      9 C6        -32.3110   34.8080   49.3930 C.3       1 POG802      0.0000 
     10 O3        -32.1500   33.4500   49.7260 O.3       1 POG802      0.0000 
     11 C7        -33.2520   32.8060   50.3200 C.3       1 POG802      0.0000 
     12 C8        -32.8050   31.6000   51.1520 C.3       1 POG802      0.0000 
     13 O4        -32.8130   30.4400   50.3460 O.3       1 POG802      0.0000 
     14 C9        -31.6180   30.0890   49.6790 C.3       1 POG802      0.0000 
     15 C10       -31.3910   28.5720   49.7150 C.3       1 POG802      0.0000 
     16 O5        -31.2990   28.0460   48.4140 O.3       1 POG802      0.0000 
     17 C11       -30.6160   26.8190   48.2820 C.3       1 POG802      0.0000 
     18 C12       -31.6010   25.6440   48.2320 C.3       1 POG802      0.0000 
     19 O6        -31.0160   24.4500   48.7330 O.3       1 POG802      0.0000 
     20 C13       -30.5540   23.4130   47.8960 C.3       1 POG802      0.0000 
     21 C14       -30.5760   22.0800   48.6610 C.3       1 POG802      0.0000 
     22 O7        -29.7800   21.1380   47.9640 O.3       1 POG802      0.0000 
     23 C15       -30.2140   19.7980   47.9110 C.3       1 POG802      0.0000 
     24 C16       -28.1430   19.4300   46.4260 C.3       1 POG802      0.0000 
     25 C17       -32.0360   21.6350   48.8130 C.3       1 POG802      0.0000 
     26 C18       -32.1190   25.5360   46.7960 C.3       1 POG802      0.0000 
     27 C19       -32.5360   27.8810   50.4590 C.3       1 POG802      0.0000 
     28 C20       -33.7570   31.4190   52.3440 C.3       1 POG802      0.0000 
     29 C21       -32.2870   35.6450   50.6720 C.3       1 POG802      0.0000 
     30 HOH       -30.0980   14.8070   49.8130 H         1 POG802      0.0000 
     31 H2        -29.7010   16.9370   49.1880 H         1 POG802      0.0000 
     32 H11       -31.8630   16.8550   49.5160 H         1 POG802      0.0000 
     33 H12A      -31.9680   16.7970   47.9370 H         1 POG802      0.0000 
     34 H13       -32.0000   15.4580   48.7820 H         1 POG802      0.0000 
     35 H31       -30.0890   15.8390   46.5920 H         1 POG802      0.0000 
     36 H32       -28.6690   16.2580   47.1310 H         1 POG802      0.0000 
     37 H5        -28.6790   18.4300   48.1410 H         1 POG802      0.0000 
     38 HO1       -33.1390   36.4960   47.5360 H         1 POG802      0.0000 
     39 H41       -34.0390   34.1910   48.4300 H         1 POG802      0.0000 
     40 H42       -34.2060   35.6020   49.1290 H         1 POG802      0.0000 
     41 H6        -31.5630   35.0770   48.8370 H         1 POG802      0.0000 
     42 H71       -33.8570   32.5050   49.6250 H         1 POG802      0.0000 
     43 H72       -33.7150   33.4340   50.8960 H         1 POG802      0.0000 
     44 H8        -31.9060   31.7540   51.4810 H         1 POG802      0.0000 
     45 H91       -30.8710   30.5330   50.1100 H         1 POG802      0.0000 
     46 H92       -31.6720   30.3810   48.7560 H         1 POG802      0.0000 
     47 H10       -30.5620   28.3920   50.1840 H         1 POG802      0.0000 
     48 H111      -30.0930   26.8310   47.4650 H         1 POG802      0.0000 
     49 H112      -30.0210   26.7030   49.0390 H         1 POG802      0.0000 
     50 H12       -32.3550   25.8640   48.8020 H         1 POG802      0.0000 
     51 H131      -29.6470   23.6070   47.6120 H         1 POG802      0.0000 
     52 H132      -31.1290   23.3470   47.1170 H         1 POG802      0.0000 
     53 H14       -30.1970   22.2180   49.5430 H         1 POG802      0.0000 
     54 H151      -30.9930   19.7500   47.3350 H         1 POG802      0.0000 
     55 H152      -30.4740   19.5240   48.8040 H         1 POG802      0.0000 
     56 H161      -28.2480   20.3940   46.4280 H         1 POG802      0.0000 
     57 H162      -28.2950   19.0900   45.5300 H         1 POG802      0.0000 
     58 H163      -27.2450   19.2010   46.7110 H         1 POG802      0.0000 
     59 H171      -32.3800   21.3540   47.9510 H         1 POG802      0.0000 
     60 H172      -32.5670   22.3750   49.1470 H         1 POG802      0.0000 
     61 H173      -32.0850   20.8940   49.4370 H         1 POG802      0.0000 
     62 H181      -32.4680   26.3960   46.5130 H         1 POG802      0.0000 
     63 H182      -31.3920   25.2730   46.2100 H         1 POG802      0.0000 
     64 H183      -32.8240   24.8710   46.7560 H         1 POG802      0.0000 
     65 H191      -32.2750   26.9750   50.6840 H         1 POG802      0.0000 
     66 H192      -33.3240   27.8600   49.8930 H         1 POG802      0.0000 
     67 H193      -32.7350   28.3720   51.2720 H         1 POG802      0.0000 
     68 H201      -34.3970   30.7180   52.1430 H         1 POG802      0.0000 
     69 H202      -34.2290   32.2500   52.5090 H         1 POG802      0.0000 
     70 H203      -33.2460   31.1760   53.1320 H         1 POG802      0.0000 
     71 H211      -33.1880   35.9310   50.8870 H         1 POG802      0.0000 
     72 H212      -31.9340   35.1120   51.4010 H         1 POG802      0.0000 
     73 H213      -31.7240   36.4230   50.5380 H         1 POG802      0.0000 
@<TRIPOS>BOND
     1    1    2 1    
     2    2    3 1    
     3    1   30 1    
     4    2    4 1    
     5    2   31 1    
     6    3   32 1    
     7    3   33 1    
     8    3   34 1    
     9    4    5 1    
    10    4   35 1    
    11    4   36 1    
    12    5    6 1    
    13    6   23 1    
    14    6   24 1    
    15    6   37 1    
    16    7    8 1    
    17    8    9 1    
    18    7   38 1    
    19    8   39 1    
    20    8   40 1    
    21    9   10 1    
    22    9   29 1    
    23    9   41 1    
    24   10   11 1    
    25   11   12 1    
    26   11   42 1    
    27   11   43 1    
    28   12   13 1    
    29   12   28 1    
    30   12   44 1    
    31   13   14 1    
    32   14   15 1    
    33   14   45 1    
    34   14   46 1    
    35   15   16 1    
    36   15   27 1    
    37   15   47 1    
    38   16   17 1    
    39   17   18 1    
    40   17   48 1    
    41   17   49 1    
    42   18   19 1    
    43   18   26 1    
    44   18   50 1    
    45   19   20 1    
    46   20   21 1    
    47   20   51 1    
    48   20   52 1    
    49   21   22 1    
    50   21   25 1    
    51   21   53 1    
    52   22   23 1    
    53   23   54 1    
    54   23   55 1    
    55   24   56 1    
    56   24   57 1    
    57   24   58 1    
    58   25   59 1    
    59   25   60 1    
    60   25   61 1    
    61   26   62 1    
    62   26   63 1    
    63   26   64 1    
    64   27   66 1    
    65   27   65 1    
    66   27   67 1    
    67   28   68 1    
    68   28   69 1    
    69   28   70 1    
    70   29   71 1    
    71   29   72 1    
    72   29   73 1    
@<TRIPOS>SUBSTRUCTURE
     1 POG802      1 GROUP   
@<TRIPOS>SET

