#    Name: 5o8t_4_SY9_CAVITY_N1_4
#    Modification time : Fri May 22 19:18:53 2020

@<TRIPOS>MOLECULE
5o8t_4_SY9_CAVITY_N1_4
  109     0     7     0     0
SMALL
NO_CHARGES


@<TRIPOS>ATOM
      1 OG         10.1800  -11.1200   16.7800 O.3       1 SER1        0.0000 
      2 OG          9.9600  -10.4500   18.7800 O.3       1 SER1        0.0000 
      3 OG         10.1900   -9.0400   17.2100 O.3       1 SER1        0.0000 
      4 OG          8.9500   -8.5900   20.2900 O.3       1 SER1        0.0000 
      5 OG         17.6800  -12.7500   19.3100 O.3       1 SER1        0.0000 
      6 OG         16.9000  -11.5700   18.8200 O.3       1 SER1        0.0000 
      7 OG          9.7400   -7.7000   21.2100 O.3       1 SER1        0.0000 
      8 OG         10.7500   -7.4800   20.1200 O.3       1 SER1        0.0000 
      9 OG          9.9700   -6.2900   19.6300 O.3       1 SER1        0.0000 
     10 OG         16.6800  -10.8900   20.8200 O.3       1 SER1        0.0000 
     11 OG         16.9100   -9.4900   19.2500 O.3       1 SER1        0.0000 
     12 OG         10.7600   -5.4000   20.5500 O.3       1 SER1        0.0000 
     13 OG         11.5500   -4.5100   21.4600 O.3       1 SER1        0.0000 
     14 OG         15.9100   -5.5500   21.1900 O.3       1 SER1        0.0000 
     15 N          12.5200  -14.6800   18.2500 N.am      2 ALA2        0.0000 
     16 N          11.7400  -13.4900   17.7600 N.am      2 ALA2        0.0000 
     17 O          10.9600  -12.3100   17.2700 O.2       2 ALA2        0.0000 
     18 N          13.3000  -13.7900   19.1600 N.am      2 ALA2        0.0000 
     19 N          11.5100  -12.8200   19.7600 N.am      2 ALA2        0.0000 
     20 N          12.5300  -12.6000   18.6700 N.am      2 ALA2        0.0000 
     21 N          10.7300  -11.6300   19.2700 N.am      2 ALA2        0.0000 
     22 N          16.6600  -15.0500   19.9700 N.am      2 ALA2        0.0000 
     23 N          17.6700  -14.8300   18.8900 N.am      2 ALA2        0.0000 
     24 N          15.1000  -12.6800   18.9900 N.am      2 ALA2        0.0000 
     25 N          13.3100  -11.7100   19.5900 N.am      2 ALA2        0.0000 
     26 N          14.3300  -11.4900   18.5100 N.am      2 ALA2        0.0000 
     27 N          11.5200  -10.7400   20.1800 N.am      2 ALA2        0.0000 
     28 N          17.4400  -14.1600   20.8900 N.am      2 ALA2        0.0000 
     29 N          15.8900  -11.7900   19.9100 N.am      2 ALA2        0.0000 
     30 N          14.1000  -10.8200   20.5000 N.am      2 ALA2        0.0000 
     31 N          15.6600  -11.1100   21.9100 N.am      2 ALA2        0.0000 
     32 N          17.9200   -9.2700   18.1700 N.am      2 ALA2        0.0000 
     33 N          16.1300   -8.3000   18.7600 N.am      2 ALA2        0.0000 
     34 N          15.3600   -7.1200   18.2700 N.am      2 ALA2        0.0000 
     35 N          16.1400   -6.2300   19.1900 N.am      2 ALA2        0.0000 
     36 N          16.9300   -5.3300   20.1000 N.am      2 ALA2        0.0000 
     37 OD1        15.8700  -15.9400   19.0600 O.co2     3 ASP3        0.0000 
     38 OD1        15.0900  -14.7600   18.5700 O.co2     3 ASP3        0.0000 
     39 NZ          8.9300  -12.7400   19.4400 N.4       4 LYS4        0.0000 
     40 NZ         18.4600  -13.9400   19.8000 N.4       4 LYS4        0.0000 
     41 CZ         10.9800   -8.1500   18.1200 C.ar      5 PHE5        0.0000 
     42 CZ         11.9900   -7.9300   17.0400 C.ar      5 PHE5        0.0000 
     43 CZ         11.5300   -8.6600   20.6100 C.ar      5 PHE5        0.0000 
     44 CZ         11.7600   -7.2600   19.0400 C.ar      5 PHE5        0.0000 
     45 CZ         12.7800   -7.0400   17.9500 C.ar      5 PHE5        0.0000 
     46 CZ         13.7900   -6.8200   16.8700 C.ar      5 PHE5        0.0000 
     47 CZ         14.8800   -9.9300   21.4200 C.ar      5 PHE5        0.0000 
     48 CZ         15.9000   -9.7100   20.3300 C.ar      5 PHE5        0.0000 
     49 CZ         14.1100   -8.7400   20.9300 C.ar      5 PHE5        0.0000 
     50 CZ         12.3100   -7.7700   21.5200 C.ar      5 PHE5        0.0000 
     51 CZ         13.3300   -7.5500   20.4400 C.ar      5 PHE5        0.0000 
     52 CZ         10.5200   -6.8000   22.1200 C.ar      5 PHE5        0.0000 
     53 CZ         11.5400   -6.5900   21.0400 C.ar      5 PHE5        0.0000 
     54 CZ         12.5500   -6.3700   19.9500 C.ar      5 PHE5        0.0000 
     55 CZ         13.5600   -6.1500   18.8700 C.ar      5 PHE5        0.0000 
     56 CZ         14.5800   -5.9300   17.7800 C.ar      5 PHE5        0.0000 
     57 CZ         15.5900   -5.7100   16.7000 C.ar      5 PHE5        0.0000 
     58 CZ         11.7700   -5.1800   19.4600 C.ar      5 PHE5        0.0000 
     59 CZ         12.7900   -4.9600   18.3800 C.ar      5 PHE5        0.0000 
     60 CZ         13.8000   -4.7500   17.3000 C.ar      5 PHE5        0.0000 
     61 CZ         15.6700   -9.0300   22.3300 C.ar      5 PHE5        0.0000 
     62 CZ         16.6800   -8.8100   21.2500 C.ar      5 PHE5        0.0000 
     63 CZ         14.8900   -7.8500   21.8400 C.ar      5 PHE5        0.0000 
     64 CZ         15.9100   -7.6300   20.7600 C.ar      5 PHE5        0.0000 
     65 CZ         16.9200   -7.4100   19.6800 C.ar      5 PHE5        0.0000 
     66 CZ         14.1100   -6.6600   21.3600 C.ar      5 PHE5        0.0000 
     67 CZ         15.1300   -6.4400   20.2700 C.ar      5 PHE5        0.0000 
     68 CZ         13.3400   -5.4800   20.8700 C.ar      5 PHE5        0.0000 
     69 CZ         15.3600   -5.0400   18.7000 C.ar      5 PHE5        0.0000 
     70 CZ         16.3800   -4.8200   17.6100 C.ar      5 PHE5        0.0000 
     71 CZ         12.5600   -4.2900   20.3800 C.ar      5 PHE5        0.0000 
     72 CZ         13.5700   -4.0700   19.2900 C.ar      5 PHE5        0.0000 
     73 CZ         14.5900   -3.8500   18.2100 C.ar      5 PHE5        0.0000 
     74 CZ         16.6900   -6.7400   21.6700 C.ar      5 PHE5        0.0000 
     75 CZ         15.1400   -4.3600   20.7000 C.ar      5 PHE5        0.0000 
     76 CZ         16.1500   -4.1500   19.6100 C.ar      5 PHE5        0.0000 
     77 CA         10.7300  -13.7100   18.8400 C.3       6 GLY6        0.0000 
     78 CA         10.5000  -13.0400   20.8400 C.3       6 GLY6        0.0000 
     79 CA         11.7500  -11.4200   18.1900 C.3       6 GLY6        0.0000 
     80 CA         12.7600  -11.2000   17.1000 C.3       6 GLY6        0.0000 
     81 CA         10.9700  -10.2300   17.7000 C.3       6 GLY6        0.0000 
     82 CA         16.8900  -13.6500   18.4000 C.3       6 GLY6        0.0000 
     83 CA         16.1200  -12.4600   17.9100 C.3       6 GLY6        0.0000 
     84 CA         15.3400  -11.2700   17.4200 C.3       6 GLY6        0.0000 
     85 CA         13.5500  -10.3100   18.0200 C.3       6 GLY6        0.0000 
     86 CA         14.5600  -10.0900   16.9300 C.3       6 GLY6        0.0000 
     87 CA         11.7600   -9.3400   18.6100 C.3       6 GLY6        0.0000 
     88 CA         12.7700   -9.1200   17.5300 C.3       6 GLY6        0.0000 
     89 CA          9.9700   -8.3700   19.2100 C.3       6 GLY6        0.0000 
     90 CA          9.1900   -7.1800   18.7200 C.3       6 GLY6        0.0000 
     91 CA         19.4700  -13.7200   18.7200 C.3       6 GLY6        0.0000 
     92 CA         17.1400  -10.1600   17.2500 C.3       6 GLY6        0.0000 
     93 CA         12.3100   -9.8500   21.1000 C.3       6 GLY6        0.0000 
     94 CA         16.3600   -8.9800   16.7600 C.3       6 GLY6        0.0000 
     95 CA         14.5700   -8.0100   17.3600 C.3       6 GLY6        0.0000 
     96 CA         15.5800   -7.7900   16.2700 C.3       6 GLY6        0.0000 
     97 DU          9.9500  -12.5300   18.3600 H         7 CUB7        0.0000 
     98 DU         12.5300  -10.5200   19.1000 H         7 CUB7        0.0000 
     99 DU         10.7400   -9.5600   19.7000 H         7 CUB7        0.0000 
    100 DU         15.1100  -10.6000   19.4200 H         7 CUB7        0.0000 
    101 DU         16.1200  -10.3800   18.3400 H         7 CUB7        0.0000 
    102 DU         13.3200   -9.6300   20.0100 H         7 CUB7        0.0000 
    103 DU         14.3300   -9.4100   18.9300 H         7 CUB7        0.0000 
    104 DU         15.3500   -9.2000   17.8500 H         7 CUB7        0.0000 
    105 DU         12.5400   -8.4500   19.5300 H         7 CUB7        0.0000 
    106 DU         13.5600   -8.2300   18.4400 H         7 CUB7        0.0000 
    107 DU         15.1200   -8.5200   19.8500 H         7 CUB7        0.0000 
    108 DU         14.3400   -7.3400   19.3600 H         7 CUB7        0.0000 
    109 DU         14.3500   -5.2600   19.7800 H         7 CUB7        0.0000 
@<TRIPOS>BOND
@<TRIPOS>SUBSTRUCTURE
     1 SER1        1 GROUP   
     2 ALA2       15 GROUP   
     3 ASP3       37 GROUP   
     4 LYS4       39 GROUP   
     5 PHE5       41 GROUP   
     6 GLY6       77 GROUP   
     7 CUB7       97 GROUP   
@<TRIPOS>SET

