#    Name: 5o8t_1_SY9
#    Modification time : Fri May 22 19:18:37 2020

@<TRIPOS>MOLECULE
5o8t_1_SY9
   25    31     1     0     0
SMALL
NO_CHARGES


@<TRIPOS>ATOM
      1 CAV        12.1220    4.0250  -29.1670 C.3       1 SY9601      0.0000 
      2 CAU        10.8920    3.6510  -29.9770 C.3       1 SY9601      0.0000 
      3 CAT         9.7480    4.6020  -29.5970 C.3       1 SY9601      0.0000 
      4 CAN        10.1370    5.9850  -30.1480 C.3       1 SY9601      0.0000 
      5 CAK        11.4540    6.5110  -29.5770 C.3       1 SY9601      0.0000 
      6 NAH        11.9840    7.4680  -30.5820 N.am      1 SY9601      0.0000 
      7 CAA        13.1350    6.9080  -31.2040 C.ar      1 SY9601      0.0000 
      8 CAF        13.8870    7.3950  -32.2680 C.ar      1 SY9601      0.0000 
      9 CAE        15.0070    6.6820  -32.6700 C.ar      1 SY9601      0.0000 
     10 CAD        15.3540    5.4970  -32.0440 C.ar      1 SY9601      0.0000 
     11 CAC        14.5980    5.0130  -30.9910 C.ar      1 SY9601      0.0000 
     12 CAB        13.4910    5.7300  -30.5590 C.ar      1 SY9601      0.0000 
     13 CAG        12.6040    5.4840  -29.3710 C.3       1 SY9601      0.0000 
     14 CAW        13.3300    5.7450  -28.0440 C.3       1 SY9601      0.0000 
     15 CAX        12.3950    5.1000  -27.0360 C.3       1 SY9601      0.0000 
     16 NAY        11.8770    3.8880  -27.7030 N.4       1 SY9601      0.0000 
     17 CAS        10.4700    3.6220  -27.3750 C.3       1 SY9601      0.0000 
     18 CAR         9.5320    4.5550  -28.0960 C.2       1 SY9601      0.0000 
     19 CAQ         8.6360    5.3040  -27.4770 C.2       1 SY9601      0.0000 
     20 CAP         7.7970    6.3050  -28.2080 C.3       1 SY9601      0.0000 
     21 OAO         8.6050    7.3650  -28.7530 O.3       1 SY9601      0.0000 
     22 CAM         9.1170    7.1220  -30.0660 C.3       1 SY9601      0.0000 
     23 CAL         9.7630    8.4450  -30.4840 C.3       1 SY9601      0.0000 
     24 CAI        11.1170    8.3660  -31.1440 C.2       1 SY9601      0.0000 
     25 OAJ        11.4030    9.0400  -32.1190 O.2       1 SY9601      0.0000 
@<TRIPOS>BOND
     1    1    2 1    
     2    1   13 1    
     3    1   16 1    
     4    2    3 1    
     5    3    4 1    
     6    3   18 1    
     7    4    5 1    
     8    4   22 1    
     9    5    6 1    
    10    5   13 1    
    11    6    7 1    
    12    6   24 am   
    13    7    8 ar   
    14    7   12 ar   
    15    8    9 ar   
    16    9   10 ar   
    17   10   11 ar   
    18   11   12 ar   
    19   12   13 1    
    20   13   14 1    
    21   14   15 1    
    22   15   16 1    
    23   16   17 1    
    24   17   18 1    
    25   18   19 2    
    26   19   20 1    
    27   20   21 1    
    28   21   22 1    
    29   22   23 1    
    30   23   24 1    
    31   24   25 2    
@<TRIPOS>SUBSTRUCTURE
     1 SY9601      1 GROUP   
@<TRIPOS>SET

