#    Name: 5o8t_5_SY9_CAVITY_N1_6
#    Modification time : Fri May 22 19:18:57 2020

@<TRIPOS>MOLECULE
5o8t_5_SY9_CAVITY_N1_6
  148     0     7     0     0
SMALL
NO_CHARGES


@<TRIPOS>ATOM
      1 OG         -4.8900  -17.2800  -11.0000 O.3       1 SER1        0.0000 
      2 OG         -3.8800  -17.0600  -12.0900 O.3       1 SER1        0.0000 
      3 OG         -5.1200  -16.6000   -9.0000 O.3       1 SER1        0.0000 
      4 OG         -4.1100  -16.3900  -10.0900 O.3       1 SER1        0.0000 
      5 OG         -3.0900  -16.1700  -11.1700 O.3       1 SER1        0.0000 
      6 OG         -4.3300  -15.7100   -8.0900 O.3       1 SER1        0.0000 
      7 OG         -2.3100  -15.2800  -10.2600 O.3       1 SER1        0.0000 
      8 OG         -1.2900  -15.0600  -11.3400 O.3       1 SER1        0.0000 
      9 OG         -0.2800  -14.8400  -12.4300 O.3       1 SER1        0.0000 
     10 OG          0.7300  -14.6200  -13.5100 O.3       1 SER1        0.0000 
     11 OG          1.7500  -14.4000  -14.5900 O.3       1 SER1        0.0000 
     12 OG          6.4200  -19.4400  -11.2400 O.3       1 SER1        0.0000 
     13 OG         -3.5500  -14.8200   -7.1800 O.3       1 SER1        0.0000 
     14 OG         -0.5100  -14.1700  -10.4300 O.3       1 SER1        0.0000 
     15 OG          1.5200  -13.7300  -12.6000 O.3       1 SER1        0.0000 
     16 OG          7.2100  -18.5500  -10.3200 O.3       1 SER1        0.0000 
     17 OG          5.4200  -17.5800   -9.7300 O.3       1 SER1        0.0000 
     18 OG         -3.0000  -15.3300   -4.6900 O.3       1 SER1        0.0000 
     19 OG         -2.7600  -13.9300   -6.2600 O.3       1 SER1        0.0000 
     20 OG         -1.7500  -13.7100   -7.3400 O.3       1 SER1        0.0000 
     21 OG         -0.7300  -13.4900   -8.4300 O.3       1 SER1        0.0000 
     22 OG          3.1600  -17.3400   -5.5600 O.3       1 SER1        0.0000 
     23 OG          1.3700  -16.3800   -4.9600 O.3       1 SER1        0.0000 
     24 OG          0.5900  -15.1900   -5.4500 O.3       1 SER1        0.0000 
     25 OG         -2.2100  -14.4400   -3.7700 O.3       1 SER1        0.0000 
     26 OG         -0.1800  -14.0000   -5.9400 O.3       1 SER1        0.0000 
     27 OG         -0.9600  -12.8200   -6.4300 O.3       1 SER1        0.0000 
     28 OG         -1.7400  -11.6300   -6.9200 O.3       1 SER1        0.0000 
     29 N           3.2900  -20.9300  -14.4700 N.am      2 ALA2        0.0000 
     30 N           2.5100  -19.7500  -14.9600 N.am      2 ALA2        0.0000 
     31 N           4.8500  -21.2300  -13.0700 N.am      2 ALA2        0.0000 
     32 N           3.2900  -18.8500  -14.0400 N.am      2 ALA2        0.0000 
     33 N           4.3100  -18.6400  -15.1300 N.am      2 ALA2        0.0000 
     34 N          -1.3000  -17.1400  -11.7700 N.am      2 ALA2        0.0000 
     35 N           5.6400  -20.3300  -12.1500 N.am      2 ALA2        0.0000 
     36 N           4.8600  -19.1500  -12.6400 N.am      2 ALA2        0.0000 
     37 N           4.0800  -17.9600  -13.1300 N.am      2 ALA2        0.0000 
     38 N           2.2900  -16.9900  -12.5300 N.am      2 ALA2        0.0000 
     39 N           3.3000  -16.7800  -13.6200 N.am      2 ALA2        0.0000 
     40 N          -0.5200  -16.2400  -10.8500 N.am      2 ALA2        0.0000 
     41 N           0.5000  -16.0300  -11.9400 N.am      2 ALA2        0.0000 
     42 N           2.5200  -15.5900  -14.1100 N.am      2 ALA2        0.0000 
     43 N           3.6200  -18.6900   -9.5600 N.am      2 ALA2        0.0000 
     44 N           4.6300  -18.4700  -10.6400 N.am      2 ALA2        0.0000 
     45 N           2.8400  -17.5100  -10.0500 N.am      2 ALA2        0.0000 
     46 N           3.8500  -17.2900  -11.1300 N.am      2 ALA2        0.0000 
     47 N           4.8700  -17.0700  -12.2100 N.am      2 ALA2        0.0000 
     48 N           5.8800  -16.8500  -13.3000 N.am      2 ALA2        0.0000 
     49 N           1.0500  -16.5400   -9.4500 N.am      2 ALA2        0.0000 
     50 N           2.0600  -16.3200  -10.5300 N.am      2 ALA2        0.0000 
     51 N           6.9800  -17.8800   -8.3200 N.am      2 ALA2        0.0000 
     52 N           5.1900  -16.9100   -7.7300 N.am      2 ALA2        0.0000 
     53 N           6.2000  -16.6900   -8.8100 N.am      2 ALA2        0.0000 
     54 N           4.4100  -15.7200   -8.2200 N.am      2 ALA2        0.0000 
     55 N           5.4300  -15.5000   -9.3000 N.am      2 ALA2        0.0000 
     56 N           4.9600  -16.2300   -5.7300 N.am      2 ALA2        0.0000 
     57 N           4.1800  -15.0500   -6.2200 N.am      2 ALA2        0.0000 
     58 N           5.2000  -14.8300   -7.3000 N.am      2 ALA2        0.0000 
     59 O          -2.9800  -11.1800   -3.8400 O.2       2 ALA2        0.0000 
     60 O          -1.9700  -10.9600   -4.9200 O.2       2 ALA2        0.0000 
     61 OD1         6.0900  -21.6800  -16.1500 O.co2     3 ASP3        0.0000 
     62 OD1         4.3000  -20.7100  -15.5500 O.co2     3 ASP3        0.0000 
     63 OD1         3.5200  -19.5300  -16.0400 O.co2     3 ASP3        0.0000 
     64 OD1         6.8800  -20.7900  -15.2300 O.co2     3 ASP3        0.0000 
     65 OD1         5.0900  -19.8200  -14.6400 O.co2     3 ASP3        0.0000 
     66 OD1        -4.7900  -14.3600   -4.0900 O.co2     3 ASP3        0.0000 
     67 OD1        -4.0000  -13.4700   -3.1800 O.co2     3 ASP3        0.0000 
     68 NZ          4.8400  -23.3000  -13.4900 N.4       4 LYS4        0.0000 
     69 NZ          5.8600  -23.0900  -14.5800 N.4       4 LYS4        0.0000 
     70 NZ          6.6400  -22.1900  -13.6600 N.4       4 LYS4        0.0000 
     71 NZ          5.8600  -21.0100  -14.1500 N.4       4 LYS4        0.0000 
     72 NZ         -2.0800  -15.9500  -12.2600 N.4       4 LYS4        0.0000 
     73 NZ         -1.0700  -15.7300  -13.3400 N.4       4 LYS4        0.0000 
     74 NZ         -0.0500  -15.5100  -14.4200 N.4       4 LYS4        0.0000 
     75 NZ          7.4300  -21.3000  -12.7500 N.4       4 LYS4        0.0000 
     76 CZ         -1.5300  -16.4600   -9.7700 C.ar      5 PHE5        0.0000 
     77 CZ         -5.3500  -15.9300   -7.0100 C.ar      5 PHE5        0.0000 
     78 CZ          2.6000  -18.9100   -8.4700 C.ar      5 PHE5        0.0000 
     79 CZ          1.8300  -17.7200   -8.9600 C.ar      5 PHE5        0.0000 
     80 CZ          0.0300  -16.7600   -8.3700 C.ar      5 PHE5        0.0000 
     81 CZ         -1.7600  -15.7900   -7.7700 C.ar      5 PHE5        0.0000 
     82 CZ         -0.7400  -15.5700   -8.8500 C.ar      5 PHE5        0.0000 
     83 CZ         -4.5600  -15.0400   -6.0900 C.ar      5 PHE5        0.0000 
     84 CZ          0.5100  -13.9500  -11.5100 C.ar      5 PHE5        0.0000 
     85 CZ          3.3900  -18.0200   -7.5600 C.ar      5 PHE5        0.0000 
     86 CZ          4.4000  -17.8000   -8.6400 C.ar      5 PHE5        0.0000 
     87 CZ          1.6000  -17.0500   -6.9600 C.ar      5 PHE5        0.0000 
     88 CZ          2.6100  -16.8300   -8.0500 C.ar      5 PHE5        0.0000 
     89 CZ          0.8200  -15.8600   -7.4500 C.ar      5 PHE5        0.0000 
     90 CZ         -1.9800  -15.1100   -5.7700 C.ar      5 PHE5        0.0000 
     91 CZ         -0.9700  -14.9000   -6.8600 C.ar      5 PHE5        0.0000 
     92 CZ          0.0400  -14.6800   -7.9400 C.ar      5 PHE5        0.0000 
     93 CZ          1.0600  -14.4600   -9.0200 C.ar      5 PHE5        0.0000 
     94 CZ          2.0700  -14.2400  -10.1100 C.ar      5 PHE5        0.0000 
     95 CZ          4.1800  -17.1300   -6.6400 C.ar      5 PHE5        0.0000 
     96 CZ          2.3800  -16.1600   -6.0500 C.ar      5 PHE5        0.0000 
     97 CZ          2.6200  -14.7500   -7.6200 C.ar      5 PHE5        0.0000 
     98 CZ          3.6300  -14.5400   -8.7100 C.ar      5 PHE5        0.0000 
     99 CZ         -1.2000  -14.2200   -4.8600 C.ar      5 PHE5        0.0000 
    100 CZ          0.8300  -13.7900   -7.0300 C.ar      5 PHE5        0.0000 
    101 CZ          2.8600  -13.3500   -9.1900 C.ar      5 PHE5        0.0000 
    102 CZ          3.1700  -15.2700   -5.1300 C.ar      5 PHE5        0.0000 
    103 CZ          2.3900  -14.0800   -5.6200 C.ar      5 PHE5        0.0000 
    104 CZ          3.4100  -13.8600   -6.7100 C.ar      5 PHE5        0.0000 
    105 CZ          4.4200  -13.6400   -7.7900 C.ar      5 PHE5        0.0000 
    106 CZ          5.4300  -13.4300   -8.8800 C.ar      5 PHE5        0.0000 
    107 CZ          0.6000  -13.1100   -5.0300 C.ar      5 PHE5        0.0000 
    108 CA          3.2800  -23.0100  -14.8900 C.3       6 GLY6        0.0000 
    109 CA          4.0600  -22.1200  -13.9800 C.3       6 GLY6        0.0000 
    110 CA          2.5200  -17.6700  -14.5300 C.3       6 GLY6        0.0000 
    111 CA         -2.3200  -17.3500  -10.6800 C.3       6 GLY6        0.0000 
    112 CA          1.7400  -16.4800  -15.0200 C.3       6 GLY6        0.0000 
    113 CA          6.6500  -20.1200  -13.2400 C.3       6 GLY6        0.0000 
    114 CA          5.8700  -18.9300  -13.7200 C.3       6 GLY6        0.0000 
    115 CA          6.8900  -18.7100  -14.8100 C.3       6 GLY6        0.0000 
    116 CA          1.5100  -15.8100  -13.0200 C.3       6 GLY6        0.0000 
    117 CA          8.2100  -20.4100  -11.8300 C.3       6 GLY6        0.0000 
    118 CA          5.6400  -18.2600  -11.7300 C.3       6 GLY6        0.0000 
    119 CA          3.0800  -16.1000  -11.6200 C.3       6 GLY6        0.0000 
    120 CA          4.0900  -15.8800  -12.7000 C.3       6 GLY6        0.0000 
    121 CA          2.3000  -14.9200  -12.1100 C.3       6 GLY6        0.0000 
    122 CA         -5.3400  -13.8500   -6.5800 C.3       6 GLY6        0.0000 
    123 CA          6.4300  -17.3600  -10.8100 C.3       6 GLY6        0.0000 
    124 CA          5.6500  -16.1800  -11.3000 C.3       6 GLY6        0.0000 
    125 CA          3.8600  -15.2100  -10.7000 C.3       6 GLY6        0.0000 
    126 CA          3.0800  -14.0200  -11.1900 C.3       6 GLY6        0.0000 
    127 CA         -4.5500  -12.9600   -5.6700 C.3       6 GLY6        0.0000 
    128 CA          6.4400  -15.2900  -10.3900 C.3       6 GLY6        0.0000 
    129 CA          4.6500  -14.3200   -9.7900 C.3       6 GLY6        0.0000 
    130 CA          3.8700  -13.1300  -10.2800 C.3       6 GLY6        0.0000 
    131 CA         -2.7500  -11.8500   -5.8400 C.3       6 GLY6        0.0000 
    132 CA         -3.2200  -12.5800   -2.2600 C.3       6 GLY6        0.0000 
    133 CA         -2.2000  -12.3600   -3.3500 C.3       6 GLY6        0.0000 
    134 CA         -1.1900  -12.1400   -4.4300 C.3       6 GLY6        0.0000 
    135 DU          5.0800  -21.9000  -15.0600 H         7 CUB7        0.0000 
    136 DU          7.6500  -21.9800  -14.7500 H         7 CUB7        0.0000 
    137 DU          0.2700  -15.3500   -9.9400 H         7 CUB7        0.0000 
    138 DU          1.2800  -15.1300  -11.0200 H         7 CUB7        0.0000 
    139 DU          3.6300  -16.6100   -9.1300 H         7 CUB7        0.0000 
    140 DU          4.6400  -16.4000  -10.2200 H         7 CUB7        0.0000 
    141 DU          1.8300  -15.6500   -8.5400 H         7 CUB7        0.0000 
    142 DU          2.8500  -15.4300   -9.6200 H         7 CUB7        0.0000 
    143 DU         -3.7800  -14.1500   -5.1800 H         7 CUB7        0.0000 
    144 DU          3.4000  -15.9400   -7.1300 H         7 CUB7        0.0000 
    145 DU          1.6100  -14.9700   -6.5400 H         7 CUB7        0.0000 
    146 DU         -2.9900  -13.2500   -4.2600 H         7 CUB7        0.0000 
    147 DU         -1.9800  -13.0400   -5.3500 H         7 CUB7        0.0000 
    148 DU         -3.7700  -12.0700   -4.7500 H         7 CUB7        0.0000 
@<TRIPOS>BOND
@<TRIPOS>SUBSTRUCTURE
     1 SER1        1 GROUP   
     2 ALA2       29 GROUP   
     3 ASP3       61 GROUP   
     4 LYS4       68 GROUP   
     5 PHE5       76 GROUP   
     6 GLY6      108 GROUP   
     7 CUB7      135 GROUP   
@<TRIPOS>SET

