#    Name: 5o8t_3_SY9
#    Modification time : Fri May 22 19:18:48 2020

@<TRIPOS>MOLECULE
5o8t_3_SY9
   25    31     1     0     0
SMALL
NO_CHARGES


@<TRIPOS>ATOM
      1 CAV        30.5250   20.0990   14.6250 C.3       1 SY9601      0.0000 
      2 CAU        30.5930   21.6230   14.6550 C.3       1 SY9601      0.0000 
      3 CAT        29.1820   22.1720   14.9210 C.3       1 SY9601      0.0000 
      4 CAN        28.8620   21.8060   16.3760 C.3       1 SY9601      0.0000 
      5 CAK        28.8830   20.2990   16.6420 C.3       1 SY9601      0.0000 
      6 NAH        29.1880   20.1490   18.0870 N.am      1 SY9601      0.0000 
      7 CAA        30.5240   19.7150   18.2300 C.ar      1 SY9601      0.0000 
      8 CAF        31.3360   19.7160   19.3630 C.ar      1 SY9601      0.0000 
      9 CAE        32.6000   19.1540   19.2670 C.ar      1 SY9601      0.0000 
     10 CAD        33.0420   18.5980   18.0750 C.ar      1 SY9601      0.0000 
     11 CAC        32.2350   18.6150   16.9470 C.ar      1 SY9601      0.0000 
     12 CAB        30.9780   19.1980   17.0200 C.ar      1 SY9601      0.0000 
     13 CAG        29.9780   19.4500   15.9200 C.3       1 SY9601      0.0000 
     14 CAW        29.4010   18.1290   15.3740 C.3       1 SY9601      0.0000 
     15 CAX        28.7800   18.5360   14.0540 C.3       1 SY9601      0.0000 
     16 NAY        29.6370   19.6140   13.5340 N.4       1 SY9601      0.0000 
     17 CAS        28.8600   20.6890   12.9000 C.3       1 SY9601      0.0000 
     18 CAR        28.2110   21.6080   13.8990 C.2       1 SY9601      0.0000 
     19 CAQ        26.9090   21.8550   13.9230 C.2       1 SY9601      0.0000 
     20 CAP        26.2540   22.6640   15.0020 C.3       1 SY9601      0.0000 
     21 OAO        26.3890   22.0280   16.2880 O.3       1 SY9601      0.0000 
     22 CAM        27.5840   22.3570   17.0040 C.3       1 SY9601      0.0000 
     23 CAL        27.3810   21.7610   18.4070 C.3       1 SY9601      0.0000 
     24 CAI        28.5020   20.9270   18.9830 C.2       1 SY9601      0.0000 
     25 OAJ        28.7680   20.9520   20.1710 O.2       1 SY9601      0.0000 
@<TRIPOS>BOND
     1    1    2 1    
     2    1   13 1    
     3    1   16 1    
     4    2    3 1    
     5    3    4 1    
     6    3   18 1    
     7    4    5 1    
     8    4   22 1    
     9    5    6 1    
    10    5   13 1    
    11    6    7 1    
    12    6   24 am   
    13    7    8 ar   
    14    7   12 ar   
    15    8    9 ar   
    16    9   10 ar   
    17   10   11 ar   
    18   11   12 ar   
    19   12   13 1    
    20   13   14 1    
    21   14   15 1    
    22   15   16 1    
    23   16   17 1    
    24   17   18 1    
    25   18   19 2    
    26   19   20 1    
    27   20   21 1    
    28   21   22 1    
    29   22   23 1    
    30   23   24 1    
    31   24   25 2    
@<TRIPOS>SUBSTRUCTURE
     1 SY9601      1 GROUP   
@<TRIPOS>SET

