#    Name: 5o8t_2_SY9
#    Modification time : Fri May 22 19:18:43 2020

@<TRIPOS>MOLECULE
5o8t_2_SY9
   25    31     1     0     0
SMALL
NO_CHARGES


@<TRIPOS>ATOM
      1 CAV        28.7590   27.1320  -15.2340 C.3       1 SY9601      0.0000 
      2 CAU        28.3710   28.1310  -16.3150 C.3       1 SY9601      0.0000 
      3 CAT        26.9250   28.5820  -16.0690 C.3       1 SY9601      0.0000 
      4 CAN        26.9890   29.4460  -14.8110 C.3       1 SY9601      0.0000 
      5 CAK        27.4390   28.6460  -13.5890 C.3       1 SY9601      0.0000 
      6 NAH        27.9230   29.6340  -12.5980 N.am      1 SY9601      0.0000 
      7 CAA        29.3260   29.5070  -12.4380 C.ar      1 SY9601      0.0000 
      8 CAF        30.1910   30.2500  -11.6390 C.ar      1 SY9601      0.0000 
      9 CAE        31.5390   29.9210  -11.6400 C.ar      1 SY9601      0.0000 
     10 CAD        32.0160   28.8860  -12.4340 C.ar      1 SY9601      0.0000 
     11 CAC        31.1490   28.1530  -13.2310 C.ar      1 SY9601      0.0000 
     12 CAB        29.7930   28.4500  -13.2150 C.ar      1 SY9601      0.0000 
     13 CAG        28.6370   27.6710  -13.7880 C.3       1 SY9601      0.0000 
     14 CAW        28.4230   26.3620  -13.0100 C.3       1 SY9601      0.0000 
     15 CAX        27.4750   25.5860  -13.9010 C.3       1 SY9601      0.0000 
     16 NAY        27.8900   25.9210  -15.2750 N.4       1 SY9601      0.0000 
     17 CAS        26.7430   26.0630  -16.1800 C.3       1 SY9601      0.0000 
     18 CAR        26.0280   27.3630  -15.9380 C.2       1 SY9601      0.0000 
     19 CAQ        24.7560   27.4350  -15.5620 C.2       1 SY9601      0.0000 
     20 CAP        24.0470   28.7250  -15.2660 C.3       1 SY9601      0.0000 
     21 OAO        24.6090   29.4060  -14.1250 O.3       1 SY9601      0.0000 
     22 CAM        25.7450   30.2260  -14.4120 C.3       1 SY9601      0.0000 
     23 CAL        26.0040   31.0600  -13.1230 C.3       1 SY9601      0.0000 
     24 CAI        27.1270   30.6660  -12.1890 C.2       1 SY9601      0.0000 
     25 OAJ        27.2760   31.2240  -11.1120 O.2       1 SY9601      0.0000 
@<TRIPOS>BOND
     1    1    2 1    
     2    1   13 1    
     3    1   16 1    
     4    2    3 1    
     5    3    4 1    
     6    3   18 1    
     7    4    5 1    
     8    4   22 1    
     9    5    6 1    
    10    5   13 1    
    11    6    7 1    
    12    6   24 am   
    13    7    8 ar   
    14    7   12 ar   
    15    8    9 ar   
    16    9   10 ar   
    17   10   11 ar   
    18   11   12 ar   
    19   12   13 1    
    20   13   14 1    
    21   14   15 1    
    22   15   16 1    
    23   16   17 1    
    24   17   18 1    
    25   18   19 2    
    26   19   20 1    
    27   20   21 1    
    28   21   22 1    
    29   22   23 1    
    30   23   24 1    
    31   24   25 2    
@<TRIPOS>SUBSTRUCTURE
     1 SY9601      1 GROUP   
@<TRIPOS>SET

