#    Name: 5o8t_5_SY9_CAVITY_N1_4
#    Modification time : Fri May 22 19:18:57 2020

@<TRIPOS>MOLECULE
5o8t_5_SY9_CAVITY_N1_4
  116     0     7     0     0
SMALL
NO_CHARGES


@<TRIPOS>ATOM
      1 OG         -3.0900  -16.1700  -11.1700 O.3       1 SER1        0.0000 
      2 OG         -2.3100  -15.2800  -10.2600 O.3       1 SER1        0.0000 
      3 OG         -1.2900  -15.0600  -11.3400 O.3       1 SER1        0.0000 
      4 OG         -0.2800  -14.8400  -12.4300 O.3       1 SER1        0.0000 
      5 OG          0.7300  -14.6200  -13.5100 O.3       1 SER1        0.0000 
      6 OG          1.7500  -14.4000  -14.5900 O.3       1 SER1        0.0000 
      7 OG          6.4200  -19.4400  -11.2400 O.3       1 SER1        0.0000 
      8 OG         -3.5500  -14.8200   -7.1800 O.3       1 SER1        0.0000 
      9 OG         -0.5100  -14.1700  -10.4300 O.3       1 SER1        0.0000 
     10 OG          1.5200  -13.7300  -12.6000 O.3       1 SER1        0.0000 
     11 OG          7.2100  -18.5500  -10.3200 O.3       1 SER1        0.0000 
     12 OG          5.4200  -17.5800   -9.7300 O.3       1 SER1        0.0000 
     13 OG         -2.7600  -13.9300   -6.2600 O.3       1 SER1        0.0000 
     14 OG         -1.7500  -13.7100   -7.3400 O.3       1 SER1        0.0000 
     15 OG         -0.7300  -13.4900   -8.4300 O.3       1 SER1        0.0000 
     16 OG          3.1600  -17.3400   -5.5600 O.3       1 SER1        0.0000 
     17 OG          1.3700  -16.3800   -4.9600 O.3       1 SER1        0.0000 
     18 OG          0.5900  -15.1900   -5.4500 O.3       1 SER1        0.0000 
     19 OG         -2.2100  -14.4400   -3.7700 O.3       1 SER1        0.0000 
     20 OG         -0.1800  -14.0000   -5.9400 O.3       1 SER1        0.0000 
     21 OG         -0.9600  -12.8200   -6.4300 O.3       1 SER1        0.0000 
     22 OG         -1.7400  -11.6300   -6.9200 O.3       1 SER1        0.0000 
     23 N           3.2900  -20.9300  -14.4700 N.am      2 ALA2        0.0000 
     24 N           2.5100  -19.7500  -14.9600 N.am      2 ALA2        0.0000 
     25 N           4.8500  -21.2300  -13.0700 N.am      2 ALA2        0.0000 
     26 N           3.2900  -18.8500  -14.0400 N.am      2 ALA2        0.0000 
     27 N           4.3100  -18.6400  -15.1300 N.am      2 ALA2        0.0000 
     28 N          -1.3000  -17.1400  -11.7700 N.am      2 ALA2        0.0000 
     29 N           5.6400  -20.3300  -12.1500 N.am      2 ALA2        0.0000 
     30 N           4.8600  -19.1500  -12.6400 N.am      2 ALA2        0.0000 
     31 N           4.0800  -17.9600  -13.1300 N.am      2 ALA2        0.0000 
     32 N           2.2900  -16.9900  -12.5300 N.am      2 ALA2        0.0000 
     33 N           3.3000  -16.7800  -13.6200 N.am      2 ALA2        0.0000 
     34 N          -0.5200  -16.2400  -10.8500 N.am      2 ALA2        0.0000 
     35 N           0.5000  -16.0300  -11.9400 N.am      2 ALA2        0.0000 
     36 N           2.5200  -15.5900  -14.1100 N.am      2 ALA2        0.0000 
     37 N           3.6200  -18.6900   -9.5600 N.am      2 ALA2        0.0000 
     38 N           4.6300  -18.4700  -10.6400 N.am      2 ALA2        0.0000 
     39 N           2.8400  -17.5100  -10.0500 N.am      2 ALA2        0.0000 
     40 N           3.8500  -17.2900  -11.1300 N.am      2 ALA2        0.0000 
     41 N           4.8700  -17.0700  -12.2100 N.am      2 ALA2        0.0000 
     42 N           5.8800  -16.8500  -13.3000 N.am      2 ALA2        0.0000 
     43 N           1.0500  -16.5400   -9.4500 N.am      2 ALA2        0.0000 
     44 N           2.0600  -16.3200  -10.5300 N.am      2 ALA2        0.0000 
     45 N           6.9800  -17.8800   -8.3200 N.am      2 ALA2        0.0000 
     46 N           5.1900  -16.9100   -7.7300 N.am      2 ALA2        0.0000 
     47 N           6.2000  -16.6900   -8.8100 N.am      2 ALA2        0.0000 
     48 N           4.4100  -15.7200   -8.2200 N.am      2 ALA2        0.0000 
     49 N           5.4300  -15.5000   -9.3000 N.am      2 ALA2        0.0000 
     50 N           4.9600  -16.2300   -5.7300 N.am      2 ALA2        0.0000 
     51 N           4.1800  -15.0500   -6.2200 N.am      2 ALA2        0.0000 
     52 N           5.2000  -14.8300   -7.3000 N.am      2 ALA2        0.0000 
     53 OD1         3.5200  -19.5300  -16.0400 O.co2     3 ASP3        0.0000 
     54 OD1         5.0900  -19.8200  -14.6400 O.co2     3 ASP3        0.0000 
     55 NZ          5.8600  -21.0100  -14.1500 N.4       4 LYS4        0.0000 
     56 NZ         -2.0800  -15.9500  -12.2600 N.4       4 LYS4        0.0000 
     57 NZ         -1.0700  -15.7300  -13.3400 N.4       4 LYS4        0.0000 
     58 NZ         -0.0500  -15.5100  -14.4200 N.4       4 LYS4        0.0000 
     59 CZ         -1.5300  -16.4600   -9.7700 C.ar      5 PHE5        0.0000 
     60 CZ          2.6000  -18.9100   -8.4700 C.ar      5 PHE5        0.0000 
     61 CZ          1.8300  -17.7200   -8.9600 C.ar      5 PHE5        0.0000 
     62 CZ          0.0300  -16.7600   -8.3700 C.ar      5 PHE5        0.0000 
     63 CZ         -1.7600  -15.7900   -7.7700 C.ar      5 PHE5        0.0000 
     64 CZ         -0.7400  -15.5700   -8.8500 C.ar      5 PHE5        0.0000 
     65 CZ          0.5100  -13.9500  -11.5100 C.ar      5 PHE5        0.0000 
     66 CZ          3.3900  -18.0200   -7.5600 C.ar      5 PHE5        0.0000 
     67 CZ          4.4000  -17.8000   -8.6400 C.ar      5 PHE5        0.0000 
     68 CZ          1.6000  -17.0500   -6.9600 C.ar      5 PHE5        0.0000 
     69 CZ          2.6100  -16.8300   -8.0500 C.ar      5 PHE5        0.0000 
     70 CZ          0.8200  -15.8600   -7.4500 C.ar      5 PHE5        0.0000 
     71 CZ         -1.9800  -15.1100   -5.7700 C.ar      5 PHE5        0.0000 
     72 CZ         -0.9700  -14.9000   -6.8600 C.ar      5 PHE5        0.0000 
     73 CZ          0.0400  -14.6800   -7.9400 C.ar      5 PHE5        0.0000 
     74 CZ          1.0600  -14.4600   -9.0200 C.ar      5 PHE5        0.0000 
     75 CZ          2.0700  -14.2400  -10.1100 C.ar      5 PHE5        0.0000 
     76 CZ          4.1800  -17.1300   -6.6400 C.ar      5 PHE5        0.0000 
     77 CZ          2.3800  -16.1600   -6.0500 C.ar      5 PHE5        0.0000 
     78 CZ          2.6200  -14.7500   -7.6200 C.ar      5 PHE5        0.0000 
     79 CZ          3.6300  -14.5400   -8.7100 C.ar      5 PHE5        0.0000 
     80 CZ         -1.2000  -14.2200   -4.8600 C.ar      5 PHE5        0.0000 
     81 CZ          0.8300  -13.7900   -7.0300 C.ar      5 PHE5        0.0000 
     82 CZ          2.8600  -13.3500   -9.1900 C.ar      5 PHE5        0.0000 
     83 CZ          3.1700  -15.2700   -5.1300 C.ar      5 PHE5        0.0000 
     84 CZ          2.3900  -14.0800   -5.6200 C.ar      5 PHE5        0.0000 
     85 CZ          3.4100  -13.8600   -6.7100 C.ar      5 PHE5        0.0000 
     86 CZ          4.4200  -13.6400   -7.7900 C.ar      5 PHE5        0.0000 
     87 CZ          5.4300  -13.4300   -8.8800 C.ar      5 PHE5        0.0000 
     88 CZ          0.6000  -13.1100   -5.0300 C.ar      5 PHE5        0.0000 
     89 CA          2.5200  -17.6700  -14.5300 C.3       6 GLY6        0.0000 
     90 CA         -2.3200  -17.3500  -10.6800 C.3       6 GLY6        0.0000 
     91 CA          1.7400  -16.4800  -15.0200 C.3       6 GLY6        0.0000 
     92 CA          6.6500  -20.1200  -13.2400 C.3       6 GLY6        0.0000 
     93 CA          5.8700  -18.9300  -13.7200 C.3       6 GLY6        0.0000 
     94 CA          6.8900  -18.7100  -14.8100 C.3       6 GLY6        0.0000 
     95 CA          1.5100  -15.8100  -13.0200 C.3       6 GLY6        0.0000 
     96 CA          5.6400  -18.2600  -11.7300 C.3       6 GLY6        0.0000 
     97 CA          3.0800  -16.1000  -11.6200 C.3       6 GLY6        0.0000 
     98 CA          4.0900  -15.8800  -12.7000 C.3       6 GLY6        0.0000 
     99 CA          2.3000  -14.9200  -12.1100 C.3       6 GLY6        0.0000 
    100 CA          6.4300  -17.3600  -10.8100 C.3       6 GLY6        0.0000 
    101 CA          5.6500  -16.1800  -11.3000 C.3       6 GLY6        0.0000 
    102 CA          3.8600  -15.2100  -10.7000 C.3       6 GLY6        0.0000 
    103 CA          3.0800  -14.0200  -11.1900 C.3       6 GLY6        0.0000 
    104 CA          6.4400  -15.2900  -10.3900 C.3       6 GLY6        0.0000 
    105 CA          4.6500  -14.3200   -9.7900 C.3       6 GLY6        0.0000 
    106 CA          3.8700  -13.1300  -10.2800 C.3       6 GLY6        0.0000 
    107 CA         -1.1900  -12.1400   -4.4300 C.3       6 GLY6        0.0000 
    108 DU          0.2700  -15.3500   -9.9400 H         7 CUB7        0.0000 
    109 DU          1.2800  -15.1300  -11.0200 H         7 CUB7        0.0000 
    110 DU          3.6300  -16.6100   -9.1300 H         7 CUB7        0.0000 
    111 DU          4.6400  -16.4000  -10.2200 H         7 CUB7        0.0000 
    112 DU          1.8300  -15.6500   -8.5400 H         7 CUB7        0.0000 
    113 DU          2.8500  -15.4300   -9.6200 H         7 CUB7        0.0000 
    114 DU          3.4000  -15.9400   -7.1300 H         7 CUB7        0.0000 
    115 DU          1.6100  -14.9700   -6.5400 H         7 CUB7        0.0000 
    116 DU         -1.9800  -13.0400   -5.3500 H         7 CUB7        0.0000 
@<TRIPOS>BOND
@<TRIPOS>SUBSTRUCTURE
     1 SER1        1 GROUP   
     2 ALA2       23 GROUP   
     3 ASP3       53 GROUP   
     4 LYS4       55 GROUP   
     5 PHE5       59 GROUP   
     6 GLY6       89 GROUP   
     7 CUB7      108 GROUP   
@<TRIPOS>SET

