#    Name: 5o8t_5_SY9
#    Modification time : Fri May 22 19:18:57 2020

@<TRIPOS>MOLECULE
5o8t_5_SY9
   25    31     1     0     0
SMALL
NO_CHARGES


@<TRIPOS>ATOM
      1 CAV         4.4220  -16.9080   -8.4440 C.3       1 SY9601      0.0000 
      2 CAU         3.3450  -17.7570   -7.7900 C.3       1 SY9601      0.0000 
      3 CAT         2.2970  -16.8240   -7.1650 C.3       1 SY9601      0.0000 
      4 CAN         1.5510  -16.2060   -8.3510 C.3       1 SY9601      0.0000 
      5 CAK         2.4670  -15.3760   -9.2490 C.3       1 SY9601      0.0000 
      6 NAH         1.8060  -15.3220  -10.5790 N.am      1 SY9601      0.0000 
      7 CAA         2.6020  -16.0000  -11.5360 C.ar      1 SY9601      0.0000 
      8 CAF         2.3450  -16.2250  -12.8860 C.ar      1 SY9601      0.0000 
      9 CAE         3.2510  -16.9800  -13.6150 C.ar      1 SY9601      0.0000 
     10 CAD         4.3950  -17.4880  -13.0130 C.ar      1 SY9601      0.0000 
     11 CAC         4.6520  -17.2490  -11.6710 C.ar      1 SY9601      0.0000 
     12 CAB         3.7570  -16.4870  -10.9320 C.ar      1 SY9601      0.0000 
     13 CAG         3.8950  -15.9420   -9.5370 C.3       1 SY9601      0.0000 
     14 CAW         4.9580  -14.8290   -9.4800 C.3       1 SY9601      0.0000 
     15 CAX         5.2180  -14.6720   -7.9950 C.3       1 SY9601      0.0000 
     16 NAY         5.1140  -16.0390   -7.4430 N.4       1 SY9601      0.0000 
     17 CAS         4.4660  -16.0500   -6.1240 C.3       1 SY9601      0.0000 
     18 CAR         2.9850  -15.8170   -6.2660 C.2       1 SY9601      0.0000 
     19 CAQ         2.3520  -14.8000   -5.7030 C.2       1 SY9601      0.0000 
     20 CAP         0.8780  -14.5700   -5.8600 C.3       1 SY9601      0.0000 
     21 OAO         0.5280  -14.2440   -7.2150 O.3       1 SY9601      0.0000 
     22 CAM         0.3030  -15.3690   -8.0700 C.3       1 SY9601      0.0000 
     23 CAL        -0.2430  -14.7610   -9.3720 C.3       1 SY9601      0.0000 
     24 CAI         0.4610  -15.0820  -10.6670 C.2       1 SY9601      0.0000 
     25 OAJ        -0.1410  -15.0840  -11.7280 O.2       1 SY9601      0.0000 
@<TRIPOS>BOND
     1    1    2 1    
     2    1   13 1    
     3    1   16 1    
     4    2    3 1    
     5    3    4 1    
     6    3   18 1    
     7    4    5 1    
     8    4   22 1    
     9    5    6 1    
    10    5   13 1    
    11    6    7 1    
    12    6   24 am   
    13    7    8 ar   
    14    7   12 ar   
    15    8    9 ar   
    16    9   10 ar   
    17   10   11 ar   
    18   11   12 ar   
    19   12   13 1    
    20   13   14 1    
    21   14   15 1    
    22   15   16 1    
    23   16   17 1    
    24   17   18 1    
    25   18   19 2    
    26   19   20 1    
    27   20   21 1    
    28   21   22 1    
    29   22   23 1    
    30   23   24 1    
    31   24   25 2    
@<TRIPOS>SUBSTRUCTURE
     1 SY9601      1 GROUP   
@<TRIPOS>SET

