#    Name: 5o8t_3_SY9_CAVITY_N1_ALL
#    Modification time : Fri May 22 19:18:49 2020

@<TRIPOS>MOLECULE
5o8t_3_SY9_CAVITY_N1_ALL
  166     0     7     0     0
SMALL
NO_CHARGES


@<TRIPOS>ATOM
      1 OG         26.3800   20.8900   13.4500 O.3       1 SER1        0.0000 
      2 OG         26.2200   16.1700   20.6600 O.3       1 SER1        0.0000 
      3 OG         24.3600   22.5400   16.0500 O.3       1 SER1        0.0000 
      4 OG         25.3700   22.7500   14.9600 O.3       1 SER1        0.0000 
      5 OG         23.5800   23.7200   15.5600 O.3       1 SER1        0.0000 
      6 OG         25.9900   16.8400   22.6600 O.3       1 SER1        0.0000 
      7 OG         27.0100   17.0600   21.5700 O.3       1 SER1        0.0000 
      8 OG         32.0700   18.1500   16.1500 O.3       1 SER1        0.0000 
      9 OG         30.7500   21.9300   13.6000 O.3       1 SER1        0.0000 
     10 OG         25.9200   22.2400   17.4500 O.3       1 SER1        0.0000 
     11 OG         26.9300   22.4600   16.3700 O.3       1 SER1        0.0000 
     12 OG         27.9500   22.6800   15.2800 O.3       1 SER1        0.0000 
     13 OG         25.1400   23.4300   16.9600 O.3       1 SER1        0.0000 
     14 OG         26.1600   23.6500   15.8800 O.3       1 SER1        0.0000 
     15 OG         24.3700   24.6100   16.4700 O.3       1 SER1        0.0000 
     16 OG         33.6400   17.8600   17.5600 O.3       1 SER1        0.0000 
     17 OG         32.8600   19.0400   17.0700 O.3       1 SER1        0.0000 
     18 OG         26.4700   21.7300   19.9400 O.3       1 SER1        0.0000 
     19 OG         26.9400   24.5400   16.7900 O.3       1 SER1        0.0000 
     20 OG         24.1400   25.2900   18.4700 O.3       1 SER1        0.0000 
     21 OG         25.1500   25.5100   17.3900 O.3       1 SER1        0.0000 
     22 OG         23.3600   26.4700   17.9800 O.3       1 SER1        0.0000 
     23 OG         36.9900   16.6000   18.3600 O.3       1 SER1        0.0000 
     24 OG         35.2000   17.5600   18.9600 O.3       1 SER1        0.0000 
     25 OG         33.6400   19.9400   17.9800 O.3       1 SER1        0.0000 
     26 OG         25.7000   24.9900   19.8800 O.3       1 SER1        0.0000 
     27 N          28.9500   18.7400   13.3500 N.am      2 ALA2        0.0000 
     28 O          25.9800   14.7700   22.2300 O.2       2 ALA2        0.0000 
     29 O          27.0000   14.9800   21.1500 O.2       2 ALA2        0.0000 
     30 N          31.2900   17.2600   15.2400 N.am      2 ALA2        0.0000 
     31 N          30.5100   18.4500   14.7500 N.am      2 ALA2        0.0000 
     32 N          29.7300   19.6300   14.2600 N.am      2 ALA2        0.0000 
     33 N          29.9700   21.0400   12.6900 N.am      2 ALA2        0.0000 
     34 O          26.5300   14.2500   24.7200 O.2       2 ALA2        0.0000 
     35 O          26.7700   15.6600   23.1500 O.2       2 ALA2        0.0000 
     36 O          27.7800   15.8800   22.0600 O.2       2 ALA2        0.0000 
     37 N          28.8000   16.0900   20.9800 N.am      2 ALA2        0.0000 
     38 N          30.8200   16.5300   18.8100 N.am      2 ALA2        0.0000 
     39 N          31.3000   19.3400   15.6700 N.am      2 ALA2        0.0000 
     40 O          28.3300   15.3600   24.5500 O.2       2 ALA2        0.0000 
     41 O          29.3500   15.5800   23.4700 O.2       2 ALA2        0.0000 
     42 O          30.3600   15.8000   22.3800 O.2       2 ALA2        0.0000 
     43 N          32.3900   16.2400   20.2100 N.am      2 ALA2        0.0000 
     44 O          27.5600   16.5500   24.0600 O.2       2 ALA2        0.0000 
     45 O          28.5700   16.7700   22.9800 O.2       2 ALA2        0.0000 
     46 N          29.5800   16.9900   21.8900 N.am      2 ALA2        0.0000 
     47 N          30.6000   17.2000   20.8100 N.am      2 ALA2        0.0000 
     48 N          31.6100   17.4200   19.7200 N.am      2 ALA2        0.0000 
     49 N          34.9600   16.1600   20.5300 N.am      2 ALA2        0.0000 
     50 N          32.1600   16.9100   22.2100 N.am      2 ALA2        0.0000 
     51 N          33.1700   17.1300   21.1300 N.am      2 ALA2        0.0000 
     52 N          34.1900   17.3500   20.0400 N.am      2 ALA2        0.0000 
     53 N          30.3700   17.8800   22.8100 N.am      2 ALA2        0.0000 
     54 N          31.3800   18.1000   21.7200 N.am      2 ALA2        0.0000 
     55 N          32.4000   18.3100   20.6400 N.am      2 ALA2        0.0000 
     56 N          33.4100   18.5300   19.5600 N.am      2 ALA2        0.0000 
     57 N          29.5900   19.0600   22.3200 N.am      2 ALA2        0.0000 
     58 N          30.6000   19.2800   21.2300 N.am      2 ALA2        0.0000 
     59 N          31.6200   19.5000   20.1500 N.am      2 ALA2        0.0000 
     60 N          32.6300   19.7200   19.0700 N.am      2 ALA2        0.0000 
     61 N          29.8300   20.4700   20.7500 N.am      2 ALA2        0.0000 
     62 N          34.7400   16.8300   22.5300 N.am      2 ALA2        0.0000 
     63 N          35.7500   17.0500   21.4500 N.am      2 ALA2        0.0000 
     64 N          33.4200   20.6100   19.9800 N.am      2 ALA2        0.0000 
     65 N          36.5400   17.9500   22.3600 N.am      2 ALA2        0.0000 
     66 OD1        24.3700   26.6900   16.9000 O.co2     3 ASP3        0.0000 
     67 OD1        35.7400   14.9700   21.0200 O.co2     3 ASP3        0.0000 
     68 OD1        33.9500   15.9400   21.6200 O.co2     3 ASP3        0.0000 
     69 OD1        25.1600   27.5800   17.8100 O.co2     3 ASP3        0.0000 
     70 OD1        24.3800   28.7700   17.3300 O.co2     3 ASP3        0.0000 
     71 NZ         25.7600   17.5200   24.6600 N.4       4 LYS4        0.0000 
     72 NZ         26.7800   17.7400   23.5700 N.4       4 LYS4        0.0000 
     73 NZ         27.7900   17.9500   22.4900 N.4       4 LYS4        0.0000 
     74 NZ         27.5600   18.6300   24.4900 N.4       4 LYS4        0.0000 
     75 NZ         38.5600   16.3000   19.7700 N.4       4 LYS4        0.0000 
     76 NZ         36.7600   17.2700   20.3600 N.4       4 LYS4        0.0000 
     77 NZ         37.7800   17.4900   19.2800 N.4       4 LYS4        0.0000 
     78 NZ         39.3400   17.2000   20.6800 N.4       4 LYS4        0.0000 
     79 NZ         37.5500   18.1600   21.2800 N.4       4 LYS4        0.0000 
     80 CZ         26.9200   18.3000   15.5200 C.ar      5 PHE5        0.0000 
     81 CZ         27.9300   18.5200   14.4300 C.ar      5 PHE5        0.0000 
     82 CZ         27.1500   19.7100   13.9400 C.ar      5 PHE5        0.0000 
     83 CZ         28.1700   19.9300   12.8600 C.ar      5 PHE5        0.0000 
     84 CZ         27.3900   21.1100   12.3700 C.ar      5 PHE5        0.0000 
     85 CZ         27.7000   19.2000   16.4300 C.ar      5 PHE5        0.0000 
     86 CZ         26.9300   20.3800   15.9400 C.ar      5 PHE5        0.0000 
     87 CZ         27.9400   20.6000   14.8600 C.ar      5 PHE5        0.0000 
     88 CZ         26.1500   21.5700   15.4500 C.ar      5 PHE5        0.0000 
     89 CZ         27.1600   21.7900   14.3700 C.ar      5 PHE5        0.0000 
     90 CZ         28.1800   22.0000   13.2900 C.ar      5 PHE5        0.0000 
     91 CZ         26.3800   22.9700   13.8800 C.ar      5 PHE5        0.0000 
     92 CZ         24.5900   23.9400   14.4800 C.ar      5 PHE5        0.0000 
     93 CZ         32.3100   19.5600   14.5800 C.ar      5 PHE5        0.0000 
     94 CZ         31.5300   20.7400   14.0900 C.ar      5 PHE5        0.0000 
     95 CZ         26.7000   21.0600   17.9400 C.ar      5 PHE5        0.0000 
     96 CZ         28.9600   22.9000   14.2000 C.ar      5 PHE5        0.0000 
     97 CZ         27.1700   23.8600   14.8000 C.ar      5 PHE5        0.0000 
     98 CZ         25.3800   24.8300   15.3900 C.ar      5 PHE5        0.0000 
     99 CZ         32.0800   20.2300   16.5800 C.ar      5 PHE5        0.0000 
    100 CZ         29.2800   20.9800   18.2600 C.ar      5 PHE5        0.0000 
    101 CZ         30.2900   21.2000   17.1800 C.ar      5 PHE5        0.0000 
    102 CZ         31.3000   21.4200   16.0900 C.ar      5 PHE5        0.0000 
    103 CZ         27.4900   21.9500   18.8500 C.ar      5 PHE5        0.0000 
    104 CZ         28.5000   22.1700   17.7700 C.ar      5 PHE5        0.0000 
    105 CZ         29.5100   22.3800   16.6900 C.ar      5 PHE5        0.0000 
    106 CZ         26.7100   23.1300   18.3700 C.ar      5 PHE5        0.0000 
    107 CZ         27.7200   23.3500   17.2800 C.ar      5 PHE5        0.0000 
    108 CZ         25.9300   24.3200   17.8800 C.ar      5 PHE5        0.0000 
    109 CZ         31.8500   20.9000   18.5800 C.ar      5 PHE5        0.0000 
    110 CZ         29.0500   21.6500   20.2600 C.ar      5 PHE5        0.0000 
    111 CZ         27.2600   22.6200   20.8500 C.ar      5 PHE5        0.0000 
    112 CZ         26.4800   23.8100   20.3600 C.ar      5 PHE5        0.0000 
    113 CZ         25.9400   26.4000   18.3000 C.ar      5 PHE5        0.0000 
    114 CZ         32.6400   21.8000   19.4900 C.ar      5 PHE5        0.0000 
    115 CA         27.7000   17.1200   16.0000 C.3       6 GLY6        0.0000 
    116 CA         28.7100   17.3400   14.9200 C.3       6 GLY6        0.0000 
    117 CA         31.0500   15.8600   16.8100 C.3       6 GLY6        0.0000 
    118 CA         29.2600   16.8200   17.4100 C.3       6 GLY6        0.0000 
    119 CA         30.2700   17.0400   16.3200 C.3       6 GLY6        0.0000 
    120 CA         28.4800   18.0100   16.9200 C.3       6 GLY6        0.0000 
    121 CA         31.8400   16.7500   17.7300 C.3       6 GLY6        0.0000 
    122 CA         32.8500   16.9700   16.6400 C.3       6 GLY6        0.0000 
    123 CA         28.0200   17.2800   20.4900 C.3       6 GLY6        0.0000 
    124 CA         29.0300   17.5000   19.4100 C.3       6 GLY6        0.0000 
    125 CA         30.0500   17.7200   18.3200 C.3       6 GLY6        0.0000 
    126 CA         34.1800   15.2700   19.6200 C.3       6 GLY6        0.0000 
    127 CA         35.1900   15.4900   18.5300 C.3       6 GLY6        0.0000 
    128 CA         33.4000   16.4500   19.1300 C.3       6 GLY6        0.0000 
    129 CA         34.4100   16.6700   18.0500 C.3       6 GLY6        0.0000 
    130 CA         31.1500   16.6900   23.3000 C.3       6 GLY6        0.0000 
    131 CA         29.3600   17.6600   23.8900 C.3       6 GLY6        0.0000 
    132 CA         30.8400   20.6900   19.6600 C.3       6 GLY6        0.0000 
    133 DU         29.5000   18.2300   15.8400 H         7 CUB7        0.0000 
    134 DU         28.7200   19.4100   15.3500 H         7 CUB7        0.0000 
    135 DU         28.9500   20.8200   13.7700 H         7 CUB7        0.0000 
    136 DU         25.7600   15.4400   24.2300 H         7 CUB7        0.0000 
    137 DU         31.0600   17.9300   17.2400 H         7 CUB7        0.0000 
    138 DU         29.2700   18.9000   17.8300 H         7 CUB7        0.0000 
    139 DU         30.2800   19.1200   16.7500 H         7 CUB7        0.0000 
    140 DU         28.4900   20.0900   17.3400 H         7 CUB7        0.0000 
    141 DU         29.5000   20.3100   16.2600 H         7 CUB7        0.0000 
    142 DU         30.5200   20.5200   15.1800 H         7 CUB7        0.0000 
    143 DU         27.7100   21.2700   16.8600 H         7 CUB7        0.0000 
    144 DU         28.7300   21.4900   15.7700 H         7 CUB7        0.0000 
    145 DU         29.7400   21.7100   14.6900 H         7 CUB7        0.0000 
    146 DU         23.5900   25.8000   15.9900 H         7 CUB7        0.0000 
    147 DU         27.3200   15.1500   25.6300 H         7 CUB7        0.0000 
    148 DU         26.5400   16.3300   25.1500 H         7 CUB7        0.0000 
    149 DU         32.6200   17.6400   18.6400 H         7 CUB7        0.0000 
    150 DU         28.8000   18.1700   21.4000 H         7 CUB7        0.0000 
    151 DU         29.8200   18.3900   20.3200 H         7 CUB7        0.0000 
    152 DU         30.8300   18.6100   19.2400 H         7 CUB7        0.0000 
    153 DU         31.8500   18.8300   18.1500 H         7 CUB7        0.0000 
    154 DU         29.0400   19.5800   19.8300 H         7 CUB7        0.0000 
    155 DU         30.0500   19.7900   18.7500 H         7 CUB7        0.0000 
    156 DU         31.0700   20.0100   17.6600 H         7 CUB7        0.0000 
    157 DU         28.2600   20.7600   19.3400 H         7 CUB7        0.0000 
    158 DU         36.7600   15.1900   19.9400 H         7 CUB7        0.0000 
    159 DU         35.9800   16.3800   19.4500 H         7 CUB7        0.0000 
    160 DU         29.1200   16.2600   25.4600 H         7 CUB7        0.0000 
    161 DU         26.3100   17.0100   27.1400 H         7 CUB7        0.0000 
    162 DU         27.3300   17.2200   26.0600 H         7 CUB7        0.0000 
    163 DU         28.3400   17.4400   24.9800 H         7 CUB7        0.0000 
    164 DU         28.5800   18.8500   23.4000 H         7 CUB7        0.0000 
    165 DU         39.3300   15.1200   20.2600 H         7 CUB7        0.0000 
    166 DU         37.5400   16.0900   20.8500 H         7 CUB7        0.0000 
@<TRIPOS>BOND
@<TRIPOS>SUBSTRUCTURE
     1 SER1        1 GROUP   
     2 ALA2       27 GROUP   
     3 ASP3       66 GROUP   
     4 LYS4       71 GROUP   
     5 PHE5       80 GROUP   
     6 GLY6      115 GROUP   
     7 CUB7      133 GROUP   
@<TRIPOS>SET

