#    Name: 5o8t_3_SY9_CAVITY_N1_4
#    Modification time : Fri May 22 19:18:49 2020

@<TRIPOS>MOLECULE
5o8t_3_SY9_CAVITY_N1_4
  117     0     6     0     0
SMALL
NO_CHARGES


@<TRIPOS>ATOM
      1 OG         26.3800   20.8900   13.4500 O.3       1 SER1        0.0000 
      2 OG         24.3600   22.5400   16.0500 O.3       1 SER1        0.0000 
      3 OG         25.3700   22.7500   14.9600 O.3       1 SER1        0.0000 
      4 OG         23.5800   23.7200   15.5600 O.3       1 SER1        0.0000 
      5 OG         32.0700   18.1500   16.1500 O.3       1 SER1        0.0000 
      6 OG         30.7500   21.9300   13.6000 O.3       1 SER1        0.0000 
      7 OG         25.9200   22.2400   17.4500 O.3       1 SER1        0.0000 
      8 OG         26.9300   22.4600   16.3700 O.3       1 SER1        0.0000 
      9 OG         27.9500   22.6800   15.2800 O.3       1 SER1        0.0000 
     10 OG         25.1400   23.4300   16.9600 O.3       1 SER1        0.0000 
     11 OG         26.1600   23.6500   15.8800 O.3       1 SER1        0.0000 
     12 OG         24.3700   24.6100   16.4700 O.3       1 SER1        0.0000 
     13 OG         33.6400   17.8600   17.5600 O.3       1 SER1        0.0000 
     14 OG         32.8600   19.0400   17.0700 O.3       1 SER1        0.0000 
     15 OG         26.4700   21.7300   19.9400 O.3       1 SER1        0.0000 
     16 OG         26.9400   24.5400   16.7900 O.3       1 SER1        0.0000 
     17 OG         25.1500   25.5100   17.3900 O.3       1 SER1        0.0000 
     18 OG         35.2000   17.5600   18.9600 O.3       1 SER1        0.0000 
     19 OG         33.6400   19.9400   17.9800 O.3       1 SER1        0.0000 
     20 OG         25.7000   24.9900   19.8800 O.3       1 SER1        0.0000 
     21 N          28.9500   18.7400   13.3500 N.am      2 ALA2        0.0000 
     22 N          31.2900   17.2600   15.2400 N.am      2 ALA2        0.0000 
     23 N          30.5100   18.4500   14.7500 N.am      2 ALA2        0.0000 
     24 N          29.7300   19.6300   14.2600 N.am      2 ALA2        0.0000 
     25 N          29.9700   21.0400   12.6900 N.am      2 ALA2        0.0000 
     26 N          30.8200   16.5300   18.8100 N.am      2 ALA2        0.0000 
     27 N          31.3000   19.3400   15.6700 N.am      2 ALA2        0.0000 
     28 N          32.3900   16.2400   20.2100 N.am      2 ALA2        0.0000 
     29 N          30.6000   17.2000   20.8100 N.am      2 ALA2        0.0000 
     30 N          31.6100   17.4200   19.7200 N.am      2 ALA2        0.0000 
     31 N          34.9600   16.1600   20.5300 N.am      2 ALA2        0.0000 
     32 N          32.1600   16.9100   22.2100 N.am      2 ALA2        0.0000 
     33 N          33.1700   17.1300   21.1300 N.am      2 ALA2        0.0000 
     34 N          34.1900   17.3500   20.0400 N.am      2 ALA2        0.0000 
     35 N          31.3800   18.1000   21.7200 N.am      2 ALA2        0.0000 
     36 N          32.4000   18.3100   20.6400 N.am      2 ALA2        0.0000 
     37 N          33.4100   18.5300   19.5600 N.am      2 ALA2        0.0000 
     38 N          29.5900   19.0600   22.3200 N.am      2 ALA2        0.0000 
     39 N          30.6000   19.2800   21.2300 N.am      2 ALA2        0.0000 
     40 N          31.6200   19.5000   20.1500 N.am      2 ALA2        0.0000 
     41 N          32.6300   19.7200   19.0700 N.am      2 ALA2        0.0000 
     42 N          29.8300   20.4700   20.7500 N.am      2 ALA2        0.0000 
     43 N          33.4200   20.6100   19.9800 N.am      2 ALA2        0.0000 
     44 NZ         27.7900   17.9500   22.4900 N.4       3 LYS4        0.0000 
     45 CZ         26.9200   18.3000   15.5200 C.ar      4 PHE5        0.0000 
     46 CZ         27.9300   18.5200   14.4300 C.ar      4 PHE5        0.0000 
     47 CZ         27.1500   19.7100   13.9400 C.ar      4 PHE5        0.0000 
     48 CZ         28.1700   19.9300   12.8600 C.ar      4 PHE5        0.0000 
     49 CZ         27.3900   21.1100   12.3700 C.ar      4 PHE5        0.0000 
     50 CZ         27.7000   19.2000   16.4300 C.ar      4 PHE5        0.0000 
     51 CZ         26.9300   20.3800   15.9400 C.ar      4 PHE5        0.0000 
     52 CZ         27.9400   20.6000   14.8600 C.ar      4 PHE5        0.0000 
     53 CZ         26.1500   21.5700   15.4500 C.ar      4 PHE5        0.0000 
     54 CZ         27.1600   21.7900   14.3700 C.ar      4 PHE5        0.0000 
     55 CZ         28.1800   22.0000   13.2900 C.ar      4 PHE5        0.0000 
     56 CZ         26.3800   22.9700   13.8800 C.ar      4 PHE5        0.0000 
     57 CZ         24.5900   23.9400   14.4800 C.ar      4 PHE5        0.0000 
     58 CZ         32.3100   19.5600   14.5800 C.ar      4 PHE5        0.0000 
     59 CZ         31.5300   20.7400   14.0900 C.ar      4 PHE5        0.0000 
     60 CZ         26.7000   21.0600   17.9400 C.ar      4 PHE5        0.0000 
     61 CZ         28.9600   22.9000   14.2000 C.ar      4 PHE5        0.0000 
     62 CZ         27.1700   23.8600   14.8000 C.ar      4 PHE5        0.0000 
     63 CZ         25.3800   24.8300   15.3900 C.ar      4 PHE5        0.0000 
     64 CZ         32.0800   20.2300   16.5800 C.ar      4 PHE5        0.0000 
     65 CZ         29.2800   20.9800   18.2600 C.ar      4 PHE5        0.0000 
     66 CZ         30.2900   21.2000   17.1800 C.ar      4 PHE5        0.0000 
     67 CZ         31.3000   21.4200   16.0900 C.ar      4 PHE5        0.0000 
     68 CZ         27.4900   21.9500   18.8500 C.ar      4 PHE5        0.0000 
     69 CZ         28.5000   22.1700   17.7700 C.ar      4 PHE5        0.0000 
     70 CZ         29.5100   22.3800   16.6900 C.ar      4 PHE5        0.0000 
     71 CZ         26.7100   23.1300   18.3700 C.ar      4 PHE5        0.0000 
     72 CZ         27.7200   23.3500   17.2800 C.ar      4 PHE5        0.0000 
     73 CZ         25.9300   24.3200   17.8800 C.ar      4 PHE5        0.0000 
     74 CZ         31.8500   20.9000   18.5800 C.ar      4 PHE5        0.0000 
     75 CZ         29.0500   21.6500   20.2600 C.ar      4 PHE5        0.0000 
     76 CZ         27.2600   22.6200   20.8500 C.ar      4 PHE5        0.0000 
     77 CZ         26.4800   23.8100   20.3600 C.ar      4 PHE5        0.0000 
     78 CZ         32.6400   21.8000   19.4900 C.ar      4 PHE5        0.0000 
     79 CA         27.7000   17.1200   16.0000 C.3       5 GLY6        0.0000 
     80 CA         28.7100   17.3400   14.9200 C.3       5 GLY6        0.0000 
     81 CA         31.0500   15.8600   16.8100 C.3       5 GLY6        0.0000 
     82 CA         29.2600   16.8200   17.4100 C.3       5 GLY6        0.0000 
     83 CA         30.2700   17.0400   16.3200 C.3       5 GLY6        0.0000 
     84 CA         28.4800   18.0100   16.9200 C.3       5 GLY6        0.0000 
     85 CA         31.8400   16.7500   17.7300 C.3       5 GLY6        0.0000 
     86 CA         32.8500   16.9700   16.6400 C.3       5 GLY6        0.0000 
     87 CA         28.0200   17.2800   20.4900 C.3       5 GLY6        0.0000 
     88 CA         29.0300   17.5000   19.4100 C.3       5 GLY6        0.0000 
     89 CA         30.0500   17.7200   18.3200 C.3       5 GLY6        0.0000 
     90 CA         34.1800   15.2700   19.6200 C.3       5 GLY6        0.0000 
     91 CA         35.1900   15.4900   18.5300 C.3       5 GLY6        0.0000 
     92 CA         33.4000   16.4500   19.1300 C.3       5 GLY6        0.0000 
     93 CA         34.4100   16.6700   18.0500 C.3       5 GLY6        0.0000 
     94 CA         30.8400   20.6900   19.6600 C.3       5 GLY6        0.0000 
     95 DU         29.5000   18.2300   15.8400 H         6 CUB7        0.0000 
     96 DU         28.7200   19.4100   15.3500 H         6 CUB7        0.0000 
     97 DU         28.9500   20.8200   13.7700 H         6 CUB7        0.0000 
     98 DU         31.0600   17.9300   17.2400 H         6 CUB7        0.0000 
     99 DU         29.2700   18.9000   17.8300 H         6 CUB7        0.0000 
    100 DU         30.2800   19.1200   16.7500 H         6 CUB7        0.0000 
    101 DU         28.4900   20.0900   17.3400 H         6 CUB7        0.0000 
    102 DU         29.5000   20.3100   16.2600 H         6 CUB7        0.0000 
    103 DU         30.5200   20.5200   15.1800 H         6 CUB7        0.0000 
    104 DU         27.7100   21.2700   16.8600 H         6 CUB7        0.0000 
    105 DU         28.7300   21.4900   15.7700 H         6 CUB7        0.0000 
    106 DU         29.7400   21.7100   14.6900 H         6 CUB7        0.0000 
    107 DU         32.6200   17.6400   18.6400 H         6 CUB7        0.0000 
    108 DU         28.8000   18.1700   21.4000 H         6 CUB7        0.0000 
    109 DU         29.8200   18.3900   20.3200 H         6 CUB7        0.0000 
    110 DU         30.8300   18.6100   19.2400 H         6 CUB7        0.0000 
    111 DU         31.8500   18.8300   18.1500 H         6 CUB7        0.0000 
    112 DU         29.0400   19.5800   19.8300 H         6 CUB7        0.0000 
    113 DU         30.0500   19.7900   18.7500 H         6 CUB7        0.0000 
    114 DU         31.0700   20.0100   17.6600 H         6 CUB7        0.0000 
    115 DU         28.2600   20.7600   19.3400 H         6 CUB7        0.0000 
    116 DU         35.9800   16.3800   19.4500 H         6 CUB7        0.0000 
    117 DU         28.5800   18.8500   23.4000 H         6 CUB7        0.0000 
@<TRIPOS>BOND
@<TRIPOS>SUBSTRUCTURE
     1 SER1        1 GROUP   
     2 ALA2       21 GROUP   
     3 LYS4       44 GROUP   
     4 PHE5       45 GROUP   
     5 GLY6       79 GROUP   
     6 CUB7       95 GROUP   
@<TRIPOS>SET

