#    Name: 5o8t_4_SY9
#    Modification time : Fri May 22 19:18:52 2020

@<TRIPOS>MOLECULE
5o8t_4_SY9
   25    31     1     0     0
SMALL
NO_CHARGES


@<TRIPOS>ATOM
      1 CAV        16.1970   -7.2020   19.4640 C.3       1 SY9601      0.0000 
      2 CAU        15.8860   -6.8120   20.8990 C.3       1 SY9601      0.0000 
      3 CAT        14.5410   -6.0800   20.9220 C.3       1 SY9601      0.0000 
      4 CAN        13.4750   -7.1420   20.6080 C.3       1 SY9601      0.0000 
      5 CAK        13.6660   -7.7800   19.2320 C.3       1 SY9601      0.0000 
      6 NAH        12.9870   -9.1030   19.2860 N.am      1 SY9601      0.0000 
      7 CAA        13.9470  -10.1350   19.1250 C.ar      1 SY9601      0.0000 
      8 CAF        13.7520  -11.5100   19.0420 C.ar      1 SY9601      0.0000 
      9 CAE        14.8640  -12.3280   18.9030 C.ar      1 SY9601      0.0000 
     10 CAD        16.1410  -11.7890   18.8850 C.ar      1 SY9601      0.0000 
     11 CAC        16.3270  -10.4190   18.9610 C.ar      1 SY9601      0.0000 
     12 CAB        15.2200   -9.5850   19.0410 C.ar      1 SY9601      0.0000 
     13 CAG        15.1270   -8.1040   18.7970 C.3       1 SY9601      0.0000 
     14 CAW        15.3480   -7.7720   17.3120 C.3       1 SY9601      0.0000 
     15 CAX        15.5880   -6.2720   17.3370 C.3       1 SY9601      0.0000 
     16 NAY        16.3200   -6.0050   18.5830 N.4       1 SY9601      0.0000 
     17 CAS        15.8880   -4.7570   19.2350 C.3       1 SY9601      0.0000 
     18 CAR        14.5740   -4.9170   19.9520 C.2       1 SY9601      0.0000 
     19 CAQ        13.5240   -4.1410   19.7310 C.2       1 SY9601      0.0000 
     20 CAP        12.2100   -4.3680   20.4160 C.3       1 SY9601      0.0000 
     21 OAO        11.6060   -5.6030   19.9920 O.3       1 SY9601      0.0000 
     22 CAM        11.9950   -6.7600   20.7390 C.3       1 SY9601      0.0000 
     23 CAL        11.1070   -7.8850   20.2010 C.3       1 SY9601      0.0000 
     24 CAI        11.7840   -9.2030   19.9280 C.2       1 SY9601      0.0000 
     25 OAJ        11.3190  -10.2650   20.3020 O.2       1 SY9601      0.0000 
@<TRIPOS>BOND
     1    1    2 1    
     2    1   13 1    
     3    1   16 1    
     4    2    3 1    
     5    3    4 1    
     6    3   18 1    
     7    4    5 1    
     8    4   22 1    
     9    5    6 1    
    10    5   13 1    
    11    6    7 1    
    12    6   24 am   
    13    7    8 ar   
    14    7   12 ar   
    15    8    9 ar   
    16    9   10 ar   
    17   10   11 ar   
    18   11   12 ar   
    19   12   13 1    
    20   13   14 1    
    21   14   15 1    
    22   15   16 1    
    23   16   17 1    
    24   17   18 1    
    25   18   19 2    
    26   19   20 1    
    27   20   21 1    
    28   21   22 1    
    29   22   23 1    
    30   23   24 1    
    31   24   25 2    
@<TRIPOS>SUBSTRUCTURE
     1 SY9601      1 GROUP   
@<TRIPOS>SET

