#    Name: 5o8t_1_SY9_CAVITY_N1_8
#    Modification time : Fri May 22 19:18:39 2020

@<TRIPOS>MOLECULE
5o8t_1_SY9_CAVITY_N1_8
  158     0     7     0     0
SMALL
NO_CHARGES


@<TRIPOS>ATOM
      1 OG          5.1400    6.0900  -30.1300 O.3       1 SER1        0.0000 
      2 OG          4.8400   10.0800  -33.7600 O.3       1 SER1        0.0000 
      3 OG          8.5000    4.8300  -29.3200 O.3       1 SER1        0.0000 
      4 OG          6.7100    5.7900  -28.7200 O.3       1 SER1        0.0000 
      5 OG          6.1600    8.3800  -30.7900 O.3       1 SER1        0.0000 
      6 OG          6.4000    9.7900  -32.3600 O.3       1 SER1        0.0000 
      7 OG          7.4100   10.0100  -33.4400 O.3       1 SER1        0.0000 
      8 OG          8.4300   10.2200  -34.5300 O.3       1 SER1        0.0000 
      9 OG          7.6500   11.4100  -35.0200 O.3       1 SER1        0.0000 
     10 OG         14.1200    5.4000  -32.2500 O.3       1 SER1        0.0000 
     11 OG          7.4900    6.6900  -27.8100 O.3       1 SER1        0.0000 
     12 OG          7.7300    8.0900  -29.3800 O.3       1 SER1        0.0000 
     13 OG          7.9600    9.4900  -30.9600 O.3       1 SER1        0.0000 
     14 OG         10.2300   11.3300  -34.7000 O.3       1 SER1        0.0000 
     15 OG         11.2400   11.5500  -35.7800 O.3       1 SER1        0.0000 
     16 OG          9.0600    6.3900  -26.4100 O.3       1 SER1        0.0000 
     17 OG          8.7500   10.3900  -30.0400 O.3       1 SER1        0.0000 
     18 OG         12.3400   10.5300  -30.8100 O.3       1 SER1        0.0000 
     19 OG         11.5600   11.7100  -31.3000 O.3       1 SER1        0.0000 
     20 OG         13.1300   11.4200  -29.8900 O.3       1 SER1        0.0000 
     21 OG         13.3600   12.8300  -31.4700 O.3       1 SER1        0.0000 
     22 OG         12.5900   14.0100  -31.9500 O.3       1 SER1        0.0000 
     23 N          10.8400    3.3500  -27.4300 N.am      2 ALA2        0.0000 
     24 N          11.8500    3.5600  -28.5100 N.am      2 ALA2        0.0000 
     25 N          12.8700    3.7800  -29.6000 N.am      2 ALA2        0.0000 
     26 N          15.1300    5.6200  -33.3400 N.am      2 ALA2        0.0000 
     27 N          18.1700    6.2800  -36.5900 N.am      2 ALA2        0.0000 
     28 N          13.3400    6.5900  -32.7400 N.am      2 ALA2        0.0000 
     29 N          12.5600    7.7800  -33.2300 N.am      2 ALA2        0.0000 
     30 N          11.7800    8.9600  -33.7200 N.am      2 ALA2        0.0000 
     31 N          11.0000   10.1500  -34.2100 N.am      2 ALA2        0.0000 
     32 N          15.4400    3.7100  -29.2800 N.am      2 ALA2        0.0000 
     33 N          12.6400    4.4600  -27.6000 N.am      2 ALA2        0.0000 
     34 N          13.6500    4.6700  -28.6800 N.am      2 ALA2        0.0000 
     35 N          14.6700    4.8900  -29.7700 N.am      2 ALA2        0.0000 
     36 N          16.9300    6.7300  -33.5100 N.am      2 ALA2        0.0000 
     37 N          17.9400    6.9500  -34.5900 N.am      2 ALA2        0.0000 
     38 N          15.1400    7.7000  -32.9100 N.am      2 ALA2        0.0000 
     39 N          16.1500    7.9200  -34.0000 N.am      2 ALA2        0.0000 
     40 N          13.3500    8.6700  -32.3200 N.am      2 ALA2        0.0000 
     41 N          14.3600    8.8900  -33.4000 N.am      2 ALA2        0.0000 
     42 N          13.5800   10.0700  -33.8900 N.am      2 ALA2        0.0000 
     43 N          17.7100    7.6300  -32.5900 N.am      2 ALA2        0.0000 
     44 N          14.9100    8.3800  -30.9100 N.am      2 ALA2        0.0000 
     45 N          14.1300    9.5600  -31.4000 N.am      2 ALA2        0.0000 
     46 N          13.3500   10.7500  -31.8900 N.am      2 ALA2        0.0000 
     47 O          15.3800   11.1800  -34.0600 O.2       2 ALA2        0.0000 
     48 O          13.5900   12.1500  -33.4600 O.2       2 ALA2        0.0000 
     49 O          14.1400   11.6400  -30.9800 O.2       2 ALA2        0.0000 
     50 O          14.3800   13.0400  -32.5500 O.2       2 ALA2        0.0000 
     51 O          14.6100   14.4500  -34.1200 O.2       2 ALA2        0.0000 
     52 O          14.3800   15.1200  -32.1200 O.2       2 ALA2        0.0000 
     53 O          15.4000   15.3400  -33.2100 O.2       2 ALA2        0.0000 
     54 OD1        15.6300   14.6700  -35.2100 O.co2     3 ASP3        0.0000 
     55 NZ         18.7100    3.6900  -34.5300 N.4       4 LYS4        0.0000 
     56 NZ         16.9200    4.6500  -33.9300 N.4       4 LYS4        0.0000 
     57 NZ         17.9300    4.8700  -35.0200 N.4       4 LYS4        0.0000 
     58 NZ          8.2000   10.9000  -32.5300 N.4       4 LYS4        0.0000 
     59 NZ          9.2100   11.1200  -33.6100 N.4       4 LYS4        0.0000 
     60 NZ          9.7600   10.6000  -31.1300 N.4       4 LYS4        0.0000 
     61 NZ         10.7800   10.8200  -32.2100 N.4       4 LYS4        0.0000 
     62 NZ         11.7900   11.0400  -33.2900 N.4       4 LYS4        0.0000 
     63 NZ         11.0100   12.2300  -33.7800 N.4       4 LYS4        0.0000 
     64 NZ         12.5800   11.9300  -32.3800 N.4       4 LYS4        0.0000 
     65 NZ         11.8000   13.1200  -32.8700 N.4       4 LYS4        0.0000 
     66 NZ         12.8100   13.3400  -33.9500 N.4       4 LYS4        0.0000 
     67 NZ         12.0300   14.5200  -34.4400 N.4       4 LYS4        0.0000 
     68 NZ         11.2600   15.7100  -34.9300 N.4       4 LYS4        0.0000 
     69 CZ          4.3700    7.2700  -30.6200 C.ar      5 PHE5        0.0000 
     70 CZ          4.6000    8.6800  -32.1900 C.ar      5 PHE5        0.0000 
     71 CZ          5.6100    8.9000  -33.2700 C.ar      5 PHE5        0.0000 
     72 CZ          6.6300    9.1100  -34.3600 C.ar      5 PHE5        0.0000 
     73 CZ         11.0700    2.6700  -29.4300 C.ar      5 PHE5        0.0000 
     74 CZ          9.2800    3.6400  -28.8300 C.ar      5 PHE5        0.0000 
     75 CZ         10.2900    3.8600  -29.9200 C.ar      5 PHE5        0.0000 
     76 CZ         11.3000    4.0800  -31.0000 C.ar      5 PHE5        0.0000 
     77 CZ         12.3200    4.2900  -32.0800 C.ar      5 PHE5        0.0000 
     78 CZ         13.3300    4.5100  -33.1700 C.ar      5 PHE5        0.0000 
     79 CZ          7.4800    4.6100  -28.2400 C.ar      5 PHE5        0.0000 
     80 CZ          9.5100    5.0400  -30.4000 C.ar      5 PHE5        0.0000 
     81 CZ         10.5300    5.2600  -31.4900 C.ar      5 PHE5        0.0000 
     82 CZ         11.5400    5.4800  -32.5700 C.ar      5 PHE5        0.0000 
     83 CZ          5.6900    5.5800  -27.6400 C.ar      5 PHE5        0.0000 
     84 CZ          7.7200    6.0100  -29.8100 C.ar      5 PHE5        0.0000 
     85 CZ          8.7300    6.2300  -30.8900 C.ar      5 PHE5        0.0000 
     86 CZ          5.9300    6.9800  -29.2100 C.ar      5 PHE5        0.0000 
     87 CZ          6.9400    7.2000  -30.3000 C.ar      5 PHE5        0.0000 
     88 CZ          7.1800    8.6000  -31.8700 C.ar      5 PHE5        0.0000 
     89 CZ         13.8800    4.0000  -30.6800 C.ar      5 PHE5        0.0000 
     90 CZ          9.0500    4.3100  -26.8300 C.ar      5 PHE5        0.0000 
     91 CZ         10.0600    4.5300  -27.9200 C.ar      5 PHE5        0.0000 
     92 CZ         13.1000    5.1900  -31.1700 C.ar      5 PHE5        0.0000 
     93 CZ          8.2700    5.5000  -27.3200 C.ar      5 PHE5        0.0000 
     94 CZ          8.5100    6.9000  -28.8900 C.ar      5 PHE5        0.0000 
     95 CZ         10.5300    7.3400  -31.0600 C.ar      5 PHE5        0.0000 
     96 CZ          8.7400    8.3100  -30.4700 C.ar      5 PHE5        0.0000 
     97 CZ          9.7600    8.5300  -31.5500 C.ar      5 PHE5        0.0000 
     98 CZ          8.9800    9.7100  -32.0400 C.ar      5 PHE5        0.0000 
     99 CZ         11.6300    4.2400  -26.5100 C.ar      5 PHE5        0.0000 
    100 CZ         10.8500    5.4200  -27.0000 C.ar      5 PHE5        0.0000 
    101 CZ         10.0700    6.6100  -27.4900 C.ar      5 PHE5        0.0000 
    102 CZ         11.0800    6.8300  -28.5800 C.ar      5 PHE5        0.0000 
    103 CZ         10.3100    8.0100  -29.0600 C.ar      5 PHE5        0.0000 
    104 CZ          8.5100    8.9800  -28.4700 C.ar      5 PHE5        0.0000 
    105 CZ          9.5300    9.2000  -29.5500 C.ar      5 PHE5        0.0000 
    106 CZ         13.4300    5.3500  -26.6800 C.ar      5 PHE5        0.0000 
    107 CZ         12.6500    6.5300  -27.1700 C.ar      5 PHE5        0.0000 
    108 CZ         11.8700    7.7200  -27.6600 C.ar      5 PHE5        0.0000 
    109 CA          9.2100    9.0400  -34.0400 C.3       6 GLY6        0.0000 
    110 CA         10.2200    9.2600  -35.1200 C.3       6 GLY6        0.0000 
    111 CA         11.5500    7.5600  -32.1500 C.3       6 GLY6        0.0000 
    112 CA         10.7700    8.7400  -32.6400 C.3       6 GLY6        0.0000 
    113 CA          9.9900    9.9300  -33.1200 C.3       6 GLY6        0.0000 
    114 CA         15.6800    5.1100  -30.8500 C.3       6 GLY6        0.0000 
    115 CA         16.6900    5.3300  -31.9400 C.3       6 GLY6        0.0000 
    116 CA         17.7100    5.5500  -33.0200 C.3       6 GLY6        0.0000 
    117 CA         15.9200    6.5100  -32.4200 C.3       6 GLY6        0.0000 
    118 CA         12.8000   11.2600  -34.3800 C.3       6 GLY6        0.0000 
    119 CA         12.0300   12.4400  -34.8700 C.3       6 GLY6        0.0000 
    120 CA         14.4400    5.5700  -27.7700 C.3       6 GLY6        0.0000 
    121 CA         15.4500    5.7900  -28.8500 C.3       6 GLY6        0.0000 
    122 CA         13.6600    6.7500  -28.2600 C.3       6 GLY6        0.0000 
    123 CA         14.6700    6.9700  -29.3400 C.3       6 GLY6        0.0000 
    124 CA         15.6900    7.1900  -30.4300 C.3       6 GLY6        0.0000 
    125 CA         16.7000    7.4100  -31.5100 C.3       6 GLY6        0.0000 
    126 CA         18.7300    7.8400  -33.6800 C.3       6 GLY6        0.0000 
    127 CA         12.8800    7.9400  -28.7500 C.3       6 GLY6        0.0000 
    128 CA         13.9000    8.1600  -29.8300 C.3       6 GLY6        0.0000 
    129 CA         12.1100    9.1200  -29.2300 C.3       6 GLY6        0.0000 
    130 CA         13.1200    9.3400  -30.3200 C.3       6 GLY6        0.0000 
    131 CA         14.6000   12.3700  -34.5500 C.3       6 GLY6        0.0000 
    132 CA         11.8100   15.2000  -32.4400 C.3       6 GLY6        0.0000 
    133 CA         12.8200   15.4100  -33.5300 C.3       6 GLY6        0.0000 
    134 CA         12.0400   16.6000  -34.0100 C.3       6 GLY6        0.0000 
    135 DU         11.0800    4.7500  -29.0000 H         7 CUB7        0.0000 
    136 DU         12.0900    4.9700  -30.0900 H         7 CUB7        0.0000 
    137 DU          9.2800    5.7200  -28.4100 H         7 CUB7        0.0000 
    138 DU         10.3000    5.9400  -29.4900 H         7 CUB7        0.0000 
    139 DU         11.3100    6.1500  -30.5700 H         7 CUB7        0.0000 
    140 DU         12.3200    6.3700  -31.6600 H         7 CUB7        0.0000 
    141 DU          9.5200    7.1200  -29.9800 H         7 CUB7        0.0000 
    142 DU         18.7200    5.7700  -34.1000 H         7 CUB7        0.0000 
    143 DU         11.8600    5.6400  -28.0900 H         7 CUB7        0.0000 
    144 DU         12.8700    5.8600  -29.1700 H         7 CUB7        0.0000 
    145 DU         13.8900    6.0800  -30.2600 H         7 CUB7        0.0000 
    146 DU         14.9000    6.3000  -31.3400 H         7 CUB7        0.0000 
    147 DU         18.9600    7.1700  -35.6800 H         7 CUB7        0.0000 
    148 DU         12.1000    7.0500  -29.6600 H         7 CUB7        0.0000 
    149 DU         13.1100    7.2600  -30.7400 H         7 CUB7        0.0000 
    150 DU         14.1200    7.4800  -31.8300 H         7 CUB7        0.0000 
    151 DU         11.3200    8.2300  -30.1500 H         7 CUB7        0.0000 
    152 DU         12.3300    8.4500  -31.2300 H         7 CUB7        0.0000 
    153 DU         10.5400    9.4200  -30.6400 H         7 CUB7        0.0000 
    154 DU         11.5600    9.6400  -31.7200 H         7 CUB7        0.0000 
    155 DU         13.8300   13.5500  -35.0400 H         7 CUB7        0.0000 
    156 DU         13.0500   14.7400  -35.5200 H         7 CUB7        0.0000 
    157 DU         13.6000   14.2300  -33.0400 H         7 CUB7        0.0000 
    158 DU         13.8300   15.6300  -34.6100 H         7 CUB7        0.0000 
@<TRIPOS>BOND
@<TRIPOS>SUBSTRUCTURE
     1 SER1        1 GROUP   
     2 ALA2       23 GROUP   
     3 ASP3       54 GROUP   
     4 LYS4       55 GROUP   
     5 PHE5       69 GROUP   
     6 GLY6      109 GROUP   
     7 CUB7      135 GROUP   
@<TRIPOS>SET

