#    Name: 5yjf_1_SAH
#    Modification time : Fri May 22 19:26:22 2020

@<TRIPOS>MOLECULE
5yjf_1_SAH
   26    28     1     0     0
SMALL
NO_CHARGES


@<TRIPOS>ATOM
      1 N          -1.0240   -0.6580    3.2530 N.4       1 SAH301      0.0000 
      2 CA         -2.3840   -0.2890    3.6450 C.3       1 SAH301      0.0000 
      3 CB         -3.4600   -1.2430    3.1070 C.3       1 SAH301      0.0000 
      4 CG         -3.5650   -2.6180    3.7770 C.3       1 SAH301      0.0000 
      5 SD         -5.0990   -3.4790    3.3470 S.3       1 SAH301      0.0000 
      6 C          -2.4620   -0.1340    5.1570 C.2       1 SAH301      0.0000 
      7 O          -3.5330    0.0860    5.7110 O.co2     1 SAH301      0.0000 
      8 OXT        -1.4530   -0.2140    5.8550 O.co2     1 SAH301      0.0000 
      9 C5'        -4.2370   -4.7550    2.3830 C.3       1 SAH301      0.0000 
     10 C4'        -4.1220   -4.3620    0.9150 C.3       1 SAH301      0.0000 
     11 O4'        -3.4950   -5.3750    0.1490 O.3       1 SAH301      0.0000 
     12 C3'        -5.4770   -4.1120    0.2730 C.3       1 SAH301      0.0000 
     13 O3'        -5.5260   -2.7400   -0.0320 O.3       1 SAH301      0.0000 
     14 C2'        -5.4950   -4.9870   -0.9800 C.3       1 SAH301      0.0000 
     15 O2'        -5.9060   -4.3580   -2.1660 O.3       1 SAH301      0.0000 
     16 C1'        -4.0420   -5.3460   -1.1640 C.3       1 SAH301      0.0000 
     17 N9         -3.9010   -6.6040   -1.9170 N.pl3     1 SAH301      0.0000 
     18 C8         -4.5770   -7.7820   -1.7200 C.2       1 SAH301      0.0000 
     19 N7         -4.1420   -8.6700   -2.6400 N.2       1 SAH301      0.0000 
     20 C5         -3.1910   -8.0900   -3.4170 C.ar      1 SAH301      0.0000 
     21 C6         -2.4130   -8.5430   -4.4810 C.ar      1 SAH301      0.0000 
     22 N6         -2.5110   -9.7810   -4.9450 N.pl3     1 SAH301      0.0000 
     23 N1         -1.5260   -7.6940   -5.0800 N.ar      1 SAH301      0.0000 
     24 C2         -1.3840   -6.4090   -4.6260 C.ar      1 SAH301      0.0000 
     25 N3         -2.1440   -5.9610   -3.5680 N.ar      1 SAH301      0.0000 
     26 C4         -3.0370   -6.7870   -2.9720 C.ar      1 SAH301      0.0000 
@<TRIPOS>BOND
     1    1    2 1    
     2    2    3 1    
     3    2    6 1    
     4    3    4 1    
     5    4    5 1    
     6    5    9 1    
     7    6    7 ar   
     8    6    8 ar   
     9    9   10 1    
    10   10   11 1    
    11   10   12 1    
    12   11   16 1    
    13   12   13 1    
    14   12   14 1    
    15   14   15 1    
    16   14   16 1    
    17   16   17 1    
    18   17   18 1    
    19   17   26 1    
    20   18   19 2    
    21   19   20 1    
    22   20   21 ar   
    23   20   26 ar   
    24   21   22 1    
    25   21   23 ar   
    26   23   24 ar   
    27   24   25 ar   
    28   25   26 ar   
@<TRIPOS>SUBSTRUCTURE
     1 SAH301      1 GROUP   
@<TRIPOS>SET

