#    Name: 6djm_1_ANP
#    Modification time : Fri May 22 19:37:08 2020

@<TRIPOS>MOLECULE
6djm_1_ANP
   31    33     1     0     1
SMALL
NO_CHARGES


@<TRIPOS>ATOM
      1 PG        155.5620  171.1270  209.5490 P.3       1 ANP802      0.0000 
      2 O1G       156.8790  170.5200  209.1790 O.co2     1 ANP802      0.0000 
      3 O2G       154.3850  170.1780  209.1090 O.co2     1 ANP802      0.0000 
      4 O3G       155.3480  172.4810  208.7620 O.co2     1 ANP802      0.0000 
      5 PB        154.2080  172.3140  211.5960 P.3       1 ANP802      0.0000 
      6 O1B       153.1590  171.5180  212.2760 O.co2     1 ANP802      0.0000 
      7 O2B       153.6200  172.8940  210.2840 O.co2     1 ANP802      0.0000 
      8 N3B       155.5390  171.3870  211.2230 N.3       1 ANP802      0.0000 
      9 PA        153.8970  174.8430  212.2120 P.3       1 ANP802      0.0000 
     10 O1A       154.0860  175.2870  210.8230 O.co2     1 ANP802      0.0000 
     11 O2A       152.4450  174.6240  212.6210 O.co2     1 ANP802      0.0000 
     12 O3A       154.6220  173.4920  212.4950 O.3       1 ANP802      0.0000 
     13 O5'       154.6250  175.8450  213.1520 O.3       1 ANP802      0.0000 
     14 C5'       155.0290  175.3750  214.4370 C.3       1 ANP802      0.0000 
     15 C4'       156.2200  176.1660  214.8980 C.3       1 ANP802      0.0000 
     16 O4'       156.1270  177.5010  214.3760 O.3       1 ANP802      0.0000 
     17 C3'       156.3190  176.3460  216.4040 C.3       1 ANP802      0.0000 
     18 O3'       157.0260  175.2660  216.9990 O.3       1 ANP802      0.0000 
     19 C2'       157.1180  177.6390  216.5320 C.3       1 ANP802      0.0000 
     20 O2'       158.5140  177.3800  216.4850 O.3       1 ANP802      0.0000 
     21 C1'       156.6900  178.4210  215.2890 C.3       1 ANP802      0.0000 
     22 N9        155.7080  179.4620  215.5490 N.pl3     1 ANP802      0.0000 
     23 C8        154.4050  179.2980  215.9320 C.2       1 ANP802      0.0000 
     24 N7        153.7490  180.4210  216.0860 N.2       1 ANP802      0.0000 
     25 C5        154.6840  181.3920  215.7720 C.ar      1 ANP802      0.0000 
     26 C6        154.6180  182.7960  215.7420 C.ar      1 ANP802      0.0000 
     27 N6        153.5190  183.4920  216.0380 N.pl3     1 ANP802      0.0000 
     28 N1        155.7340  183.4680  215.3890 N.ar      1 ANP802      0.0000 
     29 C2        156.8350  182.7750  215.0910 C.ar      1 ANP802      0.0000 
     30 N3        157.0170  181.4540  215.0870 N.ar      1 ANP802      0.0000 
     31 C4        155.8960  180.8160  215.4400 C.ar      1 ANP802      0.0000 
@<TRIPOS>BOND
     1    1    2 ar   
     2    1    3 ar   
     3    1    4 ar   
     4    1    8 1    
     5    5    6 ar   
     6    5    7 ar   
     7    5    8 1    
     8    5   12 1    
     9    9   10 ar   
    10    9   11 ar   
    11    9   12 1    
    12    9   13 1    
    13   13   14 1    
    14   14   15 1    
    15   15   16 1    
    16   15   17 1    
    17   16   21 1    
    18   17   18 1    
    19   17   19 1    
    20   19   20 1    
    21   19   21 1    
    22   21   22 1    
    23   22   23 1    
    24   22   31 1    
    25   23   24 2    
    26   24   25 1    
    27   25   26 ar   
    28   25   31 ar   
    29   26   27 1    
    30   26   28 ar   
    31   28   29 ar   
    32   29   30 ar   
    33   30   31 ar   
@<TRIPOS>SUBSTRUCTURE
     1 ANP802      1 GROUP   
@<TRIPOS>SET
ATOM$ORANGE STATIC     ATOMS   COLORGROUP SYSTEM 
20 14 14 15 15 17 17 19 19 21 21 23 23 25 25 26 26 29 \
29 31 31 

