#    Name: 6djm_2_ANP_CAVITY_N1_4
#    Modification time : Fri May 22 19:37:13 2020

@<TRIPOS>MOLECULE
6djm_2_ANP_CAVITY_N1_4
   66     0     6     0     0
SMALL
NO_CHARGES


@<TRIPOS>ATOM
      1 OG        182.4800  161.7200  186.4600 O.3       1 SER1        0.0000 
      2 OG        183.8400  162.1400  185.9900 O.3       1 SER1        0.0000 
      3 OG        181.5100  164.7500  191.0900 O.3       1 SER1        0.0000 
      4 N         182.9400  160.2900  186.5200 N.am      2 ALA2        0.0000 
      5 N         183.3800  163.5700  185.9300 N.am      2 ALA2        0.0000 
      6 O         186.1000  164.4100  184.9800 O.2       2 ALA2        0.0000 
      7 O         186.5600  162.9900  185.0400 O.2       2 ALA2        0.0000 
      8 O         186.9900  166.2600  184.4500 O.2       2 ALA2        0.0000 
      9 O         187.9200  163.4100  184.5600 O.2       2 ALA2        0.0000 
     10 O         188.3800  161.9800  184.6200 O.2       2 ALA2        0.0000 
     11 N         183.8400  159.0700  188.0000 N.am      2 ALA2        0.0000 
     12 N         184.7400  160.9200  187.4700 N.am      2 ALA2        0.0000 
     13 N         185.2000  159.4900  187.5200 N.am      2 ALA2        0.0000 
     14 O         187.4300  166.4600  185.8700 O.2       2 ALA2        0.0000 
     15 OD1       187.4500  164.8300  184.5000 O.co2     3 ASP3        0.0000 
     16 OD1       189.2800  163.8300  184.0900 O.co2     3 ASP3        0.0000 
     17 OD1       182.9200  161.9200  187.8800 O.co2     3 ASP3        0.0000 
     18 OD1       183.3800  160.4900  187.9400 O.co2     3 ASP3        0.0000 
     19 OD1       187.4600  161.7600  186.5200 O.co2     3 ASP3        0.0000 
     20 OD1       187.8900  165.0300  185.9200 O.co2     3 ASP3        0.0000 
     21 OD1       188.8200  162.1800  186.0400 O.co2     3 ASP3        0.0000 
     22 OD1       189.7100  164.0300  185.5100 O.co2     3 ASP3        0.0000 
     23 OD1       181.5300  163.1200  189.7200 O.co2     3 ASP3        0.0000 
     24 OD1       183.3500  162.1200  189.3100 O.co2     3 ASP3        0.0000 
     25 OD1       187.0000  160.1100  188.4700 O.co2     3 ASP3        0.0000 
     26 OD1       187.8900  161.9600  187.9400 O.co2     3 ASP3        0.0000 
     27 OD1       188.7900  160.7300  189.4200 O.co2     3 ASP3        0.0000 
     28 OD1       189.2500  159.3100  189.4700 O.co2     3 ASP3        0.0000 
     29 OD1       186.4800  164.7900  191.1400 O.co2     3 ASP3        0.0000 
     30 NZ        183.8100  163.7700  187.3500 N.4       4 LYS4        0.0000 
     31 NZ        182.8900  163.5400  189.2500 N.4       4 LYS4        0.0000 
     32 NZ        183.8200  160.6900  189.3600 N.4       4 LYS4        0.0000 
     33 NZ        184.2500  163.9700  188.7700 N.4       4 LYS4        0.0000 
     34 NZ        184.7100  162.5400  188.8300 N.4       4 LYS4        0.0000 
     35 NZ        185.1700  161.1100  188.8900 N.4       4 LYS4        0.0000 
     36 NZ        185.6400  159.6900  188.9500 N.4       4 LYS4        0.0000 
     37 NZ        185.6100  164.3900  188.3000 N.4       4 LYS4        0.0000 
     38 NZ        186.0700  162.9600  188.3500 N.4       4 LYS4        0.0000 
     39 NZ        186.5300  161.5400  188.4100 N.4       4 LYS4        0.0000 
     40 NZ        182.8600  165.1700  190.6100 N.4       4 LYS4        0.0000 
     41 NZ        184.6900  164.1600  190.1900 N.4       4 LYS4        0.0000 
     42 NZ        185.1500  162.7400  190.2500 N.4       4 LYS4        0.0000 
     43 NZ        186.0400  164.5900  189.7200 N.4       4 LYS4        0.0000 
     44 NZ        186.5100  163.1600  189.7800 N.4       4 LYS4        0.0000 
     45 NZ        187.8900  158.8800  189.9500 N.4       4 LYS4        0.0000 
     46 NZ        188.3600  157.4600  190.0100 N.4       4 LYS4        0.0000 
     47 CA        184.7400  163.9900  185.4500 C.3       5 GLY6        0.0000 
     48 CA        185.2000  162.5600  185.5100 C.3       5 GLY6        0.0000 
     49 CA        182.4500  163.3400  187.8300 C.3       5 GLY6        0.0000 
     50 CA        185.1700  164.1900  186.8800 C.3       5 GLY6        0.0000 
     51 CA        186.1000  161.3400  186.9900 C.3       5 GLY6        0.0000 
     52 CA        186.5300  164.6100  186.4000 C.3       5 GLY6        0.0000 
     53 CA        188.3500  163.6100  185.9800 C.3       5 GLY6        0.0000 
     54 CA        186.9700  164.8100  187.8200 C.3       5 GLY6        0.0000 
     55 CA        187.4300  163.3800  187.8800 C.3       5 GLY6        0.0000 
     56 CA        188.3300  165.2300  187.3500 C.3       5 GLY6        0.0000 
     57 CA        183.3300  163.7400  190.6700 C.3       5 GLY6        0.0000 
     58 CA        183.7900  162.3200  190.7300 C.3       5 GLY6        0.0000 
     59 CA        187.4000  165.0100  189.2400 C.3       5 GLY6        0.0000 
     60 CA        187.8700  163.5800  189.3000 C.3       5 GLY6        0.0000 
     61 CA        188.3300  162.1600  189.3600 C.3       5 GLY6        0.0000 
     62 CA        189.7200  157.8800  189.5300 C.3       5 GLY6        0.0000 
     63 CA        188.3000  163.7800  190.7200 C.3       5 GLY6        0.0000 
     64 DU        184.2800  162.3400  187.4100 H         6 CUB7        0.0000 
     65 DU        185.6400  162.7600  186.9300 H         6 CUB7        0.0000 
     66 DU        186.9900  163.1800  186.4600 H         6 CUB7        0.0000 
@<TRIPOS>BOND
@<TRIPOS>SUBSTRUCTURE
     1 SER1        1 GROUP   
     2 ALA2        4 GROUP   
     3 ASP3       15 GROUP   
     4 LYS4       30 GROUP   
     5 GLY6       47 GROUP   
     6 CUB7       64 GROUP   
@<TRIPOS>SET

