#    Name: 6djm_3_ANP
#    Modification time : Fri May 22 19:37:16 2020

@<TRIPOS>MOLECULE
6djm_3_ANP
   31    33     1     0     1
SMALL
NO_CHARGES


@<TRIPOS>ATOM
      1 PG        157.4470  177.5980  154.6870 P.3       1 ANP802      0.0000 
      2 O1G       158.6700  178.0180  153.9430 O.co2     1 ANP802      0.0000 
      3 O2G       156.1770  178.2720  154.0380 O.co2     1 ANP802      0.0000 
      4 O3G       157.3090  176.0270  154.5980 O.co2     1 ANP802      0.0000 
      5 PB        156.8080  179.4810  156.6310 P.3       1 ANP802      0.0000 
      6 O1B       155.6870  179.2980  157.5770 O.co2     1 ANP802      0.0000 
      7 O2B       156.2520  180.1230  155.3340 O.co2     1 ANP802      0.0000 
      8 N3B       157.6050  178.0490  156.3090 N.3       1 ANP802      0.0000 
      9 PA        157.2480  181.9030  157.4400 P.3       1 ANP802      0.0000 
     10 O1A       157.9070  182.8600  156.5470 O.co2     1 ANP802      0.0000 
     11 O2A       155.7400  181.7700  157.2540 O.co2     1 ANP802      0.0000 
     12 O3A       157.8030  180.4670  157.2650 O.3       1 ANP802      0.0000 
     13 O5'       157.6300  182.2640  158.8970 O.3       1 ANP802      0.0000 
     14 C5'       158.5190  183.3420  159.1270 C.3       1 ANP802      0.0000 
     15 C4'       159.8210  182.8170  159.6630 C.3       1 ANP802      0.0000 
     16 O4'       160.8640  183.7430  159.3030 O.3       1 ANP802      0.0000 
     17 C3'       159.8550  182.6730  161.1830 C.3       1 ANP802      0.0000 
     18 O3'       159.7340  181.3160  161.5840 O.3       1 ANP802      0.0000 
     19 C2'       161.2110  183.2640  161.5830 C.3       1 ANP802      0.0000 
     20 O2'       162.2180  182.2620  161.6280 O.3       1 ANP802      0.0000 
     21 C1'       161.4990  184.2490  160.4550 C.3       1 ANP802      0.0000 
     22 N9        161.0550  185.6250  160.6810 N.pl3     1 ANP802      0.0000 
     23 C8        159.8040  186.0760  161.0120 C.2       1 ANP802      0.0000 
     24 N7        159.7230  187.3760  161.1400 N.2       1 ANP802      0.0000 
     25 C5        161.0070  187.8130  160.8680 C.ar      1 ANP802      0.0000 
     26 C6        161.5850  189.0940  160.8400 C.ar      1 ANP802      0.0000 
     27 N6        160.9120  190.2170  161.0940 N.pl3     1 ANP802      0.0000 
     28 N1        162.8950  189.1820  160.5370 N.ar      1 ANP802      0.0000 
     29 C2        163.5740  188.0610  160.2820 C.ar      1 ANP802      0.0000 
     30 N3        163.1400  186.8010  160.2820 N.ar      1 ANP802      0.0000 
     31 C4        161.8390  186.7450  160.5840 C.ar      1 ANP802      0.0000 
@<TRIPOS>BOND
     1    1    2 ar   
     2    1    3 ar   
     3    1    4 ar   
     4    1    8 1    
     5    5    6 ar   
     6    5    7 ar   
     7    5    8 1    
     8    5   12 1    
     9    9   10 ar   
    10    9   11 ar   
    11    9   12 1    
    12    9   13 1    
    13   13   14 1    
    14   14   15 1    
    15   15   16 1    
    16   15   17 1    
    17   16   21 1    
    18   17   18 1    
    19   17   19 1    
    20   19   20 1    
    21   19   21 1    
    22   21   22 1    
    23   22   23 1    
    24   22   31 1    
    25   23   24 2    
    26   24   25 1    
    27   25   26 ar   
    28   25   31 ar   
    29   26   27 1    
    30   26   28 ar   
    31   28   29 ar   
    32   29   30 ar   
    33   30   31 ar   
@<TRIPOS>SUBSTRUCTURE
     1 ANP802      1 GROUP   
@<TRIPOS>SET
ATOM$ORANGE STATIC     ATOMS   COLORGROUP SYSTEM 
20 14 14 15 15 17 17 19 19 21 21 23 23 25 25 26 26 29 \
29 31 31 

