#    Name: 6djm_2_ANP
#    Modification time : Fri May 22 19:37:12 2020

@<TRIPOS>MOLECULE
6djm_2_ANP
   31    33     1     0     1
SMALL
NO_CHARGES


@<TRIPOS>ATOM
      1 PG        186.5160  168.4060  182.6420 P.3       1 ANP802      0.0000 
      2 O1G       185.3810  167.8540  181.8500 O.co2     1 ANP802      0.0000 
      3 O2G       187.8670  168.0900  181.8930 O.co2     1 ANP802      0.0000 
      4 O3G       186.3050  169.9670  182.7490 O.co2     1 ANP802      0.0000 
      5 PB        187.7640  166.5690  184.2590 P.3       1 ANP802      0.0000 
      6 O1B       189.0440  167.1370  184.7390 O.co2     1 ANP802      0.0000 
      7 O2B       187.9880  165.9620  182.8500 O.co2     1 ANP802      0.0000 
      8 N3B       186.5560  167.7190  184.1890 N.3       1 ANP802      0.0000 
      9 PA        187.6570  163.9770  184.7960 P.3       1 ANP802      0.0000 
     10 O1A       187.3690  163.7340  183.3750 O.co2     1 ANP802      0.0000 
     11 O2A       189.0930  163.7030  185.2320 O.co2     1 ANP802      0.0000 
     12 O3A       187.3400  165.4430  185.2180 O.3       1 ANP802      0.0000 
     13 O5'       186.6350  163.1750  185.6450 O.3       1 ANP802      0.0000 
     14 C5'       186.3620  163.6630  186.9580 C.3       1 ANP802      0.0000 
     15 C4'       185.0190  163.1610  187.3990 C.3       1 ANP802      0.0000 
     16 O4'       184.8330  161.8270  186.9010 O.3       1 ANP802      0.0000 
     17 C3'       184.8540  163.0380  188.9050 C.3       1 ANP802      0.0000 
     18 O3'       184.3800  164.2530  189.4700 O.3       1 ANP802      0.0000 
     19 C2'       183.7950  161.9490  189.0360 C.3       1 ANP802      0.0000 
     20 O2'       182.4850  162.4950  188.9740 O.3       1 ANP802      0.0000 
     21 C1'       184.0590  161.0720  187.8110 C.3       1 ANP802      0.0000 
     22 N9        184.7780  159.8440  188.1050 N.pl3     1 ANP802      0.0000 
     23 C8        186.0850  159.7130  188.4890 C.2       1 ANP802      0.0000 
     24 N7        186.4650  158.4730  188.6750 N.2       1 ANP802      0.0000 
     25 C5        185.3280  157.7370  188.3860 C.ar      1 ANP802      0.0000 
     26 C6        185.0660  156.3560  188.3990 C.ar      1 ANP802      0.0000 
     27 N6        185.9730  155.4310  188.7180 N.pl3     1 ANP802      0.0000 
     28 N1        183.8230  155.9520  188.0610 N.ar      1 ANP802      0.0000 
     29 C2        182.9120  156.8720  187.7390 C.ar      1 ANP802      0.0000 
     30 N3        183.0420  158.1990  187.6970 N.ar      1 ANP802      0.0000 
     31 C4        184.2820  158.5680  188.0350 C.ar      1 ANP802      0.0000 
@<TRIPOS>BOND
     1    1    2 ar   
     2    1    3 ar   
     3    1    4 ar   
     4    1    8 1    
     5    5    6 ar   
     6    5    7 ar   
     7    5    8 1    
     8    5   12 1    
     9    9   10 ar   
    10    9   11 ar   
    11    9   12 1    
    12    9   13 1    
    13   13   14 1    
    14   14   15 1    
    15   15   16 1    
    16   15   17 1    
    17   16   21 1    
    18   17   18 1    
    19   17   19 1    
    20   19   20 1    
    21   19   21 1    
    22   21   22 1    
    23   22   23 1    
    24   22   31 1    
    25   23   24 2    
    26   24   25 1    
    27   25   26 ar   
    28   25   31 ar   
    29   26   27 1    
    30   26   28 ar   
    31   28   29 ar   
    32   29   30 ar   
    33   30   31 ar   
@<TRIPOS>SUBSTRUCTURE
     1 ANP802      1 GROUP   
@<TRIPOS>SET
ATOM$ORANGE STATIC     ATOMS   COLORGROUP SYSTEM 
20 14 14 15 15 17 17 19 19 21 21 23 23 25 25 26 26 29 \
29 31 31 

