#    Name: 6tz7_1_FK5
#    Modification time : Fri May 22 19:27:04 2020

@<TRIPOS>MOLECULE
6tz7_1_FK5
   57    60     1     0     0
SMALL
NO_CHARGES


@<TRIPOS>ATOM
      1 C1          2.2650  -11.6260  -42.5960 C.2       1 FK5201      0.0000 
      2 C2          1.4880  -12.0060  -43.8290 C.3       1 FK5201      0.0000 
      3 C3          1.5250  -10.8510  -44.8270 C.3       1 FK5201      0.0000 
      4 C4          0.6140   -9.7090  -44.3930 C.3       1 FK5201      0.0000 
      5 C5         -0.8200  -10.1920  -44.2150 C.3       1 FK5201      0.0000 
      6 C6         -0.8930  -11.3190  -43.1910 C.3       1 FK5201      0.0000 
      7 C8         -0.2770  -13.6480  -43.5860 C.2       1 FK5201      0.0000 
      8 C9         -1.5840  -14.0460  -43.3030 C.2       1 FK5201      0.0000 
      9 C10        -1.9910  -14.4300  -41.8840 C.3       1 FK5201      0.0000 
     10 C11        -0.8200  -15.1310  -41.1920 C.3       1 FK5201      0.0000 
     11 C12        -0.9810  -15.1790  -39.6780 C.3       1 FK5201      0.0000 
     12 C13        -1.4120  -13.8200  -39.1510 C.3       1 FK5201      0.0000 
     13 C14        -2.6930  -13.4090  -39.8630 C.3       1 FK5201      0.0000 
     14 C15        -3.2690  -12.0960  -39.3450 C.3       1 FK5201      0.0000 
     15 C16        -2.1690  -11.0590  -39.1370 C.3       1 FK5201      0.0000 
     16 C17        -2.7110   -9.6390  -38.9990 C.3       1 FK5201      0.0000 
     17 C18        -3.0320   -9.3460  -37.5370 C.3       1 FK5201      0.0000 
     18 C19        -1.7700   -9.0060  -36.7800 C.2       1 FK5201      0.0000 
     19 C20        -1.0430  -10.0580  -36.0550 C.2       1 FK5201      0.0000 
     20 C21         0.2590   -9.7620  -35.3760 C.3       1 FK5201      0.0000 
     21 C22         1.3860  -10.1400  -36.2890 C.2       1 FK5201      0.0000 
     22 C23         1.9740   -9.1140  -37.2280 C.3       1 FK5201      0.0000 
     23 C24         2.7640   -9.8260  -38.3200 C.3       1 FK5201      0.0000 
     24 C25         1.8350  -10.4230  -39.3720 C.3       1 FK5201      0.0000 
     25 C26         2.6140  -11.1710  -40.4490 C.3       1 FK5201      0.0000 
     26 C27         3.2940  -12.3640  -39.8400 C.2       1 FK5201      0.0000 
     27 C28         4.7580  -12.3770  -39.6910 C.2       1 FK5201      0.0000 
     28 C29         5.4590  -13.5050  -38.9940 C.3       1 FK5201      0.0000 
     29 C30         6.6150  -13.9820  -39.8680 C.3       1 FK5201      0.0000 
     30 C31         7.4990  -15.0080  -39.1650 C.3       1 FK5201      0.0000 
     31 C32         7.9860  -14.4930  -37.8170 C.3       1 FK5201      0.0000 
     32 C33         6.8050  -14.0790  -36.9500 C.3       1 FK5201      0.0000 
     33 C34         5.9900  -13.0030  -37.6560 C.3       1 FK5201      0.0000 
     34 C35        -0.6480  -16.5440  -41.7360 C.3       1 FK5201      0.0000 
     35 C36        -3.9320   -9.4110  -39.8840 C.3       1 FK5201      0.0000 
     36 C37        -1.2630   -7.5940  -36.7670 C.3       1 FK5201      0.0000 
     37 C38         0.3520  -10.5840  -34.0960 C.3       1 FK5201      0.0000 
     38 C39        -0.9000  -10.3810  -33.2740 C.2       1 FK5201      0.0000 
     39 C40        -0.8030   -9.8880  -31.8920 C.2       1 FK5201      0.0000 
     40 C41         0.9570   -9.3410  -39.9860 C.3       1 FK5201      0.0000 
     41 C42         2.4860  -13.5420  -39.3860 C.3       1 FK5201      0.0000 
     42 C43        -0.3590  -13.7770  -37.0810 C.3       1 FK5201      0.0000 
     43 C44        -5.3430  -12.5280  -38.3670 C.3       1 FK5201      0.0000 
     44 C45         8.3350  -16.3540  -40.8820 C.3       1 FK5201      0.0000 
     45 N7          0.0880  -12.3650  -43.5260 N.am      1 FK5201      0.0000 
     46 O1          1.7250  -11.5860  -41.4660 O.3       1 FK5201      0.0000 
     47 O2          3.6330  -11.3100  -42.7100 O.2       1 FK5201      0.0000 
     48 O3          0.6800  -14.6090  -43.9690 O.2       1 FK5201      0.0000 
     49 O4         -2.5360  -14.0990  -44.3420 O.2       1 FK5201      0.0000 
     50 O5         -2.3730  -13.2430  -41.2220 O.3       1 FK5201      0.0000 
     51 O6         -3.1240  -15.3350  -41.9220 O.3       1 FK5201      0.0000 
     52 O7         -1.5940  -13.8890  -37.7560 O.3       1 FK5201      0.0000 
     53 O8         -3.9660  -12.3210  -38.1390 O.3       1 FK5201      0.0000 
     54 O9          1.8920  -11.4550  -36.2750 O.2       1 FK5201      0.0000 
     55 O10         3.6500   -8.9160  -38.9310 O.3       1 FK5201      0.0000 
     56 O11         8.6100  -15.3050  -39.9810 O.3       1 FK5201      0.0000 
     57 O12         8.7190  -15.5050  -37.1650 O.3       1 FK5201      0.0000 
@<TRIPOS>BOND
     1    1    2 1    
     2    1   46 1    
     3    1   47 2    
     4    2    3 1    
     5    2   45 1    
     6    3    4 1    
     7    4    5 1    
     8    5    6 1    
     9    6   45 1    
    10    7    8 1    
    11    7   45 am   
    12    7   48 2    
    13    8    9 1    
    14    8   49 2    
    15    9   10 1    
    16    9   50 1    
    17    9   51 1    
    18   10   11 1    
    19   10   34 1    
    20   11   12 1    
    21   12   13 1    
    22   12   52 1    
    23   13   14 1    
    24   13   50 1    
    25   14   15 1    
    26   14   53 1    
    27   15   16 1    
    28   16   17 1    
    29   16   35 1    
    30   17   18 1    
    31   18   19 2    
    32   18   36 1    
    33   19   20 1    
    34   20   21 1    
    35   20   37 1    
    36   21   22 1    
    37   21   54 2    
    38   22   23 1    
    39   23   24 1    
    40   23   55 1    
    41   24   25 1    
    42   24   40 1    
    43   25   26 1    
    44   25   46 1    
    45   26   27 2    
    46   26   41 1    
    47   27   28 1    
    48   28   29 1    
    49   28   33 1    
    50   29   30 1    
    51   30   31 1    
    52   30   56 1    
    53   31   32 1    
    54   31   57 1    
    55   32   33 1    
    56   37   38 1    
    57   38   39 2    
    58   42   52 1    
    59   43   53 1    
    60   44   56 1    
@<TRIPOS>SUBSTRUCTURE
     1 FK5201      1 GROUP   
@<TRIPOS>SET

