#    Name: 6ine_1_SAM
#    Modification time : Fri May 22 19:26:31 2020

@<TRIPOS>MOLECULE
6ine_1_SAM
   27    29     1     0     0
SMALL
NO_CHARGES


@<TRIPOS>ATOM
      1 N         -47.2330    0.9410   -3.1130 N.4       1 SAM2304     0.0000 
      2 CA        -46.9970    2.1990   -3.8150 C.3       1 SAM2304     0.0000 
      3 C         -47.7830    2.2860   -5.1270 C.2       1 SAM2304     0.0000 
      4 O         -47.4410    3.0560   -6.0270 O.co2     1 SAM2304     0.0000 
      5 OXT       -48.7850    1.5930   -5.3210 O.co2     1 SAM2304     0.0000 
      6 CB        -45.5020    2.3780   -4.0730 C.3       1 SAM2304     0.0000 
      7 CG        -44.7410    3.0500   -2.9340 C.3       1 SAM2304     0.0000 
      8 SD        -45.1170    4.8190   -2.8130 S.3       1 SAM2304     0.0000 
      9 CE        -43.4640    5.5590   -2.8020 C.3       1 SAM2304     0.0000 
     10 C5'       -45.5580    4.9970   -1.0660 C.3       1 SAM2304     0.0000 
     11 C4'       -47.0290    4.7020   -0.8050 C.3       1 SAM2304     0.0000 
     12 O4'       -47.2500    3.3020   -0.7730 O.3       1 SAM2304     0.0000 
     13 C3'       -47.4960    5.2670    0.5270 C.3       1 SAM2304     0.0000 
     14 O3'       -48.1710    6.4860    0.3370 O.3       1 SAM2304     0.0000 
     15 C2'       -48.4530    4.2250    1.0470 C.3       1 SAM2304     0.0000 
     16 O2'       -49.7510    4.5420    0.6100 O.3       1 SAM2304     0.0000 
     17 C1'       -48.0240    2.9510    0.3560 C.3       1 SAM2304     0.0000 
     18 N9        -47.1860    2.1840    1.2900 N.pl3     1 SAM2304     0.0000 
     19 C8        -45.8190    2.0740    1.2520 C.2       1 SAM2304     0.0000 
     20 N7        -45.4240    1.2960    2.2850 N.2       1 SAM2304     0.0000 
     21 C5        -46.5170    0.9210    2.9860 C.ar      1 SAM2304     0.0000 
     22 C6        -46.6790    0.1380    4.1220 C.ar      1 SAM2304     0.0000 
     23 N6        -45.6260   -0.4040    4.7260 N.pl3     1 SAM2304     0.0000 
     24 N1        -47.9450   -0.0760    4.6210 N.ar      1 SAM2304     0.0000 
     25 C2        -49.0430    0.4850    4.0000 C.ar      1 SAM2304     0.0000 
     26 N3        -48.8760    1.2610    2.8720 N.ar      1 SAM2304     0.0000 
     27 C4        -47.6340    1.4730    2.3720 C.ar      1 SAM2304     0.0000 
@<TRIPOS>BOND
     1    1    2 1    
     2    2    3 1    
     3    2    6 1    
     4    3    4 ar   
     5    3    5 ar   
     6    6    7 1    
     7    7    8 1    
     8    8    9 1    
     9    8   10 1    
    10   10   11 1    
    11   11   12 1    
    12   11   13 1    
    13   12   17 1    
    14   13   14 1    
    15   13   15 1    
    16   15   16 1    
    17   15   17 1    
    18   17   18 1    
    19   18   19 1    
    20   18   27 1    
    21   19   20 2    
    22   20   21 1    
    23   21   22 ar   
    24   21   27 ar   
    25   22   23 1    
    26   22   24 ar   
    27   24   25 ar   
    28   25   26 ar   
    29   26   27 ar   
@<TRIPOS>SUBSTRUCTURE
     1 SAM2304     1 GROUP   
@<TRIPOS>SET

