#    Name: 6ine_1_SAM_CAVITY_N1_4
#    Modification time : Fri May 22 19:26:33 2020

@<TRIPOS>MOLECULE
6ine_1_SAM_CAVITY_N1_4
   93     0     6     0     0
SMALL
NO_CHARGES


@<TRIPOS>ATOM
      1 OG        -47.7600    3.0100   -4.4100 O.3       1 SER1        0.0000 
      2 OG        -46.7800    4.0800   -4.0300 O.3       1 SER1        0.0000 
      3 OG        -45.2500    3.1200    0.6100 O.3       1 SER1        0.0000 
      4 OG        -45.0600    3.4600   -0.8400 O.3       1 SER1        0.0000 
      5 OG        -44.8700    3.8000   -2.2900 O.3       1 SER1        0.0000 
      6 OG        -46.1800    4.4600   -0.7500 O.3       1 SER1        0.0000 
      7 OG        -43.8800    4.8700   -1.9000 O.3       1 SER1        0.0000 
      8 OG        -42.9000    5.9400   -1.5200 O.3       1 SER1        0.0000 
      9 N         -49.7000    0.2300    2.4500 N.am      2 ALA2        0.0000 
     10 N         -48.9400    1.6000   -3.3400 N.am      2 ALA2        0.0000 
     11 O         -48.7400    1.9500   -4.7900 O.2       2 ALA2        0.0000 
     12 N         -51.0100    0.8800    3.9800 N.am      2 ALA2        0.0000 
     13 N         -50.8100    1.2200    2.5400 N.am      2 ALA2        0.0000 
     14 N         -50.6200    1.5700    1.0900 N.am      2 ALA2        0.0000 
     15 N         -50.4300    1.9100   -0.3600 N.am      2 ALA2        0.0000 
     16 N         -52.1200    1.8800    4.0700 N.am      2 ALA2        0.0000 
     17 N         -51.9300    2.2200    2.6300 N.am      2 ALA2        0.0000 
     18 N         -51.7400    2.5700    1.1800 N.am      2 ALA2        0.0000 
     19 O         -47.7900   -0.0500    4.1900 O.2       2 ALA2        0.0000 
     20 N         -47.4100    0.6400    1.2900 N.am      2 ALA2        0.0000 
     21 N         -46.8400    1.6700   -3.0500 N.am      2 ALA2        0.0000 
     22 N         -46.6400    2.0200   -4.5000 N.am      2 ALA2        0.0000 
     23 N         -48.9100    0.9500    4.2800 N.am      2 ALA2        0.0000 
     24 N         -48.5200    1.6400    1.3800 N.am      2 ALA2        0.0000 
     25 N         -48.3300    1.9800   -0.0700 N.am      2 ALA2        0.0000 
     26 N         -48.1400    2.3300   -1.5100 N.am      2 ALA2        0.0000 
     27 N         -49.8300    2.2900    2.9200 N.am      2 ALA2        0.0000 
     28 N         -49.6400    2.6400    1.4700 N.am      2 ALA2        0.0000 
     29 N         -50.7600    3.6300    1.5600 N.am      2 ALA2        0.0000 
     30 O         -51.6800    4.9700    0.2000 O.2       2 ALA2        0.0000 
     31 O         -45.5000    0.3600    3.0300 O.2       2 ALA2        0.0000 
     32 N         -46.4200    1.7100    1.6700 N.am      2 ALA2        0.0000 
     33 N         -46.2300    2.0500    0.2300 N.am      2 ALA2        0.0000 
     34 N         -45.8500    2.7400   -2.6700 N.am      2 ALA2        0.0000 
     35 N         -45.6600    3.0800   -4.1200 N.am      2 ALA2        0.0000 
     36 N         -47.3500    3.0500    0.3200 N.am      2 ALA2        0.0000 
     37 N         -48.6600    3.7000    1.8500 N.am      2 ALA2        0.0000 
     38 O         -49.5800    5.0400    0.5000 O.2       2 ALA2        0.0000 
     39 N         -44.6800    4.1500   -3.7300 N.am      2 ALA2        0.0000 
     40 O         -47.2900    5.4600   -0.6600 O.2       2 ALA2        0.0000 
     41 O         -48.6000    6.1100    0.8800 O.2       2 ALA2        0.0000 
     42 O         -48.4100    6.4500   -0.5700 O.2       2 ALA2        0.0000 
     43 N         -43.6900    5.2100   -3.3500 N.am      2 ALA2        0.0000 
     44 N         -45.0000    5.8700   -1.8100 N.am      2 ALA2        0.0000 
     45 O         -46.3100    6.5200   -0.2700 O.2       2 ALA2        0.0000 
     46 O         -47.6200    7.1700    1.2600 O.2       2 ALA2        0.0000 
     47 N         -43.2200    7.6500    0.4000 N.am      2 ALA2        0.0000 
     48 NZ        -52.1500    2.5300   -3.5500 N.4       3 LYS4        0.0000 
     49 NZ        -51.9600    2.8800   -4.9900 N.4       3 LYS4        0.0000 
     50 NZ        -50.2400    2.2600   -1.8100 N.4       3 LYS4        0.0000 
     51 NZ        -50.0500    2.6000   -3.2500 N.4       3 LYS4        0.0000 
     52 NZ        -49.8600    2.9500   -4.7000 N.4       3 LYS4        0.0000 
     53 NZ        -51.5500    2.9100   -0.2700 N.4       3 LYS4        0.0000 
     54 NZ        -51.3600    3.2600   -1.7200 N.4       3 LYS4        0.0000 
     55 NZ        -47.9500    2.6700   -2.9600 N.4       3 LYS4        0.0000 
     56 NZ        -49.4500    2.9800    0.0200 N.4       3 LYS4        0.0000 
     57 NZ        -50.5700    3.9800    0.1100 N.4       3 LYS4        0.0000 
     58 NZ        -47.1600    3.3900   -1.1300 N.4       3 LYS4        0.0000 
     59 NZ        -46.9700    3.7400   -2.5800 N.4       3 LYS4        0.0000 
     60 NZ        -48.4700    4.0500    0.4100 N.4       3 LYS4        0.0000 
     61 NZ        -48.2800    4.3900   -1.0400 N.4       3 LYS4        0.0000 
     62 NZ        -45.9800    4.8000   -2.1900 N.4       3 LYS4        0.0000 
     63 CZ        -45.4400    2.7700    2.0600 C.ar      4 PHE5        0.0000 
     64 CZ        -46.3700    4.1100    0.7000 C.ar      4 PHE5        0.0000 
     65 CZ        -45.7900    5.1500   -3.6400 C.ar      4 PHE5        0.0000 
     66 CZ        -45.5700    4.8300    2.5300 C.ar      4 PHE5        0.0000 
     67 CZ        -45.1900    5.5200   -0.3600 C.ar      4 PHE5        0.0000 
     68 CZ        -44.8100    6.2100   -3.2600 C.ar      4 PHE5        0.0000 
     69 CZ        -46.5000    6.1800    1.1700 C.ar      4 PHE5        0.0000 
     70 CZ        -44.2100    6.5900    0.0200 C.ar      4 PHE5        0.0000 
     71 CZ        -45.7100    6.9000    3.0000 C.ar      4 PHE5        0.0000 
     72 CZ        -45.5200    7.2400    1.5600 C.ar      4 PHE5        0.0000 
     73 CA        -51.2300    1.1900   -2.1900 C.3       5 GLY6        0.0000 
     74 CA        -51.0400    1.5400   -3.6400 C.3       5 GLY6        0.0000 
     75 CA        -50.8400    1.8800   -5.0800 C.3       5 GLY6        0.0000 
     76 CA        -49.5100    0.5700    1.0000 C.3       5 GLY6        0.0000 
     77 CA        -47.6000    0.3000    2.7400 C.3       5 GLY6        0.0000 
     78 CA        -48.7100    1.2900    2.8300 C.3       5 GLY6        0.0000 
     79 CA        -45.3100    0.7100    1.5800 C.3       5 GLY6        0.0000 
     80 CA        -46.6100    1.3600    3.1200 C.3       5 GLY6        0.0000 
     81 CA        -47.5400    2.7000    1.7600 C.3       5 GLY6        0.0000 
     82 CA        -48.8500    3.3600    3.3000 C.3       5 GLY6        0.0000 
     83 CA        -46.5600    3.7700    2.1500 C.3       5 GLY6        0.0000 
     84 CA        -47.6700    4.7700    2.2400 C.3       5 GLY6        0.0000 
     85 CA        -47.1000    5.8000   -2.1000 C.3       5 GLY6        0.0000 
     86 CA        -46.6900    5.8300    2.6200 C.3       5 GLY6        0.0000 
     87 CA        -47.8100    6.8300    2.7100 C.3       5 GLY6        0.0000 
     88 CA        -48.7300    8.1700    1.3500 C.3       5 GLY6        0.0000 
     89 CA        -46.8200    7.9000    3.0900 C.3       5 GLY6        0.0000 
     90 CA        -46.6300    8.2400    1.6500 C.3       5 GLY6        0.0000 
     91 CA        -47.9400    8.8900    3.1800 C.3       5 GLY6        0.0000 
     92 CA        -47.7500    9.2400    1.7400 C.3       5 GLY6        0.0000 
     93 DU        -47.4800    5.1100    0.7900 H         6 CUB7        0.0000 
@<TRIPOS>BOND
@<TRIPOS>SUBSTRUCTURE
     1 SER1        1 GROUP   
     2 ALA2        9 GROUP   
     3 LYS4       48 GROUP   
     4 PHE5       63 GROUP   
     5 GLY6       73 GROUP   
     6 CUB7       93 GROUP   
@<TRIPOS>SET

