#    Name: 6gtb_1_NAD
#    Modification time : Fri May 22 19:29:55 2020

@<TRIPOS>MOLECULE
6gtb_1_NAD
   44    48     1     0     1
SMALL
NO_CHARGES


@<TRIPOS>ATOM
      1 PA        -12.8790  -30.0050  -18.5870 P.3       1 NAD301      0.0000 
      2 O1A       -13.2900  -30.9000  -19.6960 O.co2     1 NAD301      0.0000 
      3 O2A       -13.9600  -29.1840  -17.9040 O.co2     1 NAD301      0.0000 
      4 O5B       -11.7070  -29.0420  -18.9980 O.3       1 NAD301      0.0000 
      5 C5B       -10.6190  -29.6100  -19.7610 C.3       1 NAD301      0.0000 
      6 C4B       -10.0230  -28.5320  -20.6320 C.3       1 NAD301      0.0000 
      7 O4B        -8.9010  -29.1100  -21.3480 O.3       1 NAD301      0.0000 
      8 C3B       -10.9870  -27.9780  -21.7020 C.3       1 NAD301      0.0000 
      9 O3B       -10.8960  -26.5550  -21.8670 O.3       1 NAD301      0.0000 
     10 C2B       -10.5530  -28.7420  -22.9600 C.3       1 NAD301      0.0000 
     11 O2B       -10.8140  -28.0930  -24.2090 O.3       1 NAD301      0.0000 
     12 C1B        -9.0480  -28.8330  -22.7240 C.3       1 NAD301      0.0000 
     13 N9A        -8.4130  -29.8940  -23.4940 N.pl3     1 NAD301      0.0000 
     14 C8A        -8.8990  -31.1500  -23.7520 C.2       1 NAD301      0.0000 
     15 N7A        -8.1700  -31.8390  -24.6000 N.2       1 NAD301      0.0000 
     16 C5A        -7.1290  -30.9790  -24.9100 C.ar      1 NAD301      0.0000 
     17 C6A        -6.0280  -31.0920  -25.7820 C.ar      1 NAD301      0.0000 
     18 N6A        -5.7990  -32.1630  -26.5620 N.pl3     1 NAD301      0.0000 
     19 N1A        -5.1750  -30.0490  -25.8560 N.ar      1 NAD301      0.0000 
     20 C2A        -5.4180  -28.9640  -25.1130 C.ar      1 NAD301      0.0000 
     21 N3A        -6.4360  -28.7320  -24.2780 N.ar      1 NAD301      0.0000 
     22 C4A        -7.2590  -29.7800  -24.2250 C.ar      1 NAD301      0.0000 
     23 O3        -12.1950  -30.9540  -17.4950 O.3       1 NAD301      0.0000 
     24 PN        -11.8550  -30.8080  -15.9380 P.3       1 NAD301      0.0000 
     25 O1N       -12.9220  -31.4910  -15.1720 O.co2     1 NAD301      0.0000 
     26 O2N       -11.5400  -29.3930  -15.6550 O.co2     1 NAD301      0.0000 
     27 O5D       -10.5320  -31.7010  -15.8410 O.3       1 NAD301      0.0000 
     28 C5D        -9.2250  -31.0930  -15.9680 C.3       1 NAD301      0.0000 
     29 C4D        -8.2380  -32.1510  -15.5420 C.3       1 NAD301      0.0000 
     30 O4D        -8.5400  -32.5560  -14.1880 O.3       1 NAD301      0.0000 
     31 C3D        -8.2210  -33.4340  -16.3880 C.3       1 NAD301      0.0000 
     32 O3D        -6.8760  -33.9270  -16.4690 O.3       1 NAD301      0.0000 
     33 C2D        -9.0370  -34.3980  -15.5370 C.3       1 NAD301      0.0000 
     34 O2D        -8.6730  -35.7580  -15.7700 O.3       1 NAD301      0.0000 
     35 C1D        -8.6060  -33.9590  -14.1460 C.3       1 NAD301      0.0000 
     36 N1N        -9.5410  -34.3670  -13.0190 N.pl3     1 NAD301      0.0000 
     37 C2N       -10.7860  -33.8550  -12.9920 C.ar      1 NAD301      0.0000 
     38 C3N       -11.6560  -34.2050  -11.9770 C.ar      1 NAD301      0.0000 
     39 C7N       -13.0530  -33.6660  -11.8070 C.2       1 NAD301      0.0000 
     40 O7N       -13.7700  -34.1380  -10.9200 O.2       1 NAD301      0.0000 
     41 N7N       -13.4860  -32.7050  -12.6480 N.am      1 NAD301      0.0000 
     42 C4N       -11.2200  -35.1050  -11.0070 C.ar      1 NAD301      0.0000 
     43 C5N        -9.9360  -35.6240  -11.0690 C.ar      1 NAD301      0.0000 
     44 C6N        -9.0990  -35.2330  -12.0830 C.ar      1 NAD301      0.0000 
@<TRIPOS>BOND
     1    1    2 ar   
     2    1    3 ar   
     3    1    4 1    
     4    1   23 1    
     5    4    5 1    
     6    5    6 1    
     7    6    7 1    
     8    6    8 1    
     9    7   12 1    
    10    8    9 1    
    11    8   10 1    
    12   10   11 1    
    13   10   12 1    
    14   12   13 1    
    15   13   14 1    
    16   13   22 1    
    17   14   15 2    
    18   15   16 1    
    19   16   17 ar   
    20   16   22 ar   
    21   17   18 1    
    22   17   19 ar   
    23   19   20 ar   
    24   20   21 ar   
    25   21   22 ar   
    26   23   24 1    
    27   24   25 ar   
    28   24   26 ar   
    29   24   27 1    
    30   27   28 1    
    31   28   29 1    
    32   29   30 1    
    33   29   31 1    
    34   30   35 1    
    35   31   32 1    
    36   31   33 1    
    37   33   34 1    
    38   33   35 1    
    39   35   36 1    
    40   36   37 ar   
    41   36   44 ar   
    42   37   38 ar   
    43   38   39 1    
    44   38   42 ar   
    45   39   40 2    
    46   39   41 am   
    47   42   43 ar   
    48   43   44 ar   
@<TRIPOS>SUBSTRUCTURE
     1 NAD301      1 GROUP   
@<TRIPOS>SET
ATOM$ORANGE STATIC     ATOMS   COLORGROUP SYSTEM 
42 5 5 6 6 8 8 10 10 12 12 14 14 16 16 17 17 20 \
20 22 22 28 28 29 29 31 31 33 33 35 35 37 37 38 38 39 \
39 42 42 43 43 44 44 

