#    Name: 6gkg_2_LEU_ASP_SEP
#    Modification time : Fri May 22 19:24:28 2020

@<TRIPOS>MOLECULE
6gkg_2_LEU_ASP_SEP
   23    22     3     0     0
SMALL
NO_CHARGES


@<TRIPOS>ATOM
      1 N          -1.1950   47.9750   22.1000 N.am      1 LEU165      0.0000 
      2 CA         -1.7530   49.3170   22.2270 C.3       1 LEU165      0.0000 
      3 C          -0.6680   50.3640   22.4630 C.2       1 LEU165      0.0000 
      4 O           0.4940   50.0290   22.6920 O.2       1 LEU165      0.0000 
      5 CB         -2.7750   49.3620   23.3670 C.3       1 LEU165      0.0000 
      6 CG         -4.2440   49.5010   22.9640 C.3       1 LEU165      0.0000 
      7 CD1        -5.1320   49.5970   24.1960 C.3       1 LEU165      0.0000 
      8 CD2        -4.4440   50.7070   22.0580 C.3       1 LEU165      0.0000 
      9 N          -1.0600   51.6330   22.4050 N.am      2 ASP166      0.0000 
     10 CA         -0.1310   52.7350   22.6290 C.3       2 ASP166      0.0000 
     11 C          -0.6320   53.6530   23.7400 C.2       2 ASP166      0.0000 
     12 O          -1.8140   53.9940   23.7910 O.2       2 ASP166      0.0000 
     13 CB          0.0780   53.5330   21.3400 C.3       2 ASP166      0.0000 
     14 N           1.0060   45.9450   19.9860 N.4       3 SEP164      0.0000 
     15 CA          0.0030   46.1600   21.0230 C.3       3 SEP164      0.0000 
     16 CB          0.5580   45.7700   22.3970 C.3       3 SEP164      0.0000 
     17 OG          1.6810   46.5630   22.7460 O.3       3 SEP164      0.0000 
     18 C          -0.4750   47.6090   21.0430 C.2       3 SEP164      0.0000 
     19 O          -0.1960   48.3780   20.1220 O.2       3 SEP164      0.0000 
     20 P           2.2610   46.0860   24.1700 P.3       3 SEP164      0.0000 
     21 O1P         2.8600   44.5980   24.0290 O.co2     3 SEP164      0.0000 
     22 O2P         1.0730   46.0880   25.2570 O.co2     3 SEP164      0.0000 
     23 O3P         3.4250   47.0890   24.6450 O.co2     3 SEP164      0.0000 
@<TRIPOS>BOND
     1    1    2 1    
     2    1   18 am   
     3    2    3 1    
     4    2    5 1    
     5    3    4 2    
     6    3    9 am   
     7    5    6 1    
     8    6    7 1    
     9    6    8 1    
    10    9   10 1    
    11   10   11 1    
    12   10   13 1    
    13   11   12 2    
    14   14   15 1    
    15   15   16 1    
    16   15   18 1    
    17   16   17 1    
    18   17   20 1    
    19   18   19 2    
    20   20   21 ar   
    21   20   22 ar   
    22   20   23 ar   
@<TRIPOS>SUBSTRUCTURE
     1 LEU165      1 RESIDUE 
     2 ASP166      9 RESIDUE 
     3 SEP164     14 RESIDUE 
@<TRIPOS>SET

