#    Name: 6gkg_4_LEU_ASP_SEP
#    Modification time : Fri May 22 19:24:36 2020

@<TRIPOS>MOLECULE
6gkg_4_LEU_ASP_SEP
   20    19     3     0     0
SMALL
NO_CHARGES


@<TRIPOS>ATOM
      1 N           3.7610   55.7080   74.2260 N.am      1 LEU165      0.0000 
      2 CA          4.6580   54.5700   74.0650 C.3       1 LEU165      0.0000 
      3 C           5.6600   54.8230   72.9430 C.2       1 LEU165      0.0000 
      4 O           5.2830   55.2030   71.8340 O.2       1 LEU165      0.0000 
      5 CB          3.8620   53.2920   73.7840 C.3       1 LEU165      0.0000 
      6 N           6.9380   54.6100   73.2400 N.am      2 ASP166      0.0000 
      7 CA          8.0000   54.8300   72.2650 C.3       2 ASP166      0.0000 
      8 C           9.0450   53.7210   72.3280 C.2       2 ASP166      0.0000 
      9 O           8.8070   52.6030   71.8690 O.2       2 ASP166      0.0000 
     10 CB          8.6620   56.1910   72.4950 C.3       2 ASP166      0.0000 
     11 N           3.6200   59.0610   75.6980 N.4       3 SEP164      0.0000 
     12 CA          3.1360   57.9630   74.8680 C.3       3 SEP164      0.0000 
     13 CB          2.7750   58.4660   73.4690 C.3       3 SEP164      0.0000 
     14 OG          3.9280   58.8980   72.7680 O.3       3 SEP164      0.0000 
     15 C           4.1730   56.8490   74.7710 C.2       3 SEP164      0.0000 
     16 O           5.3210   57.0200   75.1800 O.2       3 SEP164      0.0000 
     17 P           3.5320   59.3230   71.2670 P.3       3 SEP164      0.0000 
     18 O1P         4.8710   59.5950   70.4160 O.co2     3 SEP164      0.0000 
     19 O2P         2.6890   58.1360   70.5800 O.co2     3 SEP164      0.0000 
     20 O3P         2.6410   60.6630   71.3100 O.co2     3 SEP164      0.0000 
@<TRIPOS>BOND
     1    1    2 1    
     2    1   15 am   
     3    2    3 1    
     4    2    5 1    
     5    3    4 2    
     6    3    6 am   
     7    6    7 1    
     8    7    8 1    
     9    7   10 1    
    10    8    9 2    
    11   11   12 1    
    12   12   13 1    
    13   12   15 1    
    14   13   14 1    
    15   14   17 1    
    16   15   16 2    
    17   17   18 ar   
    18   17   19 ar   
    19   17   20 ar   
@<TRIPOS>SUBSTRUCTURE
     1 LEU165      1 RESIDUE 
     2 ASP166      6 RESIDUE 
     3 SEP164     11 RESIDUE 
@<TRIPOS>SET

