#    Name: 6gkg_2_LEU_ASP_SEP_CAVITY_N1_4
#    Modification time : Fri May 22 19:24:29 2020

@<TRIPOS>MOLECULE
6gkg_2_LEU_ASP_SEP_CAVITY_N1_4
   51     0     5     0     0
SMALL
NO_CHARGES


@<TRIPOS>ATOM
      1 OG         -4.0100   51.4100   27.3700 O.3       1 SER1        0.0000 
      2 OG         -2.9000   53.2100   27.3600 O.3       1 SER1        0.0000 
      3 N          -8.1100   50.1800   25.9600 N.am      2 ALA2        0.0000 
      4 N          -7.7900   51.2200   24.1400 N.am      2 ALA2        0.0000 
      5 N          -4.7800   48.1100   22.8900 N.am      2 ALA2        0.0000 
      6 N          -3.4200   48.5200   23.3600 N.am      2 ALA2        0.0000 
      7 N          -2.0500   48.9300   23.8300 N.am      2 ALA2        0.0000 
      8 O          -1.0100   48.3000   26.1200 O.2       2 ALA2        0.0000 
      9 OD1        -6.7400   50.5900   26.4300 O.co2     3 ASP3        0.0000 
     10 OD1        -6.1700   50.2300   25.0900 O.co2     3 ASP3        0.0000 
     11 OD1        -3.9900   48.8800   24.7000 O.co2     3 ASP3        0.0000 
     12 OD1        -5.3800   51.0000   26.9000 O.co2     3 ASP3        0.0000 
     13 OD1        -4.8100   50.6400   25.5600 O.co2     3 ASP3        0.0000 
     14 OD1        -3.7600   50.0100   27.8500 O.co2     3 ASP3        0.0000 
     15 OD1        -3.1900   49.6500   26.5100 O.co2     3 ASP3        0.0000 
     16 OD1        -2.6200   49.2900   25.1700 O.co2     3 ASP3        0.0000 
     17 OD1        -0.6900   49.3400   24.3000 O.co2     3 ASP3        0.0000 
     18 CA         -7.4700   52.2600   22.3200 C.3       4 GLY6        0.0000 
     19 CA         -5.3500   48.4700   24.2300 C.3       4 GLY6        0.0000 
     20 CA         -5.6000   49.8700   23.7500 C.3       4 GLY6        0.0000 
     21 CA         -5.0300   49.5100   22.4100 C.3       4 GLY6        0.0000 
     22 CA         -4.4600   49.1500   21.0700 C.3       4 GLY6        0.0000 
     23 CA         -5.8500   51.2700   23.2700 C.3       4 GLY6        0.0000 
     24 CA         -5.2900   50.9100   21.9300 C.3       4 GLY6        0.0000 
     25 CA         -4.7200   50.5500   20.5900 C.3       4 GLY6        0.0000 
     26 CA         -6.1100   52.6700   22.7900 C.3       4 GLY6        0.0000 
     27 CA         -5.5400   52.3100   21.4500 C.3       4 GLY6        0.0000 
     28 CA         -4.9700   51.9500   20.1100 C.3       4 GLY6        0.0000 
     29 CA         -5.7900   53.7000   20.9600 C.3       4 GLY6        0.0000 
     30 CA         -2.8500   48.1600   22.0200 C.3       4 GLY6        0.0000 
     31 CA         -3.1000   49.5600   21.5400 C.3       4 GLY6        0.0000 
     32 CA         -2.5300   49.2000   20.2000 C.3       4 GLY6        0.0000 
     33 CA         -3.3500   50.9600   21.0600 C.3       4 GLY6        0.0000 
     34 CA         -3.6000   52.3500   20.5800 C.3       4 GLY6        0.0000 
     35 CA         -1.8300   50.0600   26.9800 C.3       4 GLY6        0.0000 
     36 CA         -1.2600   49.7000   25.6400 C.3       4 GLY6        0.0000 
     37 CA         -1.5100   51.0900   25.1600 C.3       4 GLY6        0.0000 
     38 CA         -0.7100   51.8600   26.9700 C.3       4 GLY6        0.0000 
     39 DU         -6.9900   51.9900   25.9500 H         5 CUB7        0.0000 
     40 DU         -6.4200   51.6300   24.6100 H         5 CUB7        0.0000 
     41 DU         -6.6700   53.0300   24.1300 H         5 CUB7        0.0000 
     42 DU         -6.3600   54.0600   22.3000 H         5 CUB7        0.0000 
     43 DU         -4.2400   50.2800   24.2200 H         5 CUB7        0.0000 
     44 DU         -3.6700   49.9200   22.8800 H         5 CUB7        0.0000 
     45 DU         -5.6300   52.4000   26.4200 H         5 CUB7        0.0000 
     46 DU         -3.9200   51.3200   22.4000 H         5 CUB7        0.0000 
     47 DU         -4.1700   52.7100   21.9200 H         5 CUB7        0.0000 
     48 DU         -3.4400   51.0500   26.0300 H         5 CUB7        0.0000 
     49 DU         -2.8700   50.6900   24.6900 H         5 CUB7        0.0000 
     50 DU         -2.3000   50.3300   23.3500 H         5 CUB7        0.0000 
     51 DU         -2.0800   51.4500   26.5000 H         5 CUB7        0.0000 
@<TRIPOS>BOND
@<TRIPOS>SUBSTRUCTURE
     1 SER1        1 GROUP   
     2 ALA2        3 GROUP   
     3 ASP3        9 GROUP   
     4 GLY6       18 GROUP   
     5 CUB7       39 GROUP   
@<TRIPOS>SET

