#    Name: 6gkg_4_LEU_ASP_SEP_CAVITY_N1_4
#    Modification time : Fri May 22 19:24:37 2020

@<TRIPOS>MOLECULE
6gkg_4_LEU_ASP_SEP_CAVITY_N1_4
   48     0     5     0     0
SMALL
NO_CHARGES


@<TRIPOS>ATOM
      1 OG          3.2000   55.9700   69.5000 O.3       1 SER1        0.0000 
      2 OG          3.7700   55.6100   68.1600 O.3       1 SER1        0.0000 
      3 OG          4.5600   56.3800   69.9700 O.3       1 SER1        0.0000 
      4 OG          5.1300   56.0200   68.6300 O.3       1 SER1        0.0000 
      5 N           2.8100   52.4900   73.6200 N.am      2 ALA2        0.0000 
      6 O           3.1300   53.5300   71.8000 O.2       2 ALA2        0.0000 
      7 O           3.4500   54.5700   69.9800 O.2       2 ALA2        0.0000 
      8 N           4.1800   52.9000   74.0900 N.am      2 ALA2        0.0000 
      9 N           3.3600   54.6600   74.9500 N.am      2 ALA2        0.0000 
     10 N           3.9300   54.3000   73.6100 N.am      2 ALA2        0.0000 
     11 N           4.5000   53.9400   72.2700 N.am      2 ALA2        0.0000 
     12 O           4.2500   55.3400   71.7900 O.2       2 ALA2        0.0000 
     13 OD1         4.2000   50.3800   71.4200 O.co2     3 ASP3        0.0000 
     14 OD1         3.9500   51.7700   70.9400 O.co2     3 ASP3        0.0000 
     15 OD1         3.7000   53.1700   70.4600 O.co2     3 ASP3        0.0000 
     16 OD1         4.2700   52.8100   69.1200 O.co2     3 ASP3        0.0000 
     17 OD1         4.0200   54.2100   68.6400 O.co2     3 ASP3        0.0000 
     18 CA          3.3200   49.7000   74.5900 C.3       4 GLY6        0.0000 
     19 CA          3.8900   49.3400   73.2500 C.3       4 GLY6        0.0000 
     20 CA          3.0700   51.1000   74.1100 C.3       4 GLY6        0.0000 
     21 CA          3.6400   50.7400   72.7600 C.3       4 GLY6        0.0000 
     22 CA          3.3800   52.1300   72.2800 C.3       4 GLY6        0.0000 
     23 CA          4.1100   50.4700   76.4000 C.3       4 GLY6        0.0000 
     24 CA          4.6800   50.1100   75.0600 C.3       4 GLY6        0.0000 
     25 CA          5.2500   49.7500   73.7200 C.3       4 GLY6        0.0000 
     26 CA          3.8600   51.8600   75.9200 C.3       4 GLY6        0.0000 
     27 CA          4.4300   51.5000   74.5800 C.3       4 GLY6        0.0000 
     28 CA          3.6100   53.2600   75.4300 C.3       4 GLY6        0.0000 
     29 CA          5.3800   54.6200   69.1100 C.3       4 GLY6        0.0000 
     30 CA          6.0500   50.5100   75.5300 C.3       4 GLY6        0.0000 
     31 CA          5.2300   52.2700   76.3900 C.3       4 GLY6        0.0000 
     32 CA          4.9800   53.6700   75.9000 C.3       4 GLY6        0.0000 
     33 CA          7.8200   51.8700   69.2000 C.3       4 GLY6        0.0000 
     34 CA          4.7200   55.0700   75.4200 C.3       4 GLY6        0.0000 
     35 CA          7.5700   53.2700   68.7200 C.3       4 GLY6        0.0000 
     36 DU          5.0000   51.1400   73.2300 H         5 CUB7        0.0000 
     37 DU          5.5700   50.7800   71.8900 H         5 CUB7        0.0000 
     38 DU          6.1400   50.4200   70.5500 H         5 CUB7        0.0000 
     39 DU          4.7500   52.5400   72.7500 H         5 CUB7        0.0000 
     40 DU          5.3200   52.1800   71.4100 H         5 CUB7        0.0000 
     41 DU          5.8900   51.8200   70.0700 H         5 CUB7        0.0000 
     42 DU          5.0700   53.5800   70.9300 H         5 CUB7        0.0000 
     43 DU          5.6400   53.2200   69.5900 H         5 CUB7        0.0000 
     44 DU          4.8100   54.9800   70.4500 H         5 CUB7        0.0000 
     45 DU          5.8000   51.9100   75.0500 H         5 CUB7        0.0000 
     46 DU          5.5400   53.3100   74.5600 H         5 CUB7        0.0000 
     47 DU          5.2900   54.7100   74.0800 H         5 CUB7        0.0000 
     48 DU          5.0400   56.1100   73.6000 H         5 CUB7        0.0000 
@<TRIPOS>BOND
@<TRIPOS>SUBSTRUCTURE
     1 SER1        1 GROUP   
     2 ALA2        5 GROUP   
     3 ASP3       13 GROUP   
     4 GLY6       18 GROUP   
     5 CUB7       36 GROUP   
@<TRIPOS>SET

