#    Name: 6gkg_3_LEU_ASP_SEP_CAVITY_N1_6
#    Modification time : Fri May 22 19:24:33 2020

@<TRIPOS>MOLECULE
6gkg_3_LEU_ASP_SEP_CAVITY_N1_6
   50     0     5     0     0
SMALL
NO_CHARGES


@<TRIPOS>ATOM
      1 OG         31.1700   74.8200   62.8800 O.3       1 SER1        0.0000 
      2 OG         31.7400   74.4600   61.5400 O.3       1 SER1        0.0000 
      3 OG         30.9200   76.2100   62.4000 O.3       1 SER1        0.0000 
      4 OG         33.1000   74.8600   62.0100 O.3       1 SER1        0.0000 
      5 OG         32.8500   76.2600   61.5300 O.3       1 SER1        0.0000 
      6 N          31.7100   76.9800   64.2100 N.am      2 ALA2        0.0000 
      7 N          32.2800   76.6200   62.8700 N.am      2 ALA2        0.0000 
      8 N          35.2200   71.0800   63.9300 N.am      2 ALA2        0.0000 
      9 N          36.5900   71.4900   64.4000 N.am      2 ALA2        0.0000 
     10 N          36.3300   72.8800   63.9100 N.am      2 ALA2        0.0000 
     11 OD1        33.6700   74.5000   60.6700 O.co2     3 ASP3        0.0000 
     12 OD1        34.7200   73.8700   62.9600 O.co2     3 ASP3        0.0000 
     13 OD1        34.4700   75.2700   62.4800 O.co2     3 ASP3        0.0000 
     14 OD1        36.0800   74.2800   63.4300 O.co2     3 ASP3        0.0000 
     15 OD1        35.8300   75.6800   62.9500 O.co2     3 ASP3        0.0000 
     16 CA         29.8000   74.4100   62.4100 C.3       4 GLY6        0.0000 
     17 CA         29.5500   75.8100   61.9300 C.3       4 GLY6        0.0000 
     18 CA         31.4200   73.4200   63.3600 C.3       4 GLY6        0.0000 
     19 CA         30.3500   76.5700   63.7400 C.3       4 GLY6        0.0000 
     20 CA         33.8600   70.6700   63.4600 C.3       4 GLY6        0.0000 
     21 CA         33.6000   72.0700   62.9700 C.3       4 GLY6        0.0000 
     22 CA         36.2700   70.4500   66.2200 C.3       4 GLY6        0.0000 
     23 CA         35.4500   72.2100   67.0800 C.3       4 GLY6        0.0000 
     24 CA         36.0200   71.8500   65.7400 C.3       4 GLY6        0.0000 
     25 CA         34.0600   74.3200   69.2800 C.3       4 GLY6        0.0000 
     26 CA         34.6300   73.9600   67.9400 C.3       4 GLY6        0.0000 
     27 CA         35.2000   73.6000   66.6000 C.3       4 GLY6        0.0000 
     28 CA         34.3800   75.3600   67.4500 C.3       4 GLY6        0.0000 
     29 CA         34.9400   75.0000   66.1100 C.3       4 GLY6        0.0000 
     30 CA         35.5100   74.6400   64.7700 C.3       4 GLY6        0.0000 
     31 CA         34.6900   76.4000   65.6300 C.3       4 GLY6        0.0000 
     32 CA         35.2600   76.0400   64.2900 C.3       4 GLY6        0.0000 
     33 CA         37.1300   73.6500   65.7300 C.3       4 GLY6        0.0000 
     34 CA         37.7000   73.2900   64.3800 C.3       4 GLY6        0.0000 
     35 CA         36.8800   75.0500   65.2400 C.3       4 GLY6        0.0000 
     36 CA         37.4500   74.6900   63.9000 C.3       4 GLY6        0.0000 
     37 CA         36.6300   76.4500   64.7600 C.3       4 GLY6        0.0000 
     38 CA         37.2000   76.0900   63.4200 C.3       4 GLY6        0.0000 
     39 DU         32.7800   73.8300   63.8300 H         5 CUB7        0.0000 
     40 DU         33.3500   73.4700   62.4900 H         5 CUB7        0.0000 
     41 DU         32.5300   75.2200   63.3500 H         5 CUB7        0.0000 
     42 DU         34.9700   72.4800   63.4400 H         5 CUB7        0.0000 
     43 DU         33.5800   74.5900   65.6400 H         5 CUB7        0.0000 
     44 DU         34.1500   74.2300   64.3000 H         5 CUB7        0.0000 
     45 DU         32.7600   76.3500   66.5000 H         5 CUB7        0.0000 
     46 DU         33.3300   75.9900   65.1600 H         5 CUB7        0.0000 
     47 DU         33.9000   75.6300   63.8200 H         5 CUB7        0.0000 
     48 DU         33.0800   77.3900   64.6800 H         5 CUB7        0.0000 
     49 DU         33.6500   77.0300   63.3400 H         5 CUB7        0.0000 
     50 DU         35.7700   73.2400   65.2600 H         5 CUB7        0.0000 
@<TRIPOS>BOND
@<TRIPOS>SUBSTRUCTURE
     1 SER1        1 GROUP   
     2 ALA2        6 GROUP   
     3 ASP3       11 GROUP   
     4 GLY6       16 GROUP   
     5 CUB7       39 GROUP   
@<TRIPOS>SET

