#    Name: 6gkg_4_LEU_ASP_SEP_CAVITY_N1_6
#    Modification time : Fri May 22 19:24:37 2020

@<TRIPOS>MOLECULE
6gkg_4_LEU_ASP_SEP_CAVITY_N1_6
   79     0     7     0     0
SMALL
NO_CHARGES


@<TRIPOS>ATOM
      1 OG          3.4700   52.0500   67.3100 O.3       1 SER1        0.0000 
      2 OG          2.9700   54.8400   66.3400 O.3       1 SER1        0.0000 
      3 OG          5.0900   51.0500   68.2600 O.3       1 SER1        0.0000 
      4 OG          4.8400   52.4500   67.7800 O.3       1 SER1        0.0000 
      5 OG          4.5900   53.8500   67.3000 O.3       1 SER1        0.0000 
      6 OG          3.2000   55.9700   69.5000 O.3       1 SER1        0.0000 
      7 OG          3.7700   55.6100   68.1600 O.3       1 SER1        0.0000 
      8 OG          4.3400   55.2500   66.8100 O.3       1 SER1        0.0000 
      9 OG          6.4600   51.4600   68.7300 O.3       1 SER1        0.0000 
     10 OG          7.0300   51.1000   67.3900 O.3       1 SER1        0.0000 
     11 OG          6.7700   52.5000   66.9100 O.3       1 SER1        0.0000 
     12 OG          4.5600   56.3800   69.9700 O.3       1 SER1        0.0000 
     13 OG          5.1300   56.0200   68.6300 O.3       1 SER1        0.0000 
     14 N           4.1400   47.9400   73.7300 N.am      2 ALA2        0.0000 
     15 N           2.8100   52.4900   73.6200 N.am      2 ALA2        0.0000 
     16 O           3.1300   53.5300   71.8000 O.2       2 ALA2        0.0000 
     17 O           3.4500   54.5700   69.9800 O.2       2 ALA2        0.0000 
     18 N           7.2800   49.7000   67.8700 N.am      2 ALA2        0.0000 
     19 N           4.1800   52.9000   74.0900 N.am      2 ALA2        0.0000 
     20 N           3.3600   54.6600   74.9500 N.am      2 ALA2        0.0000 
     21 N           3.9300   54.3000   73.6100 N.am      2 ALA2        0.0000 
     22 N           4.5000   53.9400   72.2700 N.am      2 ALA2        0.0000 
     23 O           4.2500   55.3400   71.7900 O.2       2 ALA2        0.0000 
     24 OD1         3.4100   49.6100   69.6100 O.co2     3 ASP3        0.0000 
     25 OD1         4.2000   50.3800   71.4200 O.co2     3 ASP3        0.0000 
     26 OD1         4.7700   50.0200   70.0800 O.co2     3 ASP3        0.0000 
     27 OD1         3.9500   51.7700   70.9400 O.co2     3 ASP3        0.0000 
     28 OD1         4.5200   51.4100   69.6000 O.co2     3 ASP3        0.0000 
     29 OD1         3.7000   53.1700   70.4600 O.co2     3 ASP3        0.0000 
     30 OD1         4.2700   52.8100   69.1200 O.co2     3 ASP3        0.0000 
     31 OD1         4.0200   54.2100   68.6400 O.co2     3 ASP3        0.0000 
     32 NZ          3.2200   53.4400   66.8300 N.4       4 LYS4        0.0000 
     33 CZ          5.0300   48.6200   70.5700 C.ar      5 PHE5        0.0000 
     34 CZ          5.3400   49.6600   68.7400 C.ar      5 PHE5        0.0000 
     35 CA          2.5200   48.9300   72.7800 C.3       6 GLY6        0.0000 
     36 CA          3.0900   48.5700   71.4400 C.3       6 GLY6        0.0000 
     37 CA          3.3200   49.7000   74.5900 C.3       6 GLY6        0.0000 
     38 CA          3.8900   49.3400   73.2500 C.3       6 GLY6        0.0000 
     39 CA          3.0700   51.1000   74.1100 C.3       6 GLY6        0.0000 
     40 CA          3.6400   50.7400   72.7600 C.3       6 GLY6        0.0000 
     41 CA          3.3800   52.1300   72.2800 C.3       6 GLY6        0.0000 
     42 CA          5.5000   48.3500   74.2000 C.3       6 GLY6        0.0000 
     43 CA          4.1100   50.4700   76.4000 C.3       6 GLY6        0.0000 
     44 CA          4.6800   50.1100   75.0600 C.3       6 GLY6        0.0000 
     45 CA          5.2500   49.7500   73.7200 C.3       6 GLY6        0.0000 
     46 CA          3.8600   51.8600   75.9200 C.3       6 GLY6        0.0000 
     47 CA          4.4300   51.5000   74.5800 C.3       6 GLY6        0.0000 
     48 CA          3.6100   53.2600   75.4300 C.3       6 GLY6        0.0000 
     49 CA          6.2000   52.8600   68.2500 C.3       6 GLY6        0.0000 
     50 CA          5.3800   54.6200   69.1100 C.3       6 GLY6        0.0000 
     51 CA          5.9500   54.2600   67.7700 C.3       6 GLY6        0.0000 
     52 CA          6.8700   48.7600   74.6700 C.3       6 GLY6        0.0000 
     53 CA          5.4800   50.8700   76.8700 C.3       6 GLY6        0.0000 
     54 CA          6.0500   50.5100   75.5300 C.3       6 GLY6        0.0000 
     55 CA          5.2300   52.2700   76.3900 C.3       6 GLY6        0.0000 
     56 CA          4.9800   53.6700   75.9000 C.3       6 GLY6        0.0000 
     57 CA          7.8200   51.8700   69.2000 C.3       6 GLY6        0.0000 
     58 CA          8.3900   51.5100   67.8600 C.3       6 GLY6        0.0000 
     59 CA          4.7200   55.0700   75.4200 C.3       6 GLY6        0.0000 
     60 CA          7.5700   53.2700   68.7200 C.3       6 GLY6        0.0000 
     61 CA          6.2700   51.6400   78.6800 C.3       6 GLY6        0.0000 
     62 CA          6.8400   51.2800   77.3400 C.3       6 GLY6        0.0000 
     63 DU          4.7100   47.5800   72.3900 H         7 CUB7        0.0000 
     64 DU          4.4600   48.9800   71.9100 H         7 CUB7        0.0000 
     65 DU          6.0700   47.9900   72.8600 H         7 CUB7        0.0000 
     66 DU          5.0000   51.1400   73.2300 H         7 CUB7        0.0000 
     67 DU          5.5700   50.7800   71.8900 H         7 CUB7        0.0000 
     68 DU          6.1400   50.4200   70.5500 H         7 CUB7        0.0000 
     69 DU          6.7100   50.0600   69.2100 H         7 CUB7        0.0000 
     70 DU          4.7500   52.5400   72.7500 H         7 CUB7        0.0000 
     71 DU          5.3200   52.1800   71.4100 H         7 CUB7        0.0000 
     72 DU          5.8900   51.8200   70.0700 H         7 CUB7        0.0000 
     73 DU          5.0700   53.5800   70.9300 H         7 CUB7        0.0000 
     74 DU          5.6400   53.2200   69.5900 H         7 CUB7        0.0000 
     75 DU          4.8100   54.9800   70.4500 H         7 CUB7        0.0000 
     76 DU          5.8000   51.9100   75.0500 H         7 CUB7        0.0000 
     77 DU          5.5400   53.3100   74.5600 H         7 CUB7        0.0000 
     78 DU          5.2900   54.7100   74.0800 H         7 CUB7        0.0000 
     79 DU          5.0400   56.1100   73.6000 H         7 CUB7        0.0000 
@<TRIPOS>BOND
@<TRIPOS>SUBSTRUCTURE
     1 SER1        1 GROUP   
     2 ALA2       14 GROUP   
     3 ASP3       24 GROUP   
     4 LYS4       32 GROUP   
     5 PHE5       33 GROUP   
     6 GLY6       35 GROUP   
     7 CUB7       63 GROUP   
@<TRIPOS>SET

