#    Name: 6gkg_3_LEU_ASP_SEP
#    Modification time : Fri May 22 19:24:32 2020

@<TRIPOS>MOLECULE
6gkg_3_LEU_ASP_SEP
   23    22     3     0     0
SMALL
NO_CHARGES


@<TRIPOS>ATOM
      1 N          35.9440   68.7680   64.5470 N.am      1 LEU165      0.0000 
      2 CA         35.0540   69.7120   65.2150 C.3       1 LEU165      0.0000 
      3 C          33.6310   69.1630   65.2510 C.2       1 LEU165      0.0000 
      4 O          33.4250   67.9500   65.2060 O.2       1 LEU165      0.0000 
      5 CB         35.0830   71.0710   64.5120 C.3       1 LEU165      0.0000 
      6 N          32.6540   70.0610   65.3330 N.am      2 ASP166      0.0000 
      7 CA         31.2490   69.6670   65.3380 C.3       2 ASP166      0.0000 
      8 C          30.3440   70.8480   64.9990 C.2       2 ASP166      0.0000 
      9 O          30.8200   71.9360   64.6750 O.2       2 ASP166      0.0000 
     10 CB         30.8580   69.0780   66.6960 C.3       2 ASP166      0.0000 
     11 CG         29.8270   67.9720   66.5760 C.2       2 ASP166      0.0000 
     12 OD1        28.6280   68.2880   66.4280 O.co2     2 ASP166      0.0000 
     13 OD2        30.2170   66.7860   66.6280 O.co2     2 ASP166      0.0000 
     14 N          38.2360   66.0090   65.2660 N.4       3 SEP164      0.0000 
     15 CA         37.6090   67.0090   64.4090 C.3       3 SEP164      0.0000 
     16 CB         36.7310   66.3370   63.3490 C.3       3 SEP164      0.0000 
     17 OG         36.1460   67.2990   62.4880 O.3       3 SEP164      0.0000 
     18 C          36.7800   67.9920   65.2300 C.2       3 SEP164      0.0000 
     19 O          36.9000   68.0490   66.4540 O.2       3 SEP164      0.0000 
     20 P          35.3020   66.5880   61.3130 P.3       3 SEP164      0.0000 
     21 O1P        34.9550   67.6790   60.1820 O.co2     3 SEP164      0.0000 
     22 O2P        36.1680   65.4000   60.6600 O.co2     3 SEP164      0.0000 
     23 O3P        33.9350   65.9840   61.9110 O.co2     3 SEP164      0.0000 
@<TRIPOS>BOND
     1    1    2 1    
     2    1   18 am   
     3    2    3 1    
     4    2    5 1    
     5    3    4 2    
     6    3    6 am   
     7    6    7 1    
     8    7    8 1    
     9    7   10 1    
    10    8    9 2    
    11   10   11 1    
    12   11   12 ar   
    13   11   13 ar   
    14   14   15 1    
    15   15   16 1    
    16   15   18 1    
    17   16   17 1    
    18   17   20 1    
    19   18   19 2    
    20   20   21 ar   
    21   20   22 ar   
    22   20   23 ar   
@<TRIPOS>SUBSTRUCTURE
     1 LEU165      1 RESIDUE 
     2 ASP166      6 RESIDUE 
     3 SEP164     14 RESIDUE 
@<TRIPOS>SET

