#    Name: 6gkg_3_LEU_ASP_SEP_CAVITY_N1_4
#    Modification time : Fri May 22 19:24:33 2020

@<TRIPOS>MOLECULE
6gkg_3_LEU_ASP_SEP_CAVITY_N1_4
   24     0     5     0     0
SMALL
NO_CHARGES


@<TRIPOS>ATOM
      1 OG         31.1700   74.8200   62.8800 O.3       1 SER1        0.0000 
      2 N          35.2200   71.0800   63.9300 N.am      2 ALA2        0.0000 
      3 N          36.5900   71.4900   64.4000 N.am      2 ALA2        0.0000 
      4 N          36.3300   72.8800   63.9100 N.am      2 ALA2        0.0000 
      5 OD1        34.7200   73.8700   62.9600 O.co2     3 ASP3        0.0000 
      6 OD1        36.0800   74.2800   63.4300 O.co2     3 ASP3        0.0000 
      7 CA         29.8000   74.4100   62.4100 C.3       4 GLY6        0.0000 
      8 CA         31.4200   73.4200   63.3600 C.3       4 GLY6        0.0000 
      9 CA         33.8600   70.6700   63.4600 C.3       4 GLY6        0.0000 
     10 CA         33.6000   72.0700   62.9700 C.3       4 GLY6        0.0000 
     11 CA         36.2700   70.4500   66.2200 C.3       4 GLY6        0.0000 
     12 CA         35.4500   72.2100   67.0800 C.3       4 GLY6        0.0000 
     13 CA         36.0200   71.8500   65.7400 C.3       4 GLY6        0.0000 
     14 CA         35.2000   73.6000   66.6000 C.3       4 GLY6        0.0000 
     15 CA         35.5100   74.6400   64.7700 C.3       4 GLY6        0.0000 
     16 CA         37.1300   73.6500   65.7300 C.3       4 GLY6        0.0000 
     17 CA         37.7000   73.2900   64.3800 C.3       4 GLY6        0.0000 
     18 DU         32.7800   73.8300   63.8300 H         5 CUB7        0.0000 
     19 DU         33.3500   73.4700   62.4900 H         5 CUB7        0.0000 
     20 DU         32.5300   75.2200   63.3500 H         5 CUB7        0.0000 
     21 DU         34.9700   72.4800   63.4400 H         5 CUB7        0.0000 
     22 DU         33.5800   74.5900   65.6400 H         5 CUB7        0.0000 
     23 DU         34.1500   74.2300   64.3000 H         5 CUB7        0.0000 
     24 DU         35.7700   73.2400   65.2600 H         5 CUB7        0.0000 
@<TRIPOS>BOND
@<TRIPOS>SUBSTRUCTURE
     1 SER1        1 GROUP   
     2 ALA2        2 GROUP   
     3 ASP3        5 GROUP   
     4 GLY6        7 GROUP   
     5 CUB7       18 GROUP   
@<TRIPOS>SET

