#    Name: 6sl1_1_AGS
#    Modification time : Fri May 22 19:26:04 2020

@<TRIPOS>MOLECULE
6sl1_1_AGS
   31    33     1     0     0
SMALL
NO_CHARGES


@<TRIPOS>ATOM
      1 PG        160.0270  151.2860  260.5130 P.3       1 AGS3001     0.0000 
      2 S1G       161.7890  150.4600  260.5130 S.2       1 AGS3001     0.0000 
      3 O2G       159.9650  152.4150  259.4540 O.3       1 AGS3001     0.0000 
      4 O3G       159.6930  151.9000  261.9000 O.3       1 AGS3001     0.0000 
      5 PB        158.0970  150.5520  258.8900 P.3       1 AGS3001     0.0000 
      6 O1B       158.8220  150.1560  257.6710 O.co2     1 AGS3001     0.0000 
      7 O2B       156.7350  149.8810  259.0600 O.co2     1 AGS3001     0.0000 
      8 O3B       158.9620  150.2260  260.1450 O.3       1 AGS3001     0.0000 
      9 PA        156.3260  152.5640  258.7790 P.3       1 AGS3001     0.0000 
     10 O1A       155.6240  152.4960  260.0650 O.co2     1 AGS3001     0.0000 
     11 O2A       156.4040  153.9580  258.1590 O.co2     1 AGS3001     0.0000 
     12 O3A       157.8160  152.0920  258.9110 O.3       1 AGS3001     0.0000 
     13 O5'       155.6730  151.4900  257.8240 O.3       1 AGS3001     0.0000 
     14 C5'       154.6380  151.8290  256.8780 C.3       1 AGS3001     0.0000 
     15 C4'       154.7210  150.8940  255.6950 C.3       1 AGS3001     0.0000 
     16 O4'       153.8790  151.3830  254.6370 O.3       1 AGS3001     0.0000 
     17 C3'       156.0880  150.7880  255.0460 C.3       1 AGS3001     0.0000 
     18 O3'       156.1480  149.6020  254.2660 O.3       1 AGS3001     0.0000 
     19 C2'       156.1080  152.0270  254.1580 C.3       1 AGS3001     0.0000 
     20 O2'       156.9170  151.8480  253.0080 O.3       1 AGS3001     0.0000 
     21 C1'       154.6530  152.1230  253.7130 C.3       1 AGS3001     0.0000 
     22 N9        154.1420  153.4800  253.6960 N.pl3     1 AGS3001     0.0000 
     23 C8        154.0890  154.3600  254.7400 C.2       1 AGS3001     0.0000 
     24 N7        153.5550  155.5150  254.4360 N.2       1 AGS3001     0.0000 
     25 C5        153.2250  155.3800  253.1010 C.ar      1 AGS3001     0.0000 
     26 C6        152.6210  156.2530  252.1870 C.ar      1 AGS3001     0.0000 
     27 N6        152.2320  157.4890  252.4940 N.pl3     1 AGS3001     0.0000 
     28 N1        152.4440  155.8150  250.9270 N.ar      1 AGS3001     0.0000 
     29 C2        152.8320  154.5780  250.6170 C.ar      1 AGS3001     0.0000 
     30 N3        153.4110  153.6640  251.3930 N.ar      1 AGS3001     0.0000 
     31 C4        153.5750  154.1300  252.6330 C.ar      1 AGS3001     0.0000 
@<TRIPOS>BOND
     1    1    2 2    
     2    1    3 1    
     3    1    4 1    
     4    1    8 1    
     5    5    6 ar   
     6    5    7 ar   
     7    5    8 1    
     8    5   12 1    
     9    9   10 ar   
    10    9   11 ar   
    11    9   12 1    
    12    9   13 1    
    13   13   14 1    
    14   14   15 1    
    15   15   16 1    
    16   15   17 1    
    17   16   21 1    
    18   17   18 1    
    19   17   19 1    
    20   19   20 1    
    21   19   21 1    
    22   21   22 1    
    23   22   23 1    
    24   22   31 1    
    25   23   24 2    
    26   24   25 1    
    27   25   26 ar   
    28   25   31 ar   
    29   26   27 1    
    30   26   28 ar   
    31   28   29 ar   
    32   29   30 ar   
    33   30   31 ar   
@<TRIPOS>SUBSTRUCTURE
     1 AGS3001     1 GROUP   
@<TRIPOS>SET

