#    Name: 6f8c_2_STR
#    Modification time : Fri May 22 19:32:09 2020

@<TRIPOS>MOLECULE
6f8c_2_STR
   23    27     1     0     0
SMALL
NO_CHARGES


@<TRIPOS>ATOM
      1 C1         41.3380  -87.0080  136.5870 C.3       1 STR502      0.0000 
      2 C2         42.1920  -88.2360  136.7460 C.3       1 STR502      0.0000 
      3 C3         43.5950  -87.9880  136.8810 C.2       1 STR502      0.0000 
      4 O3         44.4110  -88.8310  136.6830 O.2       1 STR502      0.0000 
      5 C4         44.1190  -86.6720  137.3000 C.2       1 STR502      0.0000 
      6 C5         43.0320  -85.5730  137.6530 C.2       1 STR502      0.0000 
      7 C6         43.4350  -84.4140  138.2460 C.3       1 STR502      0.0000 
      8 C7         42.8030  -83.1140  137.3650 C.3       1 STR502      0.0000 
      9 C8         41.6230  -83.1350  137.4170 C.3       1 STR502      0.0000 
     10 C9         41.0320  -84.4410  136.9350 C.3       1 STR502      0.0000 
     11 C10        41.7400  -85.7520  137.5510 C.3       1 STR502      0.0000 
     12 C11        39.4890  -84.5120  137.0480 C.3       1 STR502      0.0000 
     13 C12        38.9100  -83.4540  136.7820 Du        1 STR502      0.0000 
     14 C13        39.4880  -82.3110  137.1960 Du        1 STR502      0.0000 
     15 C14        41.1240  -82.3290  137.0210 Du        1 STR502      0.0000 
     16 C15        41.4870  -80.7070  137.4120 Du        1 STR502      0.0000 
     17 C16        40.2310  -79.8660  137.3020 Du        1 STR502      0.0000 
     18 C17        39.1310  -80.7830  136.5530 Du        1 STR502      0.0000 
     19 C18        39.2900  -82.1590  138.7180 Du        1 STR502      0.0000 
     20 C19        41.2290  -86.0900  138.9820 C.3       1 STR502      0.0000 
     21 C20        37.8590  -80.3270  136.7050 Du        1 STR502      0.0000 
     22 O20        37.5540  -79.3370  137.3450 Du        1 STR502      0.0000 
     23 C21        36.7810  -81.1210  135.9870 Du        1 STR502      0.0000 
@<TRIPOS>BOND
     1   10   11 1    
     2   10   12 1    
     3   11   20 1    
     4   12   13 du   
     5   13   14 du   
     6   14   15 du   
     7   14   18 du   
     8   14   19 du   
     9   15   16 du   
    10   16   17 du   
    11   17   18 du   
    12   18   21 du   
    13   21   22 du   
    14   21   23 du   
    15    1    2 1    
    16    1   11 1    
    17    2    3 1    
    18    3    4 2    
    19    3    5 1    
    20    5    6 2    
    21    6    7 1    
    22    6   11 1    
    23    7    8 1    
    24    8    9 1    
    25    8   15 du   
    26    9   10 1    
    27    9   15 du   
@<TRIPOS>SUBSTRUCTURE
     1 STR502      1 GROUP   
@<TRIPOS>SET

