#    Name: 6f8c_1_STR
#    Modification time : Fri May 22 19:32:05 2020

@<TRIPOS>MOLECULE
6f8c_1_STR
   23    27     1     0     0
SMALL
NO_CHARGES


@<TRIPOS>ATOM
      1 C1         49.7630 -108.1340  160.3310 C.3       1 STR502      0.0000 
      2 C2         48.7620 -107.0420  160.5610 C.3       1 STR502      0.0000 
      3 C3         48.7160 -106.5500  161.8900 C.2       1 STR502      0.0000 
      4 O3         47.7040 -106.1380  162.3540 O.2       1 STR502      0.0000 
      5 C4         49.9810 -106.5140  162.6840 C.2       1 STR502      0.0000 
      6 C5         51.2520 -107.2710  162.0500 C.2       1 STR502      0.0000 
      7 C6         52.5020 -107.0470  162.5860 C.3       1 STR502      0.0000 
      8 C7         53.4350 -108.4370  162.4120 C.3       1 STR502      0.0000 
      9 C8         53.5760 -108.7290  161.2760 C.3       1 STR502      0.0000 
     10 C9         52.2460 -108.8810  160.5490 C.3       1 STR502      0.0000 
     11 C10        51.2570 -107.6710  160.8070 C.3       1 STR502      0.0000 
     12 C11        52.3740 -109.2030  159.0520 C.3       1 STR502      0.0000 
     13 C12        53.2750 -109.9900  158.7860 Du        1 STR502      0.0000 
     14 C13        54.4320 -109.8590  159.4910 Du        1 STR502      0.0000 
     15 C14        54.2030 -109.5080  161.0690 Du        1 STR502      0.0000 
     16 C15        55.8130 -109.6450  161.6290 Du        1 STR502      0.0000 
     17 C16        56.4200 -110.8370  160.9170 Du        1 STR502      0.0000 
     18 C17        55.5470 -111.1200  159.5650 Du        1 STR502      0.0000 
     19 C18        55.2640 -108.6880  158.9370 Du        1 STR502      0.0000 
     20 C19        51.6150 -106.4780  159.9150 C.3       1 STR502      0.0000 
     21 C20        56.3280 -111.3120  158.4770 Du        1 STR502      0.0000 
     22 O20        57.4730 -110.9840  158.3970 Du        1 STR502      0.0000 
     23 C21        55.7210 -112.0480  157.3030 Du        1 STR502      0.0000 
@<TRIPOS>BOND
     1    1    2 1    
     2    1   11 1    
     3    2    3 1    
     4    3    4 2    
     5    3    5 1    
     6    5    6 2    
     7    6    7 1    
     8    6   11 1    
     9    7    8 1    
    10    8    9 1    
    11    8   15 du   
    12    9   10 1    
    13    9   15 du   
    14   10   11 1    
    15   10   12 1    
    16   11   20 1    
    17   12   13 du   
    18   13   14 du   
    19   14   15 du   
    20   14   18 du   
    21   14   19 du   
    22   15   16 du   
    23   16   17 du   
    24   17   18 du   
    25   18   21 du   
    26   21   22 du   
    27   21   23 du   
@<TRIPOS>SUBSTRUCTURE
     1 STR502      1 GROUP   
@<TRIPOS>SET

