#    Name: 6ph9_1_LP5
#    Modification time : Fri May 22 19:39:04 2020

@<TRIPOS>MOLECULE
6ph9_1_LP5
   48    48     1     0     0
SMALL
NO_CHARGES


@<TRIPOS>ATOM
      1 O48         2.4390   31.4230   -8.7380 O.co2     1 LP5305      0.0000 
      2 P45         3.8150   31.1310   -8.1880 P.3       1 LP5305      0.0000 
      3 O46         4.7490   30.7840   -9.3230 O.co2     1 LP5305      0.0000 
      4 O47         4.3360   32.3480   -7.4600 O.co2     1 LP5305      0.0000 
      5 O1          3.7260   29.8580   -7.1430 O.3       1 LP5305      0.0000 
      6 C1          3.4300   30.0990   -5.8250 C.3       1 LP5305      0.0000 
      7 C2          4.5820   29.5720   -4.9670 C.3       1 LP5305      0.0000 
      8 N2          5.8420   30.2380   -5.3750 N.am      1 LP5305      0.0000 
      9 C7          6.1900   31.5090   -4.7730 C.2       1 LP5305      0.0000 
     10 C8          7.4830   32.2100   -5.1750 C.3       1 LP5305      0.0000 
     11 C16         7.1300   33.5430   -5.8240 C.3       1 LP5305      0.0000 
     12 O44         6.5140   33.3280   -7.0620 O.3       1 LP5305      0.0000 
     13 C17         8.4090   34.3450   -6.0330 C.3       1 LP5305      0.0000 
     14 C18         8.0200   35.8070   -6.2270 C.3       1 LP5305      0.0000 
     15 C19         9.2770   36.6650   -6.1920 C.3       1 LP5305      0.0000 
     16 C20         9.0500   37.8260   -5.2300 C.3       1 LP5305      0.0000 
     17 C21        10.1220   38.8810   -5.4730 C.3       1 LP5305      0.0000 
     18 C22        11.4000   38.4190   -4.7840 C.3       1 LP5305      0.0000 
     19 C23        11.3220   38.8370   -3.3210 C.3       1 LP5305      0.0000 
     20 C24        12.2340   37.9490   -2.4820 C.3       1 LP5305      0.0000 
     21 C25        12.4350   38.6140   -1.1270 C.3       1 LP5305      0.0000 
     22 C26        13.2390   37.6900   -0.2200 C.3       1 LP5305      0.0000 
     23 C27        13.3490   38.3290    1.1600 C.3       1 LP5305      0.0000 
     24 O7          5.4700   32.0010   -3.9690 O.2       1 LP5305      0.0000 
     25 C3          4.7400   28.1000   -5.1180 C.3       1 LP5305      0.0000 
     26 C4          3.4780   27.3760   -4.8690 C.3       1 LP5305      0.0000 
     27 C5          2.3400   27.9430   -5.7210 C.3       1 LP5305      0.0000 
     28 O5          2.1860   29.4090   -5.4830 O.3       1 LP5305      0.0000 
     29 C6          1.0730   27.2750   -5.3210 C.3       1 LP5305      0.0000 
     30 O6          0.7430   27.6700   -4.0190 O.3       1 LP5305      0.0000 
     31 O4          3.6760   25.9920   -5.2270 O.3       1 LP5305      0.0000 
     32 O3          5.7230   27.6410   -4.1370 O.3       1 LP5305      0.0000 
     33 C28         6.8970   27.1270   -4.6930 C.2       1 LP5305      0.0000 
     34 O42         6.8900   26.6590   -5.7820 O.2       1 LP5305      0.0000 
     35 C29         8.1900   27.1800   -3.8850 C.3       1 LP5305      0.0000 
     36 C30         8.9040   25.8320   -3.9380 C.3       1 LP5305      0.0000 
     37 O43         8.1100   24.8430   -3.3460 O.3       1 LP5305      0.0000 
     38 C31        10.2260   25.9690   -3.1880 C.3       1 LP5305      0.0000 
     39 C32        11.0760   26.9870   -3.9450 C.3       1 LP5305      0.0000 
     40 C33        12.1990   27.5170   -3.0590 C.3       1 LP5305      0.0000 
     41 C34        13.4930   27.5380   -3.8670 C.3       1 LP5305      0.0000 
     42 C35        13.7230   28.9380   -4.4280 C.3       1 LP5305      0.0000 
     43 C36        14.8500   29.6150   -3.6530 C.3       1 LP5305      0.0000 
     44 C37        15.6530   30.5190   -4.5820 C.3       1 LP5305      0.0000 
     45 C38        16.6850   31.2840   -3.7550 C.3       1 LP5305      0.0000 
     46 C39        17.7020   31.9580   -4.6710 C.3       1 LP5305      0.0000 
     47 C40        18.5650   32.9100   -3.8460 C.3       1 LP5305      0.0000 
     48 C41        19.5380   33.6480   -4.7620 C.3       1 LP5305      0.0000 
@<TRIPOS>BOND
     1    1    2 ar   
     2    2    3 ar   
     3    2    4 ar   
     4    2    5 1    
     5    5    6 1    
     6    6    7 1    
     7    6   28 1    
     8    7    8 1    
     9    7   25 1    
    10    8    9 am   
    11    9   10 1    
    12    9   24 2    
    13   10   11 1    
    14   11   12 1    
    15   11   13 1    
    16   13   14 1    
    17   14   15 1    
    18   15   16 1    
    19   16   17 1    
    20   17   18 1    
    21   18   19 1    
    22   19   20 1    
    23   20   21 1    
    24   21   22 1    
    25   22   23 1    
    26   25   26 1    
    27   25   32 1    
    28   26   27 1    
    29   26   31 1    
    30   27   28 1    
    31   27   29 1    
    32   29   30 1    
    33   32   33 1    
    34   33   34 2    
    35   33   35 1    
    36   35   36 1    
    37   36   37 1    
    38   36   38 1    
    39   38   39 1    
    40   39   40 1    
    41   40   41 1    
    42   41   42 1    
    43   42   43 1    
    44   43   44 1    
    45   44   45 1    
    46   45   46 1    
    47   46   47 1    
    48   47   48 1    
@<TRIPOS>SUBSTRUCTURE
     1 LP5305      1 GROUP   
@<TRIPOS>SET

