#    Name: 6fnq_2_AVJ
#    Modification time : Fri May 22 19:35:37 2020

@<TRIPOS>MOLECULE
6fnq_2_AVJ
   29    29     1     0     0
SMALL
NO_CHARGES


@<TRIPOS>ATOM
      1 CAA        29.4510   -7.1780   18.3740           1 AVJ401      0.0000 
      2 CAB        30.4990   -6.3070   20.3260           1 AVJ401      0.0000 
      3 CAC        29.6210   -4.8590   18.6990           1 AVJ401      0.0000 
      4 OAH        28.0380   -8.4260   20.6910           1 AVJ401      0.0000 
      5 OAL        27.9320   -6.9310   22.2900           1 AVJ401      0.0000 
      6 CAM        25.2160   -5.1160   20.9300           1 AVJ401      0.0000 
      7 CAP        26.9310   -6.0850   19.1900           1 AVJ401      0.0000 
      8 NAR        24.5130   -6.8140   19.6630           1 AVJ401      0.0000 
      9 NAT        23.8890   -5.4090   21.2940           1 AVJ401      0.0000 
     10 CAX        28.0250   -7.2100   21.0690           1 AVJ401      0.0000 
     11 CAY        25.5920   -5.9960   19.9300           1 AVJ401      0.0000 
     12 CAZ        23.4730   -6.4540   20.4910           1 AVJ401      0.0000 
     13 CBC        28.1400   -6.0730   20.1030           1 AVJ401      0.0000 
     14 NBE        29.4090   -6.1160   19.3680           1 AVJ401      0.0000 
     15 HAA        28.7730   -7.0090   17.6850           1 AVJ401      0.0000 
     16 HAAA       29.2700   -8.0390   18.8070           1 AVJ401      0.0000 
     17 HAAB       30.3400   -7.2020   17.9580           1 AVJ401      0.0000 
     18 HAB        31.3480   -6.0270   19.9170           1 AVJ401      0.0000 
     19 HABA       30.5540   -7.2570   20.5750           1 AVJ401      0.0000 
     20 HABB       30.3290   -5.7670   21.1290           1 AVJ401      0.0000 
     21 HAC        29.4130   -4.1250   19.3110           1 AVJ401      0.0000 
     22 HACA       29.0390   -4.8040   17.9150           1 AVJ401      0.0000 
     23 HACB       30.5550   -4.7930   18.4170           1 AVJ401      0.0000 
     24 HAM        25.7750   -4.4140   21.3160           1 AVJ401      0.0000 
     25 HAP        26.9980   -5.3200   18.5790           1 AVJ401      0.0000 
     26 HAPA       26.9430   -6.9200   18.6730           1 AVJ401      0.0000 
     27 HNAR       24.4910   -7.4860   19.0370           1 AVJ401      0.0000 
     28 HAZ        22.5860   -6.8690   20.5070           1 AVJ401      0.0000 
     29 HBC        28.1510   -5.2260   20.5900           1 AVJ401      0.0000 
@<TRIPOS>BOND
     1    1   14 du   
     2    1   15 1    
     3    1   16 1    
     4    1   17 1    
     5    2   14 du   
     6    2   18 1    
     7    2   19 1    
     8    2   20 1    
     9    3   14 du   
    10    3   21 1    
    11    3   22 1    
    12    3   23 1    
    13    4   10 du   
    14    5   10 du   
    15    6    9 du   
    16    6   11 du   
    17    6   24 1    
    18    7   11 du   
    19    7   13 du   
    20    7   25 1    
    21    7   26 1    
    22    8   11 du   
    23    8   12 du   
    24    8   27 1    
    25    9   12 du   
    26   10   13 du   
    27   12   28 1    
    28   13   14 du   
    29   13   29 1    
@<TRIPOS>SUBSTRUCTURE
     1 AVJ401      1 GROUP   
@<TRIPOS>SET

