#    Name: 6fnq_2_AVJ_CAVITY_N1_4
#    Modification time : Fri May 22 19:35:38 2020

@<TRIPOS>MOLECULE
6fnq_2_AVJ_CAVITY_N1_4
   39     0     5     0     0
SMALL
NO_CHARGES


@<TRIPOS>ATOM
      1 OG         26.1900   -5.5800   18.4700 O.3       1 SER1        0.0000 
      2 OG         29.0200   -7.1800   21.5900 O.3       1 SER1        0.0000 
      3 OG         28.1000   -5.8500   20.2200 O.3       1 SER1        0.0000 
      4 OG         29.2100   -6.8500   20.1400 O.3       1 SER1        0.0000 
      5 OG         28.2900   -5.5200   18.7700 O.3       1 SER1        0.0000 
      6 OG         29.6000   -6.1800   17.2400 O.3       1 SER1        0.0000 
      7 OG         29.7900   -5.8500   15.7900 O.3       1 SER1        0.0000 
      8 OG         29.0800   -4.7800   20.6000 O.3       1 SER1        0.0000 
      9 OG         30.3900   -5.4500   19.0700 O.3       1 SER1        0.0000 
     10 OG         29.4700   -4.1100   17.7000 O.3       1 SER1        0.0000 
     11 OG         30.5800   -5.1100   17.6200 O.3       1 SER1        0.0000 
     12 OG         29.6600   -3.7800   16.2500 O.3       1 SER1        0.0000 
     13 OG         30.7800   -4.7800   16.1700 O.3       1 SER1        0.0000 
     14 OG         31.3700   -4.3800   19.4400 O.3       1 SER1        0.0000 
     15 OG         31.5700   -4.0500   18.0000 O.3       1 SER1        0.0000 
     16 OG         31.7600   -3.7100   16.5500 O.3       1 SER1        0.0000 
     17 OG         32.5500   -2.9800   18.3700 O.3       1 SER1        0.0000 
     18 N          30.3300   -7.8500   20.0600 N.am      2 ALA2        0.0000 
     19 N          29.4100   -6.5200   18.6900 N.am      2 ALA2        0.0000 
     20 N          30.7100   -7.1800   17.1600 N.am      2 ALA2        0.0000 
     21 N          30.2000   -5.7800   20.5200 N.am      2 ALA2        0.0000 
     22 NZ         25.0100   -6.9800   19.5500 N.4       3 LYS4        0.0000 
     23 NZ         26.0000   -5.9200   19.9200 N.4       3 LYS4        0.0000 
     24 NZ         27.1100   -6.9200   19.8400 N.4       3 LYS4        0.0000 
     25 NZ         28.2300   -7.9200   19.7600 N.4       3 LYS4        0.0000 
     26 NZ         27.3100   -6.5800   18.3900 N.4       3 LYS4        0.0000 
     27 NZ         28.4200   -7.5800   18.3100 N.4       3 LYS4        0.0000 
     28 CZ         23.9000   -5.9800   19.6300 C.ar      4 PHE5        0.0000 
     29 CZ         24.6900   -5.2500   21.4500 C.ar      4 PHE5        0.0000 
     30 CZ         25.8000   -6.2500   21.3700 C.ar      4 PHE5        0.0000 
     31 CZ         26.9200   -7.2500   21.2900 C.ar      4 PHE5        0.0000 
     32 CZ         24.8800   -4.9200   20.0100 C.ar      4 PHE5        0.0000 
     33 CZ         26.9800   -4.8500   20.3000 C.ar      4 PHE5        0.0000 
     34 CZ         29.2800   -4.4500   19.1500 C.ar      4 PHE5        0.0000 
     35 CZ         30.2600   -3.3800   19.5300 C.ar      4 PHE5        0.0000 
     36 CZ         30.4500   -3.0500   18.0800 C.ar      4 PHE5        0.0000 
     37 CZ         30.6500   -2.7100   16.6300 C.ar      4 PHE5        0.0000 
     38 CZ         31.4400   -1.9800   18.4500 C.ar      4 PHE5        0.0000 
     39 CA         30.5200   -7.5200   18.6100 C.3       5 GLY6        0.0000 
@<TRIPOS>BOND
@<TRIPOS>SUBSTRUCTURE
     1 SER1        1 GROUP   
     2 ALA2       18 GROUP   
     3 LYS4       22 GROUP   
     4 PHE5       28 GROUP   
     5 GLY6       39 GROUP   
@<TRIPOS>SET

