#    Name: 6fnq_2_AVJ_CAVITY_N1_ALL
#    Modification time : Fri May 22 19:35:38 2020

@<TRIPOS>MOLECULE
6fnq_2_AVJ_CAVITY_N1_ALL
   73     0     6     0     0
SMALL
NO_CHARGES


@<TRIPOS>ATOM
      1 OG         26.1900   -5.5800   18.4700 O.3       1 SER1        0.0000 
      2 OG         29.0200   -7.1800   21.5900 O.3       1 SER1        0.0000 
      3 OG         28.1000   -5.8500   20.2200 O.3       1 SER1        0.0000 
      4 OG         29.2100   -6.8500   20.1400 O.3       1 SER1        0.0000 
      5 OG         28.2900   -5.5200   18.7700 O.3       1 SER1        0.0000 
      6 OG         29.6000   -6.1800   17.2400 O.3       1 SER1        0.0000 
      7 OG         29.7900   -5.8500   15.7900 O.3       1 SER1        0.0000 
      8 OG         29.0800   -4.7800   20.6000 O.3       1 SER1        0.0000 
      9 OG         30.3900   -5.4500   19.0700 O.3       1 SER1        0.0000 
     10 OG         29.4700   -4.1100   17.7000 O.3       1 SER1        0.0000 
     11 OG         30.5800   -5.1100   17.6200 O.3       1 SER1        0.0000 
     12 OG         29.6600   -3.7800   16.2500 O.3       1 SER1        0.0000 
     13 OG         30.7800   -4.7800   16.1700 O.3       1 SER1        0.0000 
     14 OG         31.3700   -4.3800   19.4400 O.3       1 SER1        0.0000 
     15 OG         31.5700   -4.0500   18.0000 O.3       1 SER1        0.0000 
     16 OG         31.7600   -3.7100   16.5500 O.3       1 SER1        0.0000 
     17 OG         33.0700   -4.3800   15.0200 O.3       1 SER1        0.0000 
     18 OG         32.5500   -2.9800   18.3700 O.3       1 SER1        0.0000 
     19 OG         32.7500   -2.6500   16.9200 O.3       1 SER1        0.0000 
     20 OG         32.6800    1.8200   16.3900 O.3       1 SER1        0.0000 
     21 OG         32.8700    2.1600   14.9400 O.3       1 SER1        0.0000 
     22 N          30.3300   -7.8500   20.0600 N.am      2 ALA2        0.0000 
     23 N          29.4100   -6.5200   18.6900 N.am      2 ALA2        0.0000 
     24 N          30.7100   -7.1800   17.1600 N.am      2 ALA2        0.0000 
     25 N          30.2000   -5.7800   20.5200 N.am      2 ALA2        0.0000 
     26 NZ         25.0100   -6.9800   19.5500 N.4       3 LYS4        0.0000 
     27 NZ         26.0000   -5.9200   19.9200 N.4       3 LYS4        0.0000 
     28 NZ         27.1100   -6.9200   19.8400 N.4       3 LYS4        0.0000 
     29 NZ         28.2300   -7.9200   19.7600 N.4       3 LYS4        0.0000 
     30 NZ         27.3100   -6.5800   18.3900 N.4       3 LYS4        0.0000 
     31 NZ         28.4200   -7.5800   18.3100 N.4       3 LYS4        0.0000 
     32 CZ         23.9000   -5.9800   19.6300 C.ar      4 PHE5        0.0000 
     33 CZ         24.6900   -5.2500   21.4500 C.ar      4 PHE5        0.0000 
     34 CZ         25.8000   -6.2500   21.3700 C.ar      4 PHE5        0.0000 
     35 CZ         26.9200   -7.2500   21.2900 C.ar      4 PHE5        0.0000 
     36 CZ         24.8800   -4.9200   20.0100 C.ar      4 PHE5        0.0000 
     37 CZ         26.9800   -4.8500   20.3000 C.ar      4 PHE5        0.0000 
     38 CZ         29.9900   -5.5100   14.3400 C.ar      4 PHE5        0.0000 
     39 CZ         29.2800   -4.4500   19.1500 C.ar      4 PHE5        0.0000 
     40 CZ         29.8600   -3.4500   14.8000 C.ar      4 PHE5        0.0000 
     41 CZ         30.9700   -4.4500   14.7200 C.ar      4 PHE5        0.0000 
     42 CZ         30.0500   -3.1100   13.3500 C.ar      4 PHE5        0.0000 
     43 CZ         30.2600   -3.3800   19.5300 C.ar      4 PHE5        0.0000 
     44 CZ         30.4500   -3.0500   18.0800 C.ar      4 PHE5        0.0000 
     45 CZ         30.6500   -2.7100   16.6300 C.ar      4 PHE5        0.0000 
     46 CZ         29.7300   -1.3800   15.2600 C.ar      4 PHE5        0.0000 
     47 CZ         31.4400   -1.9800   18.4500 C.ar      4 PHE5        0.0000 
     48 CZ         31.6300   -1.6500   17.0100 C.ar      4 PHE5        0.0000 
     49 CZ         29.6000    0.6900   15.7200 C.ar      4 PHE5        0.0000 
     50 CZ         30.7100   -0.3100   15.6400 C.ar      4 PHE5        0.0000 
     51 CZ         30.3900    1.4200   17.5500 C.ar      4 PHE5        0.0000 
     52 CZ         31.5000    0.4200   17.4700 C.ar      4 PHE5        0.0000 
     53 CZ         30.5800    1.7600   16.1000 C.ar      4 PHE5        0.0000 
     54 CZ         31.1800    2.1500   19.3700 C.ar      4 PHE5        0.0000 
     55 CA         30.5200   -7.5200   18.6100 C.3       5 GLY6        0.0000 
     56 DU         31.1700   -4.1100   13.2700 H         6 CUB7        0.0000 
     57 DU         30.8400   -2.3800   15.1800 H         6 CUB7        0.0000 
     58 DU         31.9600   -3.3800   15.1000 H         6 CUB7        0.0000 
     59 DU         31.0300   -2.0400   13.7300 H         6 CUB7        0.0000 
     60 DU         31.8300   -1.3100   15.5600 H         6 CUB7        0.0000 
     61 DU         32.9400   -2.3100   15.4700 H         6 CUB7        0.0000 
     62 DU         33.5400   -1.9100   18.7500 H         6 CUB7        0.0000 
     63 DU         32.6200   -0.5800   17.3800 H         6 CUB7        0.0000 
     64 DU         33.7300   -1.5800   17.3000 H         6 CUB7        0.0000 
     65 DU         31.6900    0.7600   16.0200 H         6 CUB7        0.0000 
     66 DU         32.8100   -0.2400   15.9300 H         6 CUB7        0.0000 
     67 DU         33.9200   -1.2400   15.8500 H         6 CUB7        0.0000 
     68 DU         30.7700    2.0900   14.6500 H         6 CUB7        0.0000 
     69 DU         31.8900    1.0900   14.5700 H         6 CUB7        0.0000 
     70 DU         31.3700    2.4900   17.9200 H         6 CUB7        0.0000 
     71 DU         32.4900    1.4900   17.8400 H         6 CUB7        0.0000 
     72 DU         33.6000    0.4900   17.7600 H         6 CUB7        0.0000 
     73 DU         33.7900    0.8200   16.3100 H         6 CUB7        0.0000 
@<TRIPOS>BOND
@<TRIPOS>SUBSTRUCTURE
     1 SER1        1 GROUP   
     2 ALA2       22 GROUP   
     3 LYS4       26 GROUP   
     4 PHE5       32 GROUP   
     5 GLY6       55 GROUP   
     6 CUB7       56 GROUP   
@<TRIPOS>SET

