#    Name: 6f1a_1_EEE
#    Modification time : Fri May 22 19:27:35 2020

@<TRIPOS>MOLECULE
6f1a_1_EEE
    6     5     1     0     0
SMALL
NO_CHARGES


@<TRIPOS>ATOM
      1 C1         -2.9840    5.6870   -8.9880 C.2       1 EEE201      0.0000 
      2 C2         -2.5850    4.9540  -10.2400 C.3       1 EEE201      0.0000 
      3 O1         -2.8160    5.1220   -7.9190 O.2       1 EEE201      0.0000 
      4 O2         -3.4850    6.9490   -9.1460 O.3       1 EEE201      0.0000 
      5 C3         -2.8270    7.8560   -8.2370 C.3       1 EEE201      0.0000 
      6 C4         -3.0930    9.3220   -8.6050 C.3       1 EEE201      0.0000 
@<TRIPOS>BOND
     1    1    2 1    
     2    1    3 2    
     3    1    4 1    
     4    4    5 1    
     5    5    6 1    
@<TRIPOS>SUBSTRUCTURE
     1 EEE201      1 GROUP   
@<TRIPOS>SET

