#    Name: 6hwl_1_ADP
#    Modification time : Fri May 22 19:35:30 2020

@<TRIPOS>MOLECULE
6hwl_1_ADP
   27    29     1     0     1
SMALL
NO_CHARGES


@<TRIPOS>ATOM
      1 PB         35.2130  -20.8400  104.4210 P.3       1 ADP502      0.0000 
      2 O1B        35.7540  -20.3330  103.1050 O.co2     1 ADP502      0.0000 
      3 O2B        35.7610  -20.1250  105.6320 O.co2     1 ADP502      0.0000 
      4 O3B        35.1720  -22.3420  104.5720 O.co2     1 ADP502      0.0000 
      5 PA         33.1930  -18.9490  104.8710 P.3       1 ADP502      0.0000 
      6 O1A        34.1550  -17.9410  104.2880 O.co2     1 ADP502      0.0000 
      7 O2A        32.9170  -18.9890  106.3550 O.co2     1 ADP502      0.0000 
      8 O3A        33.6640  -20.4060  104.3730 O.3       1 ADP502      0.0000 
      9 O5'        31.8040  -18.8040  104.0730 O.3       1 ADP502      0.0000 
     10 C5'        31.8130  -18.9000  102.6500 C.3       1 ADP502      0.0000 
     11 C4'        30.7600  -17.9760  102.0550 C.3       1 ADP502      0.0000 
     12 O4'        29.5770  -17.9880  102.8550 O.3       1 ADP502      0.0000 
     13 C3'        31.2530  -16.5390  102.0120 C.3       1 ADP502      0.0000 
     14 O3'        31.6010  -16.1790  100.6720 O.3       1 ADP502      0.0000 
     15 C2'        30.0990  -15.6930  102.5100 C.3       1 ADP502      0.0000 
     16 O2'        29.6080  -14.8620  101.4550 O.3       1 ADP502      0.0000 
     17 C1'        29.0210  -16.6740  102.9440 C.3       1 ADP502      0.0000 
     18 N9         28.6300  -16.3850  104.3450 N.pl3     1 ADP502      0.0000 
     19 C8         29.3390  -16.7130  105.4420 C.2       1 ADP502      0.0000 
     20 N7         28.7080  -16.3050  106.5730 N.2       1 ADP502      0.0000 
     21 C5         27.5670  -15.6980  106.2010 C.ar      1 ADP502      0.0000 
     22 C6         26.4340  -15.0380  106.8910 C.ar      1 ADP502      0.0000 
     23 N6         26.3980  -14.9440  108.2420 N.pl3     1 ADP502      0.0000 
     24 N1         25.4400  -14.5340  106.1270 N.ar      1 ADP502      0.0000 
     25 C2         25.4650  -14.6210  104.7840 C.ar      1 ADP502      0.0000 
     26 N3         26.4590  -15.2050  104.0920 N.ar      1 ADP502      0.0000 
     27 C4         27.5200  -15.7520  104.7310 C.ar      1 ADP502      0.0000 
@<TRIPOS>BOND
     1    1    2 ar   
     2    1    3 ar   
     3    1    4 ar   
     4    1    8 1    
     5    5    6 ar   
     6    5    7 ar   
     7    5    8 1    
     8    5    9 1    
     9    9   10 1    
    10   10   11 1    
    11   11   12 1    
    12   11   13 1    
    13   12   17 1    
    14   13   14 1    
    15   13   15 1    
    16   15   16 1    
    17   15   17 1    
    18   17   18 1    
    19   18   19 1    
    20   18   27 1    
    21   19   20 2    
    22   20   21 1    
    23   21   22 ar   
    24   21   27 ar   
    25   22   23 1    
    26   22   24 ar   
    27   24   25 ar   
    28   25   26 ar   
    29   26   27 ar   
@<TRIPOS>SUBSTRUCTURE
     1 ADP502      1 GROUP   
@<TRIPOS>SET
ATOM$ORANGE STATIC     ATOMS   COLORGROUP SYSTEM 
20 10 10 11 11 13 13 15 15 17 17 19 19 21 21 22 22 25 \
25 27 27 

