#    Name: 6eg9_2_0LI
#    Modification time : Fri May 22 19:24:50 2020

@<TRIPOS>MOLECULE
6eg9_2_0LI
   39    43     1     0     0
SMALL
NO_CHARGES


@<TRIPOS>ATOM
      1 N1         -6.1580  -29.0920  -30.6180 N.pl3     1 0LI501      0.0000 
      2 N3          5.4100  -31.5840  -20.3720 N.4       1 0LI501      0.0000 
      3 C4         -3.1330  -27.4530  -27.6640 C.1       1 0LI501      0.0000 
      4 C5         -2.0160  -26.9700  -26.9110 C.ar      1 0LI501      0.0000 
      5 C6         -1.6600  -25.6410  -26.8220 C.ar      1 0LI501      0.0000 
      6 C7         -0.5470  -25.2850  -26.0590 C.ar      1 0LI501      0.0000 
      7 C8          0.2140  -26.2480  -25.3900 C.ar      1 0LI501      0.0000 
      8 C10        -1.2750  -27.9470  -26.2530 C.ar      1 0LI501      0.0000 
      9 C13         2.6350  -29.2290  -23.9570 C.ar      1 0LI501      0.0000 
     10 C15         4.6070  -29.3920  -22.5950 C.ar      1 0LI501      0.0000 
     11 C17         3.4940  -31.4290  -23.2670 C.ar      1 0LI501      0.0000 
     12 C20         5.5200  -31.4860  -21.8530 C.3       1 0LI501      0.0000 
     13 C21         6.8050  -31.6520  -19.8980 C.3       1 0LI501      0.0000 
     14 C22         6.8990  -31.7680  -18.3840 C.3       1 0LI501      0.0000 
     15 C24         4.7430  -30.4660  -19.6660 C.3       1 0LI501      0.0000 
     16 C81        -8.2890  -29.2700  -29.4790 C.2       1 0LI501      0.0000 
     17 C82        -8.9180  -29.0560  -28.2510 C.2       1 0LI501      0.0000 
     18 C83        -8.1330  -28.5510  -27.2070 C.2       1 0LI501      0.0000 
     19 N81        -6.7550  -28.2880  -27.4570 N.2       1 0LI501      0.0000 
     20 N82        -6.3130  -28.5030  -28.5320 N.pl3     1 0LI501      0.0000 
     21 C84        -6.9930  -28.9850  -29.5840 C.2       1 0LI501      0.0000 
     22 C1         -4.9590  -28.6820  -30.2250 C.2       1 0LI501      0.0000 
     23 C2         -5.0670  -28.3290  -28.9580 C.2       1 0LI501      0.0000 
     24 C3         -3.9670  -27.8250  -28.2110 C.1       1 0LI501      0.0000 
     25 C9         -0.1500  -27.5990  -25.4950 C.ar      1 0LI501      0.0000 
     26 C11        -2.4030  -24.6830  -27.4800 C.3       1 0LI501      0.0000 
     27 C12         0.5370  -28.6250  -24.8610 C.2       1 0LI501      0.0000 
     28 O1         -0.0490  -29.6770  -24.6190 O.2       1 0LI501      0.0000 
     29 N2          1.8220  -28.3570  -24.5810 N.am      1 0LI501      0.0000 
     30 C14         3.6750  -28.6180  -23.2580 C.ar      1 0LI501      0.0000 
     31 C16         4.5210  -30.7820  -22.5610 C.ar      1 0LI501      0.0000 
     32 C18         2.5570  -30.6420  -23.9630 C.ar      1 0LI501      0.0000 
     33 C19         3.3640  -32.8270  -23.2980 C.3       1 0LI501      0.0000 
     34 F1          2.5550  -32.9850  -24.3540 F         1 0LI501      0.0000 
     35 F2          4.2440  -33.4300  -23.6250 F         1 0LI501      0.0000 
     36 F3          2.7740  -33.2700  -22.5000 F         1 0LI501      0.0000 
     37 C23         4.7930  -30.6480  -18.1740 C.3       1 0LI501      0.0000 
     38 C25         6.1640  -30.7710  -16.2390 C.3       1 0LI501      0.0000 
     39 N4          6.1860  -30.6620  -17.7120 N.3       1 0LI501      0.0000 
@<TRIPOS>BOND
     1    1   21 2    
     2    1   22 1    
     3    2   12 1    
     4    2   13 1    
     5    2   15 1    
     6    3    4 1    
     7    3   24 3    
     8    4    5 ar   
     9    4    8 ar   
    10    5    6 ar   
    11    5   26 1    
    12    6    7 ar   
    13    7   25 ar   
    14    8   25 ar   
    15    9   29 1    
    16    9   30 ar   
    17    9   32 ar   
    18   10   30 ar   
    19   10   31 ar   
    20   11   31 ar   
    21   11   32 ar   
    22   11   33 1    
    23   12   31 1    
    24   13   14 1    
    25   14   39 1    
    26   15   37 1    
    27   16   17 2    
    28   16   21 1    
    29   17   18 1    
    30   18   19 2    
    31   19   20 1    
    32   20   21 1    
    33   20   23 1    
    34   22   23 2    
    35   23   24 1    
    36   25   27 1    
    37   27   28 2    
    38   27   29 am   
    39   33   34 1    
    40   33   35 1    
    41   33   36 1    
    42   37   39 1    
    43   38   39 1    
@<TRIPOS>SUBSTRUCTURE
     1 0LI501      1 GROUP   
@<TRIPOS>SET

