#    Name: 6eg9_1_0LI
#    Modification time : Fri May 22 19:24:45 2020

@<TRIPOS>MOLECULE
6eg9_1_0LI
   39    43     1     0     0
SMALL
NO_CHARGES


@<TRIPOS>ATOM
      1 N1         -0.2130  -19.7870   26.8590 N.pl3     1 0LI501      0.0000 
      2 N3        -11.6240  -24.7990   17.6640 N.4       1 0LI501      0.0000 
      3 C4         -2.8090  -18.9950   23.2230 C.1       1 0LI501      0.0000 
      4 C5         -3.8220  -18.7850   22.2480 C.ar      1 0LI501      0.0000 
      5 C6         -3.9350  -17.6620   21.4490 C.ar      1 0LI501      0.0000 
      6 C7         -4.9610  -17.6170   20.5060 C.ar      1 0LI501      0.0000 
      7 C8         -5.8430  -18.6960   20.3400 C.ar      1 0LI501      0.0000 
      8 C10        -4.6690  -19.8910   22.0760 C.ar      1 0LI501      0.0000 
      9 C13        -8.5780  -21.8600   20.3070 C.ar      1 0LI501      0.0000 
     10 C15       -10.4540  -22.6070   18.9680 C.ar      1 0LI501      0.0000 
     11 C17        -9.4370  -24.1730   20.4810 C.ar      1 0LI501      0.0000 
     12 C20       -11.3260  -24.8760   19.1130 C.3       1 0LI501      0.0000 
     13 C21       -10.4630  -24.9750   16.7700 C.3       1 0LI501      0.0000 
     14 C22       -10.8970  -24.6030   15.3700 C.3       1 0LI501      0.0000 
     15 C24       -12.6420  -25.7930   17.2800 C.3       1 0LI501      0.0000 
     16 C81         2.0690  -19.8190   25.9910 C.2       1 0LI501      0.0000 
     17 C82         2.7940  -19.6890   24.8030 C.2       1 0LI501      0.0000 
     18 C83         2.1090  -19.4520   23.6080 C.2       1 0LI501      0.0000 
     19 N81         0.7060  -19.3610   23.6970 N.2       1 0LI501      0.0000 
     20 N82         0.1840  -19.4840   24.7360 N.pl3     1 0LI501      0.0000 
     21 C84         0.7480  -19.7120   25.9270 C.2       1 0LI501      0.0000 
     22 C1         -1.3770  -19.6030   26.2430 C.2       1 0LI501      0.0000 
     23 C2         -1.1250  -19.4110   24.9680 C.2       1 0LI501      0.0000 
     24 C3         -2.1030  -19.1770   23.9600 C.1       1 0LI501      0.0000 
     25 C9         -5.7120  -19.8440   21.1520 C.ar      1 0LI501      0.0000 
     26 C11        -3.0910  -16.5660   21.5760 C.3       1 0LI501      0.0000 
     27 C12        -6.4980  -20.9870   21.0370 C.2       1 0LI501      0.0000 
     28 O1         -5.9740  -22.0680   21.3240 O.2       1 0LI501      0.0000 
     29 N2         -7.7550  -20.8140   20.5610 N.am      1 0LI501      0.0000 
     30 C14        -9.5550  -21.6150   19.3340 C.ar      1 0LI501      0.0000 
     31 C16       -10.4060  -23.8840   19.5230 C.ar      1 0LI501      0.0000 
     32 C18        -8.5270  -23.1640   20.8640 C.ar      1 0LI501      0.0000 
     33 C19        -9.3570  -25.4440   21.0550 C.3       1 0LI501      0.0000 
     34 F1         -8.4940  -25.2150   22.0670 F         1 0LI501      0.0000 
     35 F2        -10.2420  -25.8230   21.6210 F         1 0LI501      0.0000 
     36 F3         -8.8250  -26.2050   20.4580 F         1 0LI501      0.0000 
     37 C23       -13.0920  -25.5170   15.8560 C.3       1 0LI501      0.0000 
     38 C25       -12.4020  -25.0690   13.5660 C.3       1 0LI501      0.0000 
     39 N4        -11.9590  -25.5110   14.9050 N.3       1 0LI501      0.0000 
@<TRIPOS>BOND
     1    1   21 2    
     2    1   22 1    
     3    2   12 1    
     4    2   13 1    
     5    2   15 1    
     6    3    4 1    
     7    3   24 3    
     8    4    5 ar   
     9    4    8 ar   
    10    5    6 ar   
    11    5   26 1    
    12    6    7 ar   
    13    7   25 ar   
    14    8   25 ar   
    15    9   29 1    
    16    9   30 ar   
    17    9   32 ar   
    18   10   30 ar   
    19   10   31 ar   
    20   11   31 ar   
    21   11   32 ar   
    22   11   33 1    
    23   12   31 1    
    24   13   14 1    
    25   14   39 1    
    26   15   37 1    
    27   16   17 2    
    28   16   21 1    
    29   17   18 1    
    30   18   19 2    
    31   19   20 1    
    32   20   21 1    
    33   20   23 1    
    34   22   23 2    
    35   23   24 1    
    36   25   27 1    
    37   27   28 2    
    38   27   29 am   
    39   33   34 1    
    40   33   35 1    
    41   33   36 1    
    42   37   39 1    
    43   38   39 1    
@<TRIPOS>SUBSTRUCTURE
     1 0LI501      1 GROUP   
@<TRIPOS>SET

