#    Name: 6ef2_4_ADP
#    Modification time : Fri May 22 19:34:25 2020

@<TRIPOS>MOLECULE
6ef2_4_ADP
   27    29     1     0     1
SMALL
NO_CHARGES


@<TRIPOS>ATOM
      1 PB        176.8210  152.2600  162.5570 P.3       1 ADP501      0.0000 
      2 O1B       176.5290  153.2610  161.4700 O.co2     1 ADP501      0.0000 
      3 O2B       178.2890  152.0760  162.8360 O.co2     1 ADP501      0.0000 
      4 O3B       175.9410  152.4490  163.7640 O.co2     1 ADP501      0.0000 
      5 PA        177.0960  149.4710  162.4230 P.3       1 ADP501      0.0000 
      6 O1A       178.0390  149.0240  161.3390 O.co2     1 ADP501      0.0000 
      7 O2A       177.6170  149.6590  163.8160 O.co2     1 ADP501      0.0000 
      8 O3A       176.3700  150.8330  161.9620 O.3       1 ADP501      0.0000 
      9 O5'       175.8740  148.4360  162.5080 O.3       1 ADP501      0.0000 
     10 C5'       175.6710  147.7650  163.7380 C.3       1 ADP501      0.0000 
     11 C4'       174.6660  146.6190  163.6410 C.3       1 ADP501      0.0000 
     12 O4'       175.2320  145.4550  163.0380 O.3       1 ADP501      0.0000 
     13 C3'       174.1800  146.1960  165.0130 C.3       1 ADP501      0.0000 
     14 O3'       172.8360  146.6330  165.2180 O.3       1 ADP501      0.0000 
     15 C2'       174.3160  144.6860  165.0940 C.3       1 ADP501      0.0000 
     16 O2'       173.0630  144.0120  165.1490 O.3       1 ADP501      0.0000 
     17 C1'       174.9960  144.2700  163.8110 C.3       1 ADP501      0.0000 
     18 N9        176.2810  143.5890  164.0860 N.pl3     1 ADP501      0.0000 
     19 C8        177.4770  144.0440  163.6880 C.2       1 ADP501      0.0000 
     20 N7        178.4710  143.2180  164.0820 N.2       1 ADP501      0.0000 
     21 C5        177.9040  142.2060  164.7410 C.ar      1 ADP501      0.0000 
     22 C6        178.3950  140.9990  165.4150 C.ar      1 ADP501      0.0000 
     23 N6        179.7190  140.7330  165.4390 N.pl3     1 ADP501      0.0000 
     24 N1        177.4790  140.1930  165.9860 N.ar      1 ADP501      0.0000 
     25 C2        176.1650  140.4720  165.9520 C.ar      1 ADP501      0.0000 
     26 N3        175.6600  141.5620  165.3560 N.ar      1 ADP501      0.0000 
     27 C4        176.4630  142.4460  164.7390 C.ar      1 ADP501      0.0000 
@<TRIPOS>BOND
     1    1    2 ar   
     2    1    3 ar   
     3    1    4 ar   
     4    1    8 1    
     5    5    6 ar   
     6    5    7 ar   
     7    5    8 1    
     8    5    9 1    
     9    9   10 1    
    10   10   11 1    
    11   11   12 1    
    12   11   13 1    
    13   12   17 1    
    14   13   14 1    
    15   13   15 1    
    16   15   16 1    
    17   15   17 1    
    18   17   18 1    
    19   18   19 1    
    20   18   27 1    
    21   19   20 2    
    22   20   21 1    
    23   21   22 ar   
    24   21   27 ar   
    25   22   23 1    
    26   22   24 ar   
    27   24   25 ar   
    28   25   26 ar   
    29   26   27 ar   
@<TRIPOS>SUBSTRUCTURE
     1 ADP501      1 GROUP   
@<TRIPOS>SET
ATOM$ORANGE STATIC     ATOMS   COLORGROUP SYSTEM 
20 10 10 11 11 13 13 15 15 17 17 19 19 21 21 22 22 25 \
25 27 27 

