#    Name: 6ef2_2_ATP
#    Modification time : Fri May 22 19:34:12 2020

@<TRIPOS>MOLECULE
6ef2_2_ATP
   31    33     1     0     1
SMALL
NO_CHARGES


@<TRIPOS>ATOM
      1 PG        190.3250  200.2830  156.2860 P.3       1 ATP501      0.0000 
      2 O1G       190.3860  199.8840  154.8400 O.co2     1 ATP501      0.0000 
      3 O2G       189.2000  199.6650  157.0730 O.co2     1 ATP501      0.0000 
      4 O3G       191.6690  200.2960  156.9690 O.co2     1 ATP501      0.0000 
      5 PB        190.0250  202.7320  157.5130 P.3       1 ATP501      0.0000 
      6 O1B       189.4370  204.0860  157.2270 O.co2     1 ATP501      0.0000 
      7 O2B       189.5400  201.9310  158.6930 O.co2     1 ATP501      0.0000 
      8 O3B       189.8950  201.8220  156.2050 O.3       1 ATP501      0.0000 
      9 PA        192.3440  203.5490  156.2820 P.3       1 ATP501      0.0000 
     10 O1A       192.0360  202.7720  155.0320 O.co2     1 ATP501      0.0000 
     11 O2A       192.0900  205.0280  156.3280 O.co2     1 ATP501      0.0000 
     12 O3A       191.6200  202.8850  157.5460 O.3       1 ATP501      0.0000 
     13 O5'       193.8790  203.3030  156.6050 O.3       1 ATP501      0.0000 
     14 C5'       194.4440  204.1640  157.5610 C.3       1 ATP501      0.0000 
     15 C4'       195.9130  203.8690  157.7390 C.3       1 ATP501      0.0000 
     16 O4'       196.6330  204.1900  156.5530 O.3       1 ATP501      0.0000 
     17 C3'       196.4730  204.7170  158.8510 C.3       1 ATP501      0.0000 
     18 O3'       196.7660  203.8970  159.9830 O.3       1 ATP501      0.0000 
     19 C2'       197.7100  205.3740  158.2940 C.3       1 ATP501      0.0000 
     20 O2'       198.8740  204.9380  158.9810 O.3       1 ATP501      0.0000 
     21 C1'       197.8200  204.9240  156.8530 C.3       1 ATP501      0.0000 
     22 N9        197.9550  206.0300  155.8790 N.pl3     1 ATP501      0.0000 
     23 C8        197.3290  206.0950  154.6940 C.2       1 ATP501      0.0000 
     24 N7        197.6680  207.2200  154.0250 N.2       1 ATP501      0.0000 
     25 C5        198.5310  207.8840  154.7910 C.ar      1 ATP501      0.0000 
     26 C6        199.2600  209.1420  154.6900 C.ar      1 ATP501      0.0000 
     27 N6        199.1180  209.8940  153.5930 N.pl3     1 ATP501      0.0000 
     28 N1        200.0680  209.4900  155.7040 N.ar      1 ATP501      0.0000 
     29 C2        200.2010  208.7210  156.7980 C.ar      1 ATP501      0.0000 
     30 N3        199.5540  207.5590  156.9550 N.ar      1 ATP501      0.0000 
     31 C4        198.7310  207.0960  155.9970 C.ar      1 ATP501      0.0000 
@<TRIPOS>BOND
     1    1    2 ar   
     2    1    3 ar   
     3    1    4 ar   
     4    1    8 1    
     5    5    6 ar   
     6    5    7 ar   
     7    5    8 1    
     8    5   12 1    
     9    9   10 ar   
    10    9   11 ar   
    11    9   12 1    
    12    9   13 1    
    13   13   14 1    
    14   14   15 1    
    15   15   16 1    
    16   15   17 1    
    17   16   21 1    
    18   17   18 1    
    19   17   19 1    
    20   19   20 1    
    21   19   21 1    
    22   21   22 1    
    23   22   23 1    
    24   22   31 1    
    25   23   24 2    
    26   24   25 1    
    27   25   26 ar   
    28   25   31 ar   
    29   26   27 1    
    30   26   28 ar   
    31   28   29 ar   
    32   29   30 ar   
    33   30   31 ar   
@<TRIPOS>SUBSTRUCTURE
     1 ATP501      1 GROUP   
@<TRIPOS>SET
ATOM$ORANGE STATIC     ATOMS   COLORGROUP SYSTEM 
20 14 14 15 15 17 17 19 19 21 21 23 23 25 25 26 26 29 \
29 31 31 

