#    Name: 6ef2_3_ATP
#    Modification time : Fri May 22 19:34:18 2020

@<TRIPOS>MOLECULE
6ef2_3_ATP
   31    33     1     0     1
SMALL
NO_CHARGES


@<TRIPOS>ATOM
      1 PG        194.6310  174.9190  165.9260 P.3       1 ATP501      0.0000 
      2 O1G       194.4300  175.2280  164.4620 O.co2     1 ATP501      0.0000 
      3 O2G       195.1800  176.0640  166.7400 O.co2     1 ATP501      0.0000 
      4 O3G       193.4980  174.1760  166.5930 O.co2     1 ATP501      0.0000 
      5 PB        197.1210  174.1190  166.8060 P.3       1 ATP501      0.0000 
      6 O1B       197.7730  175.3850  166.3390 O.co2     1 ATP501      0.0000 
      7 O2B       196.7320  173.9830  168.2500 O.co2     1 ATP501      0.0000 
      8 O3B       195.8400  173.8610  165.8790 O.3       1 ATP501      0.0000 
      9 PA        199.5680  173.0440  167.1910 P.3       1 ATP501      0.0000 
     10 O1A       200.6510  173.1450  166.1570 O.co2     1 ATP501      0.0000 
     11 O2A       199.4680  174.0920  168.2640 O.co2     1 ATP501      0.0000 
     12 O3A       198.1400  172.9350  166.4850 O.3       1 ATP501      0.0000 
     13 O5'       199.6670  171.6360  167.9260 O.3       1 ATP501      0.0000 
     14 C5'       200.2470  171.6440  169.2100 C.3       1 ATP501      0.0000 
     15 C4'       200.5350  170.2300  169.7020 C.3       1 ATP501      0.0000 
     16 O4'       201.6710  169.7160  169.0090 O.3       1 ATP501      0.0000 
     17 C3'       200.8870  170.1760  171.1740 C.3       1 ATP501      0.0000 
     18 O3'       200.4380  168.9460  171.7480 O.3       1 ATP501      0.0000 
     19 C2'       202.3910  170.2560  171.1750 C.3       1 ATP501      0.0000 
     20 O2'       202.9860  169.6120  172.2980 O.3       1 ATP501      0.0000 
     21 C1'       202.7870  169.5720  169.8860 C.3       1 ATP501      0.0000 
     22 N9        203.9540  170.1960  169.2400 N.pl3     1 ATP501      0.0000 
     23 C8        204.1240  170.2190  167.9190 C.2       1 ATP501      0.0000 
     24 N7        205.2680  170.8450  167.5800 N.2       1 ATP501      0.0000 
     25 C5        205.8490  171.2220  168.7150 C.ar      1 ATP501      0.0000 
     26 C6        207.0770  171.9270  169.0510 C.ar      1 ATP501      0.0000 
     27 N6        207.8820  172.3250  168.0590 N.pl3     1 ATP501      0.0000 
     28 N1        207.3470  172.1360  170.3460 N.ar      1 ATP501      0.0000 
     29 C2        206.5120  171.7150  171.3100 C.ar      1 ATP501      0.0000 
     30 N3        205.3690  171.0630  171.0650 N.ar      1 ATP501      0.0000 
     31 C4        204.9940  170.7880  169.8080 C.ar      1 ATP501      0.0000 
@<TRIPOS>BOND
     1    1    2 ar   
     2    1    3 ar   
     3    1    4 ar   
     4    1    8 1    
     5    5    6 ar   
     6    5    7 ar   
     7    5    8 1    
     8    5   12 1    
     9    9   10 ar   
    10    9   11 ar   
    11    9   12 1    
    12    9   13 1    
    13   13   14 1    
    14   14   15 1    
    15   15   16 1    
    16   15   17 1    
    17   16   21 1    
    18   17   18 1    
    19   17   19 1    
    20   19   20 1    
    21   19   21 1    
    22   21   22 1    
    23   22   23 1    
    24   22   31 1    
    25   23   24 2    
    26   24   25 1    
    27   25   26 ar   
    28   25   31 ar   
    29   26   27 1    
    30   26   28 ar   
    31   28   29 ar   
    32   29   30 ar   
    33   30   31 ar   
@<TRIPOS>SUBSTRUCTURE
     1 ATP501      1 GROUP   
@<TRIPOS>SET
ATOM$ORANGE STATIC     ATOMS   COLORGROUP SYSTEM 
20 14 14 15 15 17 17 19 19 21 21 23 23 25 25 26 26 29 \
29 31 31 

