#    Name: 6ef2_1_ATP
#    Modification time : Fri May 22 19:34:05 2020

@<TRIPOS>MOLECULE
6ef2_1_ATP
   31    33     1     0     1
SMALL
NO_CHARGES


@<TRIPOS>ATOM
      1 PG        163.1680  207.5420  148.5530 P.3       1 ATP501      0.0000 
      2 O1G       162.6360  206.3510  147.8050 O.co2     1 ATP501      0.0000 
      3 O2G       164.4370  207.3020  149.3310 O.co2     1 ATP501      0.0000 
      4 O3G       162.1150  208.3540  149.2660 O.co2     1 ATP501      0.0000 
      5 PB        162.5610  208.6880  146.2010 P.3       1 ATP501      0.0000 
      6 O1B       162.5730  207.4950  145.2940 O.co2     1 ATP501      0.0000 
      7 O2B       161.2910  209.0900  146.8790 O.co2     1 ATP501      0.0000 
      8 O3B       163.6430  208.4700  147.3470 O.3       1 ATP501      0.0000 
      9 PA        162.6080  211.3780  145.9000 P.3       1 ATP501      0.0000 
     10 O1A       161.3760  211.7320  145.1130 O.co2     1 ATP501      0.0000 
     11 O2A       162.5610  211.3650  147.4020 O.co2     1 ATP501      0.0000 
     12 O3A       163.1570  209.9530  145.4380 O.3       1 ATP501      0.0000 
     13 O5'       163.7890  212.3650  145.4790 O.3       1 ATP501      0.0000 
     14 C5'       163.7500  213.6530  146.0560 C.3       1 ATP501      0.0000 
     15 C4'       164.8130  214.5430  145.4360 C.3       1 ATP501      0.0000 
     16 O4'       164.7640  214.4530  144.0170 O.3       1 ATP501      0.0000 
     17 C3'       164.6130  215.9950  145.8020 C.3       1 ATP501      0.0000 
     18 O3'       165.7170  216.5060  146.5390 O.3       1 ATP501      0.0000 
     19 C2'       164.4880  216.7320  144.5000 C.3       1 ATP501      0.0000 
     20 O2'       165.3800  217.8350  144.4530 O.3       1 ATP501      0.0000 
     21 C1'       164.8430  215.7430  143.4210 C.3       1 ATP501      0.0000 
     22 N9        163.9160  215.8170  142.2750 N.pl3     1 ATP501      0.0000 
     23 C8        163.3680  214.7630  141.6580 C.2       1 ATP501      0.0000 
     24 N7        162.5650  215.1530  140.6400 N.2       1 ATP501      0.0000 
     25 C5        162.6170  216.4810  140.5940 C.ar      1 ATP501      0.0000 
     26 C6        162.0150  217.5280  139.7680 C.ar      1 ATP501      0.0000 
     27 N6        161.1870  217.2330  138.7560 N.pl3     1 ATP501      0.0000 
     28 N1        162.3230  218.8000  140.0510 N.ar      1 ATP501      0.0000 
     29 C2        163.1500  219.1230  141.0540 C.ar      1 ATP501      0.0000 
     30 N3        163.7360  218.2230  141.8500 N.ar      1 ATP501      0.0000 
     31 C4        163.5120  216.9140  141.6620 C.ar      1 ATP501      0.0000 
@<TRIPOS>BOND
     1    1    2 ar   
     2    1    3 ar   
     3    1    4 ar   
     4    1    8 1    
     5    5    6 ar   
     6    5    7 ar   
     7    5    8 1    
     8    5   12 1    
     9    9   10 ar   
    10    9   11 ar   
    11    9   12 1    
    12    9   13 1    
    13   13   14 1    
    14   14   15 1    
    15   15   16 1    
    16   15   17 1    
    17   16   21 1    
    18   17   18 1    
    19   17   19 1    
    20   19   20 1    
    21   19   21 1    
    22   21   22 1    
    23   22   23 1    
    24   22   31 1    
    25   23   24 2    
    26   24   25 1    
    27   25   26 ar   
    28   25   31 ar   
    29   26   27 1    
    30   26   28 ar   
    31   28   29 ar   
    32   29   30 ar   
    33   30   31 ar   
@<TRIPOS>SUBSTRUCTURE
     1 ATP501      1 GROUP   
@<TRIPOS>SET
ATOM$ORANGE STATIC     ATOMS   COLORGROUP SYSTEM 
20 14 14 15 15 17 17 19 19 21 21 23 23 25 25 26 26 29 \
29 31 31 

