#    Name: 6ef2_4_ADP_CAVITY_N1_4
#    Modification time : Fri May 22 19:34:26 2020

@<TRIPOS>MOLECULE
6ef2_4_ADP_CAVITY_N1_4
   73     0     6     0     0
SMALL
NO_CHARGES


@<TRIPOS>ATOM
      1 OG        172.9500  154.2200  160.9000 O.3       1 SER1        0.0000 
      2 OG        172.5000  153.2100  162.7100 O.3       1 SER1        0.0000 
      3 OG        174.4500  153.9600  162.3800 O.3       1 SER1        0.0000 
      4 OG        173.8700  155.1400  161.6400 O.3       1 SER1        0.0000 
      5 OG        173.4200  154.1300  163.4500 O.3       1 SER1        0.0000 
      6 OG        174.7900  156.0600  162.3800 O.3       1 SER1        0.0000 
      7 O         174.9000  148.5200  159.4700 O.2       2 ALA2        0.0000 
      8 O         173.8600  148.6900  160.5500 O.2       2 ALA2        0.0000 
      9 O         175.3700  148.4400  162.0200 O.2       2 ALA2        0.0000 
     10 O         174.7900  149.6100  161.2900 O.2       2 ALA2        0.0000 
     11 N         171.7000  150.1100  164.5200 N.am      2 ALA2        0.0000 
     12 N         171.2500  149.1000  166.3300 N.am      2 ALA2        0.0000 
     13 N         176.0400  153.7200  157.6700 N.am      2 ALA2        0.0000 
     14 O         177.3200  149.1900  161.6900 O.2       2 ALA2        0.0000 
     15 O         176.7400  150.3600  160.9500 O.2       2 ALA2        0.0000 
     16 O         175.5900  152.7100  159.4800 O.2       2 ALA2        0.0000 
     17 N         175.0100  153.8800  158.7500 N.am      2 ALA2        0.0000 
     18 N         172.0400  152.2000  164.5300 N.am      2 ALA2        0.0000 
     19 N         172.1700  150.0200  167.0700 N.am      2 ALA2        0.0000 
     20 O         177.6700  151.2800  161.6900 O.2       2 ALA2        0.0000 
     21 O         176.0600  152.6200  162.0300 O.2       2 ALA2        0.0000 
     22 O         175.4800  153.8000  161.3000 O.2       2 ALA2        0.0000 
     23 N         174.9000  154.9700  160.5700 N.am      2 ALA2        0.0000 
     24 O         178.0100  153.3800  161.7000 O.2       2 ALA2        0.0000 
     25 N         175.8300  155.8900  161.3100 N.am      2 ALA2        0.0000 
     26 OD1       171.8300  147.9300  167.0700 O.co2     3 ASP3        0.0000 
     27 OD1       170.7900  148.1000  168.1400 O.co2     3 ASP3        0.0000 
     28 OD1       172.7500  148.8500  167.8100 O.co2     3 ASP3        0.0000 
     29 NZ        170.3200  148.1800  165.5900 N.4       4 LYS4        0.0000 
     30 NZ        175.0300  152.7900  163.1100 N.4       4 LYS4        0.0000 
     31 NZ        174.0000  152.9600  164.1900 N.4       4 LYS4        0.0000 
     32 NZ        172.9700  153.1200  165.2700 N.4       4 LYS4        0.0000 
     33 NZ        176.9800  153.5400  162.7800 N.4       4 LYS4        0.0000 
     34 NZ        176.4000  154.7200  162.0400 N.4       4 LYS4        0.0000 
     35 NZ        175.9500  153.7100  163.8500 N.4       4 LYS4        0.0000 
     36 NZ        175.3700  154.8800  163.1200 N.4       4 LYS4        0.0000 
     37 CA        174.3200  149.7000  158.7300 C.3       5 GLY6        0.0000 
     38 CA        175.2400  150.6200  159.4700 C.3       5 GLY6        0.0000 
     39 CA        174.6600  151.7900  158.7400 C.3       5 GLY6        0.0000 
     40 CA        173.8900  147.6000  164.9100 C.3       5 GLY6        0.0000 
     41 CA        173.3100  148.7700  164.1800 C.3       5 GLY6        0.0000 
     42 CA        176.1600  151.5400  160.2200 C.3       5 GLY6        0.0000 
     43 CA        176.2900  149.3600  162.7600 C.3       5 GLY6        0.0000 
     44 CA        175.2600  149.5200  163.8400 C.3       5 GLY6        0.0000 
     45 CA        174.6800  150.7000  163.1100 C.3       5 GLY6        0.0000 
     46 CA        173.6500  150.8600  164.1800 C.3       5 GLY6        0.0000 
     47 CA        173.7800  148.6900  166.7300 C.3       5 GLY6        0.0000 
     48 CA        173.2000  149.8600  165.9900 C.3       5 GLY6        0.0000 
     49 CA        172.6200  151.0300  165.2600 C.3       5 GLY6        0.0000 
     50 CA        178.2500  150.1100  162.4300 C.3       5 GLY6        0.0000 
     51 CA        177.2200  150.2800  163.5000 C.3       5 GLY6        0.0000 
     52 CA        176.6400  151.4500  162.7700 C.3       5 GLY6        0.0000 
     53 CA        174.3200  156.1400  159.8300 C.3       5 GLY6        0.0000 
     54 CA        175.6100  151.6200  163.8500 C.3       5 GLY6        0.0000 
     55 CA        173.5500  151.9500  166.0000 C.3       5 GLY6        0.0000 
     56 CA        178.5900  152.2000  162.4300 C.3       5 GLY6        0.0000 
     57 CA        177.5600  152.3700  163.5100 C.3       5 GLY6        0.0000 
     58 DU        173.2900  149.8600  159.8100 H         6 CUB7        0.0000 
     59 DU        173.4100  147.6800  162.3600 H         6 CUB7        0.0000 
     60 DU        171.3500  148.0200  164.5100 H         6 CUB7        0.0000 
     61 DU        174.2100  150.7800  160.5500 H         6 CUB7        0.0000 
     62 DU        173.6300  151.9600  159.8200 H         6 CUB7        0.0000 
     63 DU        174.3400  148.6000  163.1000 H         6 CUB7        0.0000 
     64 DU        173.7600  149.7800  162.3600 H         6 CUB7        0.0000 
     65 DU        172.7300  149.9400  163.4400 H         6 CUB7        0.0000 
     66 DU        172.2800  148.9400  165.2500 H         6 CUB7        0.0000 
     67 DU        175.7100  150.5300  162.0300 H         6 CUB7        0.0000 
     68 DU        175.1300  151.7000  161.2900 H         6 CUB7        0.0000 
     69 DU        174.5600  152.8800  160.5600 H         6 CUB7        0.0000 
     70 DU        173.9800  154.0500  159.8200 H         6 CUB7        0.0000 
     71 DU        174.1000  151.8700  162.3700 H         6 CUB7        0.0000 
     72 DU        173.5300  153.0400  161.6400 H         6 CUB7        0.0000 
     73 DU        173.0700  152.0400  163.4500 H         6 CUB7        0.0000 
@<TRIPOS>BOND
@<TRIPOS>SUBSTRUCTURE
     1 SER1        1 GROUP   
     2 ALA2        7 GROUP   
     3 ASP3       26 GROUP   
     4 LYS4       29 GROUP   
     5 GLY6       37 GROUP   
     6 CUB7       58 GROUP   
@<TRIPOS>SET

