#    Name: 6ef2_6_ATP
#    Modification time : Fri May 22 19:34:40 2020

@<TRIPOS>MOLECULE
6ef2_6_ATP
   31    33     1     0     1
SMALL
NO_CHARGES


@<TRIPOS>ATOM
      1 PG        141.4800  187.0700  148.8720 P.3       1 ATP501      0.0000 
      2 O1G       142.7320  186.3580  148.4330 O.co2     1 ATP501      0.0000 
      3 O2G       140.6440  186.3300  149.8820 O.co2     1 ATP501      0.0000 
      4 O3G       141.6400  188.5400  149.1550 O.co2     1 ATP501      0.0000 
      5 PB        139.2170  187.9160  147.6390 P.3       1 ATP501      0.0000 
      6 O1B       139.5950  189.3650  147.4860 O.co2     1 ATP501      0.0000 
      7 O2B       138.4170  187.4480  148.8260 O.co2     1 ATP501      0.0000 
      8 O3B       140.5540  187.0460  147.5710 O.3       1 ATP501      0.0000 
      9 PA        136.9700  188.0210  146.1930 P.3       1 ATP501      0.0000 
     10 O1A       135.9880  186.8800  146.2210 O.co2     1 ATP501      0.0000 
     11 O2A       136.9010  189.0900  147.2500 O.co2     1 ATP501      0.0000 
     12 O3A       138.4540  187.4550  146.3120 O.3       1 ATP501      0.0000 
     13 O5'       136.9570  188.7430  144.7640 O.3       1 ATP501      0.0000 
     14 C5'       135.9000  189.6560  144.5310 C.3       1 ATP501      0.0000 
     15 C4'       136.2170  190.6530  143.4340 C.3       1 ATP501      0.0000 
     16 O4'       136.3260  189.9970  142.1730 O.3       1 ATP501      0.0000 
     17 C3'       135.0870  191.6430  143.3030 C.3       1 ATP501      0.0000 
     18 O3'       135.5710  192.9140  142.8720 O.3       1 ATP501      0.0000 
     19 C2'       134.2110  191.0100  142.2570 C.3       1 ATP501      0.0000 
     20 O2'       133.4900  192.0080  141.5450 O.3       1 ATP501      0.0000 
     21 C1'       135.1730  190.2520  141.3700 C.3       1 ATP501      0.0000 
     22 N9        134.6190  188.9550  140.9360 N.pl3     1 ATP501      0.0000 
     23 C8        135.3060  187.8040  140.9440 C.2       1 ATP501      0.0000 
     24 N7        134.5510  186.7810  140.4880 N.2       1 ATP501      0.0000 
     25 C5        133.3550  187.2880  140.1770 C.ar      1 ATP501      0.0000 
     26 C6        132.1000  186.7410  139.6530 C.ar      1 ATP501      0.0000 
     27 N6        132.0180  185.4310  139.3660 N.pl3     1 ATP501      0.0000 
     28 N1        131.0760  187.5890  139.4590 N.ar      1 ATP501      0.0000 
     29 C2        131.1800  188.8970  139.7490 C.ar      1 ATP501      0.0000 
     30 N3        132.2970  189.4600  140.2370 N.ar      1 ATP501      0.0000 
     31 C4        133.4000  188.7200  140.4610 C.ar      1 ATP501      0.0000 
@<TRIPOS>BOND
     1    1    2 ar   
     2    1    3 ar   
     3    1    4 ar   
     4    1    8 1    
     5    5    6 ar   
     6    5    7 ar   
     7    5    8 1    
     8    5   12 1    
     9    9   10 ar   
    10    9   11 ar   
    11    9   12 1    
    12    9   13 1    
    13   13   14 1    
    14   14   15 1    
    15   15   16 1    
    16   15   17 1    
    17   16   21 1    
    18   17   18 1    
    19   17   19 1    
    20   19   20 1    
    21   19   21 1    
    22   21   22 1    
    23   22   23 1    
    24   22   31 1    
    25   23   24 2    
    26   24   25 1    
    27   25   26 ar   
    28   25   31 ar   
    29   26   27 1    
    30   26   28 ar   
    31   28   29 ar   
    32   29   30 ar   
    33   30   31 ar   
@<TRIPOS>SUBSTRUCTURE
     1 ATP501      1 GROUP   
@<TRIPOS>SET
ATOM$ORANGE STATIC     ATOMS   COLORGROUP SYSTEM 
20 14 14 15 15 17 17 19 19 21 21 23 23 25 25 26 26 29 \
29 31 31 

