#    Name: 6ef2_5_ADP
#    Modification time : Fri May 22 19:34:33 2020

@<TRIPOS>MOLECULE
6ef2_5_ADP
   27    29     1     0     1
SMALL
NO_CHARGES


@<TRIPOS>ATOM
      1 PB        145.3850  156.5700  151.4260 P.3       1 ADP501      0.0000 
      2 O1B       145.6700  155.4550  150.4590 O.co2     1 ADP501      0.0000 
      3 O2B       145.9940  157.9040  151.0650 O.co2     1 ADP501      0.0000 
      4 O3B       145.5150  156.1830  152.8800 O.co2     1 ADP501      0.0000 
      5 PA        142.8970  155.4630  151.2520 P.3       1 ADP501      0.0000 
      6 O1A       142.9950  154.7580  149.9230 O.co2     1 ADP501      0.0000 
      7 O2A       143.2720  154.7500  152.5220 O.co2     1 ADP501      0.0000 
      8 O3A       143.8110  156.7770  151.2030 O.3       1 ADP501      0.0000 
      9 O5'       141.4210  156.0680  151.4160 O.3       1 ADP501      0.0000 
     10 C5'       140.5780  155.4840  152.3930 C.3       1 ADP501      0.0000 
     11 C4'       139.1120  155.6860  152.0540 C.3       1 ADP501      0.0000 
     12 O4'       138.7800  154.9590  150.8720 O.3       1 ADP501      0.0000 
     13 C3'       138.2230  155.1850  153.1790 C.3       1 ADP501      0.0000 
     14 O3'       137.5040  156.2510  153.7970 O.3       1 ADP501      0.0000 
     15 C2'       137.2650  154.2030  152.5480 C.3       1 ADP501      0.0000 
     16 O2'       135.9320  154.7160  152.5350 O.3       1 ADP501      0.0000 
     17 C1'       137.7590  153.9920  151.1240 C.3       1 ADP501      0.0000 
     18 N9        138.3500  152.6380  150.9770 N.pl3     1 ADP501      0.0000 
     19 C8        139.6450  152.3700  150.7170 C.2       1 ADP501      0.0000 
     20 N7        139.8530  151.0360  150.6330 N.2       1 ADP501      0.0000 
     21 C5        138.6800  150.4330  150.8390 C.ar      1 ADP501      0.0000 
     22 C6        138.2060  149.0420  150.8840 C.ar      1 ADP501      0.0000 
     23 N6        139.0660  148.0160  150.6940 N.pl3     1 ADP501      0.0000 
     24 N1        136.8960  148.8410  151.1240 N.ar      1 ADP501      0.0000 
     25 C2        136.0370  149.8570  151.3110 C.ar      1 ADP501      0.0000 
     26 N3        136.4080  151.1450  151.2890 N.ar      1 ADP501      0.0000 
     27 C4        137.6900  151.4870  151.0510 C.ar      1 ADP501      0.0000 
@<TRIPOS>BOND
     1    1    2 ar   
     2    1    3 ar   
     3    1    4 ar   
     4    1    8 1    
     5    5    6 ar   
     6    5    7 ar   
     7    5    8 1    
     8    5    9 1    
     9    9   10 1    
    10   10   11 1    
    11   11   12 1    
    12   11   13 1    
    13   12   17 1    
    14   13   14 1    
    15   13   15 1    
    16   15   16 1    
    17   15   17 1    
    18   17   18 1    
    19   18   19 1    
    20   18   27 1    
    21   19   20 2    
    22   20   21 1    
    23   21   22 ar   
    24   21   27 ar   
    25   22   23 1    
    26   22   24 ar   
    27   24   25 ar   
    28   25   26 ar   
    29   26   27 ar   
@<TRIPOS>SUBSTRUCTURE
     1 ADP501      1 GROUP   
@<TRIPOS>SET
ATOM$ORANGE STATIC     ATOMS   COLORGROUP SYSTEM 
20 10 10 11 11 13 13 15 15 17 17 19 19 21 21 22 22 25 \
25 27 27 

