#    Name: 6rzq_2_ANP_CAVITY_N1_6
#    Modification time : Fri May 22 19:24:43 2020

@<TRIPOS>MOLECULE
6rzq_2_ANP_CAVITY_N1_6
   45     0     5     0     0
SMALL
NO_CHARGES


@<TRIPOS>ATOM
      1 O          48.2000   78.9300   17.6000 O.2       1 ALA2        0.0000 
      2 O          49.3000   79.6700   16.8900 O.2       1 ALA2        0.0000 
      3 O          54.2600   79.4100   14.7600 O.2       1 ALA2        0.0000 
      4 O          49.0400   81.3100   18.2200 O.2       1 ALA2        0.0000 
      5 N          50.2200   82.1000   20.8600 N.am      1 ALA2        0.0000 
      6 N          50.4700   84.0800   20.1500 N.am      1 ALA2        0.0000 
      7 N          49.9700   83.7400   22.1800 N.am      1 ALA2        0.0000 
      8 OD1        54.8500   76.1800   15.4700 O.co2     2 ASP3        0.0000 
      9 OD1        55.9400   76.9200   14.7600 O.co2     2 ASP3        0.0000 
     10 OD1        50.9800   80.8100   17.5000 O.co2     2 ASP3        0.0000 
     11 OD1        52.9100   80.3100   16.7900 O.co2     2 ASP3        0.0000 
     12 OD1        50.4700   80.4600   19.5400 O.co2     2 ASP3        0.0000 
     13 OD1        51.3100   79.2200   19.5300 O.co2     2 ASP3        0.0000 
     14 OD1        50.7300   82.4500   18.8300 O.co2     2 ASP3        0.0000 
     15 OD1        51.5700   81.2000   18.8300 O.co2     2 ASP3        0.0000 
     16 OD1        49.1300   81.3600   21.5700 O.co2     2 ASP3        0.0000 
     17 OD1        49.9700   80.1200   21.5700 O.co2     2 ASP3        0.0000 
     18 OD1        51.0600   80.8600   20.8600 O.co2     2 ASP3        0.0000 
     19 OD1        52.1500   81.6000   20.1500 O.co2     2 ASP3        0.0000 
     20 NZ         54.0100   77.4200   15.4700 N.4       3 LYS4        0.0000 
     21 NZ         51.8200   79.5600   17.5000 N.4       3 LYS4        0.0000 
     22 NZ         52.6600   78.3200   17.5000 N.4       3 LYS4        0.0000 
     23 NZ         53.7500   79.0600   16.7900 N.4       3 LYS4        0.0000 
     24 NZ         52.4100   79.9600   18.8200 N.4       3 LYS4        0.0000 
     25 CZ         49.0400   77.6800   17.6000 C.ar      4 PHE5        0.0000 
     26 CZ         52.9100   76.6800   16.1800 C.ar      4 PHE5        0.0000 
     27 CZ         49.6300   78.0800   18.9200 C.ar      4 PHE5        0.0000 
     28 CZ         50.7200   78.8200   18.2100 C.ar      4 PHE5        0.0000 
     29 CA         52.5800   78.2700   14.1500 C.3       5 GLY6        0.0000 
     30 CA         53.4200   77.0300   14.1500 C.3       5 GLY6        0.0000 
     31 CA         54.5100   77.7700   13.4400 C.3       5 GLY6        0.0000 
     32 CA         50.1400   78.4300   16.8900 C.3       5 GLY6        0.0000 
     33 CA         50.3900   80.4100   16.1800 C.3       5 GLY6        0.0000 
     34 CA         51.2300   79.1700   16.1800 C.3       5 GLY6        0.0000 
     35 CA         52.0700   77.9300   16.1800 C.3       5 GLY6        0.0000 
     36 CA         52.3200   79.9100   15.4700 C.3       5 GLY6        0.0000 
     37 CA         53.1600   78.6700   15.4700 C.3       5 GLY6        0.0000 
     38 CA         55.1000   78.1700   14.7600 C.3       5 GLY6        0.0000 
     39 CA         48.7900   79.3200   18.9200 C.3       5 GLY6        0.0000 
     40 CA         49.8800   80.0600   18.2100 C.3       5 GLY6        0.0000 
     41 CA         49.3800   79.7200   20.2500 C.3       5 GLY6        0.0000 
     42 CA         49.6300   81.7000   19.5400 C.3       5 GLY6        0.0000 
     43 CA         51.3100   82.8400   20.1500 C.3       5 GLY6        0.0000 
     44 CA         50.8100   82.5000   22.1800 C.3       5 GLY6        0.0000 
     45 CA         51.0600   84.4800   21.4700 C.3       5 GLY6        0.0000 
@<TRIPOS>BOND
@<TRIPOS>SUBSTRUCTURE
     1 ALA2        1 GROUP   
     2 ASP3        8 GROUP   
     3 LYS4       20 GROUP   
     4 PHE5       25 GROUP   
     5 GLY6       29 GROUP   
@<TRIPOS>SET

