#    Name: 6rzq_2_ANP
#    Modification time : Fri May 22 19:24:41 2020

@<TRIPOS>MOLECULE
6rzq_2_ANP
   31    33     1     0     1
SMALL
NO_CHARGES


@<TRIPOS>ATOM
      1 PG         46.3960   76.1030   12.7950 P.3       1 ANP502      0.0000 
      2 O1G        45.9660   77.3920   12.1260 O.co2     1 ANP502      0.0000 
      3 O2G        47.8870   76.0890   12.8490 O.co2     1 ANP502      0.0000 
      4 O3G        45.8130   74.8450   12.0990 O.co2     1 ANP502      0.0000 
      5 PB         46.3410   75.2340   15.5720 P.3       1 ANP502      0.0000 
      6 O1B        45.0430   74.7680   16.2220 O.co2     1 ANP502      0.0000 
      7 O2B        47.3530   74.2000   15.1930 O.co2     1 ANP502      0.0000 
      8 N3B        45.8510   76.1700   14.3370 N.3       1 ANP502      0.0000 
      9 PA         46.7680   77.1530   17.7760 P.3       1 ANP502      0.0000 
     10 O1A        47.1900   76.3880   18.9720 O.co2     1 ANP502      0.0000 
     11 O2A        45.3790   77.6400   17.6230 O.co2     1 ANP502      0.0000 
     12 O3A        47.1390   76.3230   16.4450 O.3       1 ANP502      0.0000 
     13 O5'        47.7070   78.4500   17.6750 O.3       1 ANP502      0.0000 
     14 C5'        49.1110   78.2740   17.5790 C.3       1 ANP502      0.0000 
     15 C4'        49.7420   79.6310   17.4720 C.3       1 ANP502      0.0000 
     16 O4'        49.3200   80.4450   18.5990 O.3       1 ANP502      0.0000 
     17 C3'        51.2770   79.6540   17.4700 C.3       1 ANP502      0.0000 
     18 O3'        51.8180   80.3990   16.3810 O.3       1 ANP502      0.0000 
     19 C2'        51.6170   80.3410   18.7910 C.3       1 ANP502      0.0000 
     20 O2'        52.8760   80.9700   18.7200 O.3       1 ANP502      0.0000 
     21 C1'        50.4110   81.2620   18.9430 C.3       1 ANP502      0.0000 
     22 N9         50.2300   81.7660   20.2930 N.pl3     1 ANP502      0.0000 
     23 C8         49.9790   81.0560   21.4350 C.2       1 ANP502      0.0000 
     24 N7         49.9190   81.8190   22.5020 N.2       1 ANP502      0.0000 
     25 C5         50.1360   83.1000   22.0220 C.ar      1 ANP502      0.0000 
     26 C6         50.1880   84.3590   22.6530 C.ar      1 ANP502      0.0000 
     27 N6         50.0450   84.5320   23.9590 N.pl3     1 ANP502      0.0000 
     28 N1         50.4210   85.4380   21.8660 N.ar      1 ANP502      0.0000 
     29 C2         50.5810   85.2530   20.5480 C.ar      1 ANP502      0.0000 
     30 N3         50.5520   84.1230   19.8460 N.ar      1 ANP502      0.0000 
     31 C4         50.3230   83.0750   20.6580 C.ar      1 ANP502      0.0000 
@<TRIPOS>BOND
     1    1    2 ar   
     2    1    3 ar   
     3    1    4 ar   
     4    1    8 1    
     5    5    6 ar   
     6    5    7 ar   
     7    5    8 1    
     8    5   12 1    
     9    9   10 ar   
    10    9   11 ar   
    11    9   12 1    
    12    9   13 1    
    13   13   14 1    
    14   14   15 1    
    15   15   16 1    
    16   15   17 1    
    17   16   21 1    
    18   17   18 1    
    19   17   19 1    
    20   19   20 1    
    21   19   21 1    
    22   21   22 1    
    23   22   23 1    
    24   22   31 1    
    25   23   24 2    
    26   24   25 1    
    27   25   26 ar   
    28   25   31 ar   
    29   26   27 1    
    30   26   28 ar   
    31   28   29 ar   
    32   29   30 ar   
    33   30   31 ar   
@<TRIPOS>SUBSTRUCTURE
     1 ANP502      1 GROUP   
@<TRIPOS>SET
ATOM$ORANGE STATIC     ATOMS   COLORGROUP SYSTEM 
20 14 14 15 15 17 17 19 19 21 21 23 23 25 25 26 26 29 \
29 31 31 

