#    Name: 6rzq_2_ANP_CAVITY_N1_8
#    Modification time : Fri May 22 19:24:43 2020

@<TRIPOS>MOLECULE
6rzq_2_ANP_CAVITY_N1_8
   58     0     7     0     0
SMALL
NO_CHARGES


@<TRIPOS>ATOM
      1 OG         57.2900   76.0300   12.7200 O.3       1 SER1        0.0000 
      2 OG         56.7800   75.6800   14.7600 O.3       1 SER1        0.0000 
      3 OG         57.8700   76.4200   14.0500 O.3       1 SER1        0.0000 
      4 OG         56.9500   75.7800   21.4600 O.3       1 SER1        0.0000 
      5 O          48.2000   78.9300   17.6000 O.2       2 ALA2        0.0000 
      6 O          49.3000   79.6700   16.8900 O.2       2 ALA2        0.0000 
      7 O          54.2600   79.4100   14.7600 O.2       2 ALA2        0.0000 
      8 O          49.0400   81.3100   18.2200 O.2       2 ALA2        0.0000 
      9 N          50.2200   82.1000   20.8600 N.am      2 ALA2        0.0000 
     10 N          50.4700   84.0800   20.1500 N.am      2 ALA2        0.0000 
     11 N          49.9700   83.7400   22.1800 N.am      2 ALA2        0.0000 
     12 OD1        54.8500   76.1800   15.4700 O.co2     3 ASP3        0.0000 
     13 OD1        55.9400   76.9200   14.7600 O.co2     3 ASP3        0.0000 
     14 OD1        50.9800   80.8100   17.5000 O.co2     3 ASP3        0.0000 
     15 OD1        52.9100   80.3100   16.7900 O.co2     3 ASP3        0.0000 
     16 OD1        50.4700   80.4600   19.5400 O.co2     3 ASP3        0.0000 
     17 OD1        51.3100   79.2200   19.5300 O.co2     3 ASP3        0.0000 
     18 OD1        50.7300   82.4500   18.8300 O.co2     3 ASP3        0.0000 
     19 OD1        51.5700   81.2000   18.8300 O.co2     3 ASP3        0.0000 
     20 OD1        49.1300   81.3600   21.5700 O.co2     3 ASP3        0.0000 
     21 OD1        49.9700   80.1200   21.5700 O.co2     3 ASP3        0.0000 
     22 OD1        51.0600   80.8600   20.8600 O.co2     3 ASP3        0.0000 
     23 OD1        52.1500   81.6000   20.1500 O.co2     3 ASP3        0.0000 
     24 NZ         55.3500   76.5300   13.4400 N.4       4 LYS4        0.0000 
     25 NZ         56.4500   77.2700   12.7300 N.4       4 LYS4        0.0000 
     26 NZ         54.0100   77.4200   15.4700 N.4       4 LYS4        0.0000 
     27 NZ         51.8200   79.5600   17.5000 N.4       4 LYS4        0.0000 
     28 NZ         52.6600   78.3200   17.5000 N.4       4 LYS4        0.0000 
     29 NZ         53.7500   79.0600   16.7900 N.4       4 LYS4        0.0000 
     30 NZ         52.4100   79.9600   18.8200 N.4       4 LYS4        0.0000 
     31 NZ         59.0500   77.2200   16.6900 N.4       4 LYS4        0.0000 
     32 NZ         59.6400   77.6100   18.0100 N.4       4 LYS4        0.0000 
     33 NZ         58.0400   76.5300   20.7500 N.4       4 LYS4        0.0000 
     34 NZ         59.1400   77.2700   20.0400 N.4       4 LYS4        0.0000 
     35 CZ         49.0400   77.6800   17.6000 C.ar      5 PHE5        0.0000 
     36 CZ         52.9100   76.6800   16.1800 C.ar      5 PHE5        0.0000 
     37 CZ         49.6300   78.0800   18.9200 C.ar      5 PHE5        0.0000 
     38 CZ         50.7200   78.8200   18.2100 C.ar      5 PHE5        0.0000 
     39 CA         52.5800   78.2700   14.1500 C.3       6 GLY6        0.0000 
     40 CA         53.4200   77.0300   14.1500 C.3       6 GLY6        0.0000 
     41 CA         54.5100   77.7700   13.4400 C.3       6 GLY6        0.0000 
     42 CA         57.5400   78.0100   12.0200 C.3       6 GLY6        0.0000 
     43 CA         50.1400   78.4300   16.8900 C.3       6 GLY6        0.0000 
     44 CA         50.3900   80.4100   16.1800 C.3       6 GLY6        0.0000 
     45 CA         51.2300   79.1700   16.1800 C.3       6 GLY6        0.0000 
     46 CA         52.0700   77.9300   16.1800 C.3       6 GLY6        0.0000 
     47 CA         52.3200   79.9100   15.4700 C.3       6 GLY6        0.0000 
     48 CA         53.1600   78.6700   15.4700 C.3       6 GLY6        0.0000 
     49 CA         55.1000   78.1700   14.7600 C.3       6 GLY6        0.0000 
     50 CA         48.7900   79.3200   18.9200 C.3       6 GLY6        0.0000 
     51 CA         49.8800   80.0600   18.2100 C.3       6 GLY6        0.0000 
     52 CA         58.4600   76.8200   15.3700 C.3       6 GLY6        0.0000 
     53 CA         49.3800   79.7200   20.2500 C.3       6 GLY6        0.0000 
     54 CA         49.6300   81.7000   19.5400 C.3       6 GLY6        0.0000 
     55 CA         51.3100   82.8400   20.1500 C.3       6 GLY6        0.0000 
     56 CA         50.8100   82.5000   22.1800 C.3       6 GLY6        0.0000 
     57 CA         51.0600   84.4800   21.4700 C.3       6 GLY6        0.0000 
     58 DU         57.5400   76.1800   22.7800 H         7 CUB7        0.0000 
@<TRIPOS>BOND
@<TRIPOS>SUBSTRUCTURE
     1 SER1        1 GROUP   
     2 ALA2        5 GROUP   
     3 ASP3       12 GROUP   
     4 LYS4       24 GROUP   
     5 PHE5       35 GROUP   
     6 GLY6       39 GROUP   
     7 CUB7       58 GROUP   
@<TRIPOS>SET

