#    Name: 6awg_1_ATP
#    Modification time : Fri May 22 19:25:30 2020

@<TRIPOS>MOLECULE
6awg_1_ATP
   31    33     1     0     1
SMALL
NO_CHARGES


@<TRIPOS>ATOM
      1 PG         -0.6790   -0.7460   19.3190 P.3       1 ATP1001     0.0000 
      2 O1G         0.4400   -1.3240   18.3850 O.co2     1 ATP1001     0.0000 
      3 O2G        -2.1580   -0.9090   18.9890 O.co2     1 ATP1001     0.0000 
      4 O3G        -0.4450    0.6980   19.7110 O.co2     1 ATP1001     0.0000 
      5 PB         -0.5170   -1.0680   22.1720 P.3       1 ATP1001     0.0000 
      6 O1B        -0.5520    0.4220   22.0270 O.co2     1 ATP1001     0.0000 
      7 O2B        -1.4700   -1.8400   23.0190 O.co2     1 ATP1001     0.0000 
      8 O3B        -0.5450   -1.6440   20.6820 O.3       1 ATP1001     0.0000 
      9 PA          1.8290   -1.1250   23.8450 P.3       1 ATP1001     0.0000 
     10 O1A         2.7980   -0.1180   23.3090 O.co2     1 ATP1001     0.0000 
     11 O2A         1.1040   -0.7040   25.0850 O.co2     1 ATP1001     0.0000 
     12 O3A         0.9310   -1.5470   22.5760 O.3       1 ATP1001     0.0000 
     13 O5'         2.7050   -2.4370   24.0950 O.3       1 ATP1001     0.0000 
     14 C5'         2.0900   -3.7000   23.9490 C.3       1 ATP1001     0.0000 
     15 C4'         3.0360   -4.7860   24.4350 C.3       1 ATP1001     0.0000 
     16 O4'         3.5000   -4.4700   25.7270 O.3       1 ATP1001     0.0000 
     17 C3'         2.4010   -6.1440   24.6560 C.3       1 ATP1001     0.0000 
     18 O3'         2.1380   -6.8750   23.4680 O.3       1 ATP1001     0.0000 
     19 C2'         3.4350   -6.8190   25.5180 C.3       1 ATP1001     0.0000 
     20 O2'         4.5080   -7.3750   24.7740 O.3       1 ATP1001     0.0000 
     21 C1'         3.9430   -5.6670   26.3560 C.3       1 ATP1001     0.0000 
     22 N9          3.3910   -5.6510   27.7220 N.pl3     1 ATP1001     0.0000 
     23 C8          3.9140   -4.9050   28.7060 C.2       1 ATP1001     0.0000 
     24 N7          3.1920   -5.0910   29.8100 N.2       1 ATP1001     0.0000 
     25 C5          2.2220   -5.9470   29.5500 C.ar      1 ATP1001     0.0000 
     26 C6          1.1260   -6.5610   30.2910 C.ar      1 ATP1001     0.0000 
     27 N6          0.9860   -6.2340   31.5840 N.pl3     1 ATP1001     0.0000 
     28 N1          0.2860   -7.4180   29.6940 N.ar      1 ATP1001     0.0000 
     29 C2          0.4470   -7.7190   28.4130 C.ar      1 ATP1001     0.0000 
     30 N3          1.4210   -7.1680   27.6890 N.ar      1 ATP1001     0.0000 
     31 C4          2.3360   -6.3120   28.1790 C.ar      1 ATP1001     0.0000 
@<TRIPOS>BOND
     1    1    2 ar   
     2    1    3 ar   
     3    1    4 ar   
     4    1    8 1    
     5    5    6 ar   
     6    5    7 ar   
     7    5    8 1    
     8    5   12 1    
     9    9   10 ar   
    10    9   11 ar   
    11    9   12 1    
    12    9   13 1    
    13   13   14 1    
    14   14   15 1    
    15   15   16 1    
    16   15   17 1    
    17   16   21 1    
    18   17   18 1    
    19   17   19 1    
    20   19   20 1    
    21   19   21 1    
    22   21   22 1    
    23   22   23 1    
    24   22   31 1    
    25   23   24 2    
    26   24   25 1    
    27   25   26 ar   
    28   25   31 ar   
    29   26   27 1    
    30   26   28 ar   
    31   28   29 ar   
    32   29   30 ar   
    33   30   31 ar   
@<TRIPOS>SUBSTRUCTURE
     1 ATP1001     1 GROUP   
@<TRIPOS>SET
ATOM$ORANGE STATIC     ATOMS   COLORGROUP SYSTEM 
20 14 14 15 15 17 17 19 19 21 21 23 23 25 25 26 26 29 \
29 31 31 

