#    Name: 6awg_3_ATP
#    Modification time : Fri May 22 19:25:43 2020

@<TRIPOS>MOLECULE
6awg_3_ATP
   31    33     1     0     1
SMALL
NO_CHARGES


@<TRIPOS>ATOM
      1 PG         11.9950   13.0470   51.8780 P.3       1 ATP301      0.0000 
      2 O1G        12.0540   11.6090   51.3400 O.co2     1 ATP301      0.0000 
      3 O2G        13.4300   13.6260   52.0350 O.co2     1 ATP301      0.0000 
      4 O3G        11.0090   13.1640   53.0300 O.co2     1 ATP301      0.0000 
      5 PB         10.1710   13.3740   49.6150 P.3       1 ATP301      0.0000 
      6 O1B         8.8780   14.1640   49.5530 O.co2     1 ATP301      0.0000 
      7 O2B        10.1270   11.8700   49.7720 O.co2     1 ATP301      0.0000 
      8 O3B        11.1950   13.9580   50.7560 O.3       1 ATP301      0.0000 
      9 PA         10.9030   13.3660   46.7800 P.3       1 ATP301      0.0000 
     10 O1A        11.9740   12.3660   46.4080 O.co2     1 ATP301      0.0000 
     11 O2A         9.4400   13.1800   46.4900 O.co2     1 ATP301      0.0000 
     12 O3A        11.0150   13.7850   48.3310 O.3       1 ATP301      0.0000 
     13 O5'        11.5220   14.7270   46.1710 O.3       1 ATP301      0.0000 
     14 C5'        10.8970   15.9420   46.5400 C.3       1 ATP301      0.0000 
     15 C4'        11.3870   17.0270   45.5890 C.3       1 ATP301      0.0000 
     16 O4'        11.0470   16.7260   44.2440 O.3       1 ATP301      0.0000 
     17 C3'        10.7600   18.3960   45.8350 C.3       1 ATP301      0.0000 
     18 O3'        11.2450   19.0850   47.0000 O.3       1 ATP301      0.0000 
     19 C2'        11.0520   19.0710   44.5060 C.3       1 ATP301      0.0000 
     20 O2'        12.3640   19.6000   44.3750 O.3       1 ATP301      0.0000 
     21 C1'        10.9170   17.9400   43.5120 C.3       1 ATP301      0.0000 
     22 N9          9.6100   17.8870   42.8380 N.pl3     1 ATP301      0.0000 
     23 C8          9.3590   17.1630   41.7300 C.2       1 ATP301      0.0000 
     24 N7          8.0770   17.3060   41.3370 N.2       1 ATP301      0.0000 
     25 C5          7.4890   18.1210   42.2230 C.ar      1 ATP301      0.0000 
     26 C6          6.1550   18.7040   42.4200 C.ar      1 ATP301      0.0000 
     27 N6          5.1650   18.4020   41.5700 N.pl3     1 ATP301      0.0000 
     28 N1          5.9380   19.5330   43.4510 N.ar      1 ATP301      0.0000 
     29 C2          6.9030   19.8380   44.3170 C.ar      1 ATP301      0.0000 
     30 N3          8.1350   19.3470   44.1960 N.ar      1 ATP301      0.0000 
     31 C4          8.4930   18.5050   43.2040 C.ar      1 ATP301      0.0000 
@<TRIPOS>BOND
     1    1    2 ar   
     2    1    3 ar   
     3    1    4 ar   
     4    1    8 1    
     5    5    6 ar   
     6    5    7 ar   
     7    5    8 1    
     8    5   12 1    
     9    9   10 ar   
    10    9   11 ar   
    11    9   12 1    
    12    9   13 1    
    13   13   14 1    
    14   14   15 1    
    15   15   16 1    
    16   15   17 1    
    17   16   21 1    
    18   17   18 1    
    19   17   19 1    
    20   19   20 1    
    21   19   21 1    
    22   21   22 1    
    23   22   23 1    
    24   22   31 1    
    25   23   24 2    
    26   24   25 1    
    27   25   26 ar   
    28   25   31 ar   
    29   26   27 1    
    30   26   28 ar   
    31   28   29 ar   
    32   29   30 ar   
    33   30   31 ar   
@<TRIPOS>SUBSTRUCTURE
     1 ATP301      1 GROUP   
@<TRIPOS>SET
ATOM$ORANGE STATIC     ATOMS   COLORGROUP SYSTEM 
20 14 14 15 15 17 17 19 19 21 21 23 23 25 25 26 26 29 \
29 31 31 

