#    Name: 6s8m_1_ANP
#    Modification time : Fri May 22 19:25:18 2020

@<TRIPOS>MOLECULE
6s8m_1_ANP
   31    33     1     0     1
SMALL
NO_CHARGES


@<TRIPOS>ATOM
      1 PG        115.8250   90.2870  147.7750 P.3       1 ANP502      0.0000 
      2 O1G       115.5950   91.4810  148.5730 O.co2     1 ANP502      0.0000 
      3 O2G       114.5410   89.3800  147.7920 O.co2     1 ANP502      0.0000 
      4 O3G       117.0290   89.5120  148.4120 O.co2     1 ANP502      0.0000 
      5 PB        117.5210   91.3080  145.6220 P.3       1 ANP502      0.0000 
      6 O1B       117.2290   92.3090  144.6090 O.co2     1 ANP502      0.0000 
      7 O2B       118.2970   92.0410  146.7610 O.co2     1 ANP502      0.0000 
      8 N3B       116.1860   90.6330  146.2370 N.3       1 ANP502      0.0000 
      9 PA        119.9540   90.2880  144.6080 P.3       1 ANP502      0.0000 
     10 O1A       120.6970   91.0480  145.6320 O.co2     1 ANP502      0.0000 
     11 O2A       119.9050   91.0480  143.2980 O.co2     1 ANP502      0.0000 
     12 O3A       118.4450   90.1570  145.0910 O.3       1 ANP502      0.0000 
     13 O5'       120.6920   88.9130  144.2970 O.3       1 ANP502      0.0000 
     14 C5'       122.1020   88.8360  144.5910 C.3       1 ANP502      0.0000 
     15 C4'       122.8960   88.4900  143.3560 C.3       1 ANP502      0.0000 
     16 O4'       122.7910   89.5590  142.3870 O.3       1 ANP502      0.0000 
     17 C3'       124.3910   88.2950  143.5960 C.3       1 ANP502      0.0000 
     18 O3'       124.9190   87.3020  142.7260 O.3       1 ANP502      0.0000 
     19 C2'       124.9560   89.6780  143.2790 C.3       1 ANP502      0.0000 
     20 O2'       126.3280   89.6400  142.9050 O.3       1 ANP502      0.0000 
     21 C1'       124.0770   90.0720  142.0980 C.3       1 ANP502      0.0000 
     22 N9        123.9650   91.5110  141.9020 N.pl3     1 ANP502      0.0000 
     23 C8        122.8520   92.2830  142.1010 C.2       1 ANP502      0.0000 
     24 N7        123.0450   93.5640  141.8980 N.2       1 ANP502      0.0000 
     25 C5        124.3810   93.6400  141.5350 C.ar      1 ANP502      0.0000 
     26 C6        125.2120   94.7250  141.1940 C.ar      1 ANP502      0.0000 
     27 N6        124.8040   95.9970  141.1710 N.pl3     1 ANP502      0.0000 
     28 N1        126.4980   94.4550  140.8770 N.ar      1 ANP502      0.0000 
     29 C2        126.9150   93.1850  140.9040 C.ar      1 ANP502      0.0000 
     30 N3        126.2270   92.0840  141.2140 N.ar      1 ANP502      0.0000 
     31 C4        124.9590   92.3810  141.5260 C.ar      1 ANP502      0.0000 
@<TRIPOS>BOND
     1    1    2 ar   
     2    1    3 ar   
     3    1    4 ar   
     4    1    8 1    
     5    5    6 ar   
     6    5    7 ar   
     7    5    8 1    
     8    5   12 1    
     9    9   10 ar   
    10    9   11 ar   
    11    9   12 1    
    12    9   13 1    
    13   13   14 1    
    14   14   15 1    
    15   15   16 1    
    16   15   17 1    
    17   16   21 1    
    18   17   18 1    
    19   17   19 1    
    20   19   20 1    
    21   19   21 1    
    22   21   22 1    
    23   22   23 1    
    24   22   31 1    
    25   23   24 2    
    26   24   25 1    
    27   25   26 ar   
    28   25   31 ar   
    29   26   27 1    
    30   26   28 ar   
    31   28   29 ar   
    32   29   30 ar   
    33   30   31 ar   
@<TRIPOS>SUBSTRUCTURE
     1 ANP502      1 GROUP   
@<TRIPOS>SET
ATOM$ORANGE STATIC     ATOMS   COLORGROUP SYSTEM 
20 14 14 15 15 17 17 19 19 21 21 23 23 25 25 26 26 29 \
29 31 31 

