#    Name: 6s8m_1_ANP_CAVITY_N1_8
#    Modification time : Fri May 22 19:25:19 2020

@<TRIPOS>MOLECULE
6s8m_1_ANP_CAVITY_N1_8
   33     0     5     0     0
SMALL
NO_CHARGES


@<TRIPOS>ATOM
      1 OG        121.5800   89.7800  154.9400 O.3       1 SER1        0.0000 
      2 N         120.6600   86.9300  150.4400 N.am      2 ALA2        0.0000 
      3 N         124.6500   87.8400  148.5500 N.am      2 ALA2        0.0000 
      4 N         123.6200   88.7200  149.2000 N.am      2 ALA2        0.0000 
      5 N         125.1600   87.0400  150.4500 N.am      2 ALA2        0.0000 
      6 N         124.1400   87.9300  151.0900 N.am      2 ALA2        0.0000 
      7 N         123.1100   88.8100  151.7400 N.am      2 ALA2        0.0000 
      8 N         122.1700   86.5000  153.4000 N.am      2 ALA2        0.0000 
      9 OD1       120.5900   89.4200  153.8700 O.co2     3 ASP3        0.0000 
     10 CA        125.6700   86.9500  147.9000 C.3       4 GLY6        0.0000 
     11 CA        125.2000   85.8000  148.7300 C.3       4 GLY6        0.0000 
     12 CA        124.1700   86.6800  149.3800 C.3       4 GLY6        0.0000 
     13 CA        123.1500   87.5600  150.0300 C.3       4 GLY6        0.0000 
     14 CA        123.7000   85.5200  150.2100 C.3       4 GLY6        0.0000 
     15 CA        122.6800   86.4100  150.8600 C.3       4 GLY6        0.0000 
     16 CA        121.6500   87.2900  151.5000 C.3       4 GLY6        0.0000 
     17 CA        120.6300   88.1700  152.1500 C.3       4 GLY6        0.0000 
     18 CA        123.2300   84.3700  151.0400 C.3       4 GLY6        0.0000 
     19 CA        122.2000   85.2500  151.6900 C.3       4 GLY6        0.0000 
     20 CA        121.1800   86.1300  152.3300 C.3       4 GLY6        0.0000 
     21 CA        120.1600   87.0200  152.9800 C.3       4 GLY6        0.0000 
     22 CA        122.0900   89.6900  152.3900 C.3       4 GLY6        0.0000 
     23 CA        121.0600   90.5800  153.0400 C.3       4 GLY6        0.0000 
     24 CA        122.6400   87.6500  152.5700 C.3       4 GLY6        0.0000 
     25 CA        121.6200   88.5400  153.2200 C.3       4 GLY6        0.0000 
     26 CA        121.1400   87.3800  154.0500 C.3       4 GLY6        0.0000 
     27 CA        121.5000   92.9800  153.9300 C.3       4 GLY6        0.0000 
     28 CA        127.1800   86.5200  150.8700 C.3       4 GLY6        0.0000 
     29 CA        122.0500   90.9400  154.1100 C.3       4 GLY6        0.0000 
     30 CA        121.0300   91.8200  154.7600 C.3       4 GLY6        0.0000 
     31 DU        125.7100   85.0000  150.6300 H         5 CUB7        0.0000 
     32 DU        124.6900   85.8900  151.2800 H         5 CUB7        0.0000 
     33 DU        123.6700   86.7700  151.9200 H         5 CUB7        0.0000 
@<TRIPOS>BOND
@<TRIPOS>SUBSTRUCTURE
     1 SER1        1 GROUP   
     2 ALA2        2 GROUP   
     3 ASP3        9 GROUP   
     4 GLY6       10 GROUP   
     5 CUB7       31 GROUP   
@<TRIPOS>SET

