#    Name: 6cpt_1_IBM
#    Modification time : Fri May 22 19:36:47 2020

@<TRIPOS>MOLECULE
6cpt_1_IBM
   16    17     1     0     0
SMALL
NO_CHARGES


@<TRIPOS>ATOM
      1 N9         44.7880   34.8420   41.2370 N.pl3     1 IBM603      0.0000 
      2 C8         43.6830   34.5970   40.4920 C.2       1 IBM603      0.0000 
      3 N7         44.0250   34.2640   39.2230 N.2       1 IBM603      0.0000 
      4 C5         45.3670   34.2880   39.1360 C.2       1 IBM603      0.0000 
      5 C4         45.8720   34.6730   40.4720 C.2       1 IBM603      0.0000 
      6 N3         47.1880   34.7890   40.7000 N.am      1 IBM603      0.0000 
      7 C2         48.1250   34.5360   39.6600 C.2       1 IBM603      0.0000 
      8 N1         47.7170   34.1620   38.3480 N.am      1 IBM603      0.0000 
      9 C6         46.3390   34.0260   38.0480 C.2       1 IBM603      0.0000 
     10 O6         45.9210   33.7050   36.9100 O.2       1 IBM603      0.0000 
     11 O2         49.3470   34.6510   39.9070 O.2       1 IBM603      0.0000 
     12 C10        48.7400   33.9230   37.3190 C.3       1 IBM603      0.0000 
     13 C11        47.6530   35.1530   42.0520 C.3       1 IBM603      0.0000 
     14 C12        47.9520   36.6400   42.2100 C.3       1 IBM603      0.0000 
     15 C13        47.0560   37.2660   43.2740 C.3       1 IBM603      0.0000 
     16 C14        49.4210   36.8560   42.5620 C.3       1 IBM603      0.0000 
@<TRIPOS>BOND
     1    1    2 1    
     2    1    5 1    
     3    2    3 2    
     4    3    4 1    
     5    4    5 2    
     6    4    9 1    
     7    5    6 1    
     8    6    7 am   
     9    6   13 1    
    10    7    8 am   
    11    7   11 2    
    12    8    9 am   
    13    8   12 1    
    14    9   10 2    
    15   13   14 1    
    16   14   15 1    
    17   14   16 1    
@<TRIPOS>SUBSTRUCTURE
     1 IBM603      1 GROUP   
@<TRIPOS>SET

