#    Name: 6kck_4_PE0_CAVITY_N1_4
#    Modification time : Fri May 22 19:25:15 2020

@<TRIPOS>MOLECULE
6kck_4_PE0_CAVITY_N1_4
   32     0     7     0     0
SMALL
NO_CHARGES


@<TRIPOS>ATOM
      1 OG         13.5600   65.5700   21.5400 O.3       1 SER1        0.0000 
      2 OG         14.7800   66.3100   22.0100 O.3       1 SER1        0.0000 
      3 OG         15.4500   66.5000   20.0100 O.3       1 SER1        0.0000 
      4 OG         16.3100   65.6800   19.1000 O.3       1 SER1        0.0000 
      5 O          13.3700   66.5800   20.4500 O.2       2 ALA2        0.0000 
      6 O          14.2300   65.7600   19.5300 O.2       2 ALA2        0.0000 
      7 OD1        14.1000   66.1200   24.0200 O.co2     3 ASP3        0.0000 
      8 OD1        14.7500   69.9000   21.2200 O.co2     3 ASP3        0.0000 
      9 OD1        15.3200   66.8600   24.4900 O.co2     3 ASP3        0.0000 
     10 OD1        15.6100   69.0800   20.3100 O.co2     3 ASP3        0.0000 
     11 OD1        15.8000   68.0600   21.4000 O.co2     3 ASP3        0.0000 
     12 OD1        15.9900   67.0500   22.4900 O.co2     3 ASP3        0.0000 
     13 OD1        16.1800   66.0400   23.5800 O.co2     3 ASP3        0.0000 
     14 OD1        16.4700   68.2500   19.4000 O.co2     3 ASP3        0.0000 
     15 OD1        16.6600   67.2400   20.4900 O.co2     3 ASP3        0.0000 
     16 OD1        16.8500   66.2300   21.5800 O.co2     3 ASP3        0.0000 
     17 OD1        17.5800   65.7700   25.1500 O.co2     3 ASP3        0.0000 
     18 NZ         17.0400   65.2200   22.6700 N.4       4 LYS4        0.0000 
     19 NZ         17.5200   66.4200   19.5800 N.4       4 LYS4        0.0000 
     20 NZ         16.9100   65.5800   27.1500 N.4       4 LYS4        0.0000 
     21 CZ         13.5400   69.1600   20.7400 C.ar      5 PHE5        0.0000 
     22 CZ         14.9600   65.3000   23.1100 C.ar      5 PHE5        0.0000 
     23 CZ         15.5100   65.8500   25.5900 C.ar      5 PHE5        0.0000 
     24 CZ         16.3700   65.0300   24.6700 C.ar      5 PHE5        0.0000 
     25 CA         12.5100   67.4000   21.3600 C.3       6 GLY6        0.0000 
     26 CA         12.7000   66.3900   22.4500 C.3       6 GLY6        0.0000 
     27 CA         13.7200   68.1500   21.8400 C.3       6 GLY6        0.0000 
     28 CA         13.9100   67.1300   22.9300 C.3       6 GLY6        0.0000 
     29 CA         16.7200   66.5900   26.0600 C.3       6 GLY6        0.0000 
     30 CA         17.7700   64.7600   26.2400 C.3       6 GLY6        0.0000 
     31 DU         14.4000   68.3300   19.8300 H         7 CUB7        0.0000 
     32 DU         14.5900   67.3200   20.9200 H         7 CUB7        0.0000 
@<TRIPOS>BOND
@<TRIPOS>SUBSTRUCTURE
     1 SER1        1 GROUP   
     2 ALA2        5 GROUP   
     3 ASP3        7 GROUP   
     4 LYS4       18 GROUP   
     5 PHE5       21 GROUP   
     6 GLY6       25 GROUP   
     7 CUB7       31 GROUP   
@<TRIPOS>SET

