#    Name: 6kck_4_PE0
#    Modification time : Fri May 22 19:25:14 2020

@<TRIPOS>MOLECULE
6kck_4_PE0
   12    13     1     0     0
SMALL
NO_CHARGES


@<TRIPOS>ATOM
      1 C1         15.9360   66.2270   25.2270 C.ar      1 PE0801      0.0000 
      2 C4         15.7030   66.2910   26.6980 C.2       1 PE0801      0.0000 
      3 O4         14.6050   66.6810   27.1630 O.2       1 PE0801      0.0000 
      4 N2         16.7100   65.9220   27.5150 N.am      1 PE0801      0.0000 
      5 C3         17.9030   65.4980   27.0360 C.2       1 PE0801      0.0000 
      6 N6         18.8770   65.1220   27.9040 N.pl3     1 PE0801      0.0000 
      7 N1         18.1650   65.4210   25.7070 N.2       1 PE0801      0.0000 
      8 C2         17.2600   65.7620   24.7770 C.ar      1 PE0801      0.0000 
      9 N3         17.5260   65.6840   23.4460 N.ar      1 PE0801      0.0000 
     10 C6         16.5860   66.0360   22.5490 C.ar      1 PE0801      0.0000 
     11 C5         15.3230   66.4920   22.9680 C.ar      1 PE0801      0.0000 
     12 N4         15.0060   66.5810   24.2870 N.ar      1 PE0801      0.0000 
@<TRIPOS>BOND
     1    1    2 1    
     2    1    8 ar   
     3    1   12 ar   
     4    2    3 2    
     5    2    4 am   
     6    4    5 1    
     7    5    6 1    
     8    5    7 2    
     9    7    8 1    
    10    8    9 ar   
    11    9   10 ar   
    12   10   11 ar   
    13   11   12 ar   
@<TRIPOS>SUBSTRUCTURE
     1 PE0801      1 GROUP   
@<TRIPOS>SET

