#    Name: 6kck_6_APC
#    Modification time : Fri May 22 19:25:29 2020

@<TRIPOS>MOLECULE
6kck_6_APC
   31    33     1     0     0
SMALL
NO_CHARGES


@<TRIPOS>ATOM
      1 PG         44.1400   63.7790   59.7130 P.3       1 APC803      0.0000 
      2 O1G        43.3210   64.8490   60.3940 O.co2     1 APC803      0.0000 
      3 O2G        44.2310   62.4820   60.4900 O.co2     1 APC803      0.0000 
      4 O3G        43.8440   63.6070   58.2330 O.co2     1 APC803      0.0000 
      5 PB         46.1220   65.7060   59.0380 P.3       1 APC803      0.0000 
      6 O1B        45.0690   66.1930   58.1160 O.co2     1 APC803      0.0000 
      7 O2B        46.4680   66.9000   60.0620 O.co2     1 APC803      0.0000 
      8 O3B        45.6280   64.3930   59.8330 O.3       1 APC803      0.0000 
      9 PA         47.7830   63.4330   57.8730 P.3       1 APC803      0.0000 
     10 O1A        49.2140   63.1670   57.6020 O.co2     1 APC803      0.0000 
     11 O2A        46.9670   62.9180   56.5750 O.co2     1 APC803      0.0000 
     12 C3A        47.6050   65.2360   58.1030 C.3       1 APC803      0.0000 
     13 O5'        47.3400   62.5970   59.1920 O.3       1 APC803      0.0000 
     14 C5'        47.2910   61.1630   59.2180 C.3       1 APC803      0.0000 
     15 C4'        48.6660   60.5510   59.5010 C.3       1 APC803      0.0000 
     16 O4'        48.5650   59.4890   60.4590 O.3       1 APC803      0.0000 
     17 C3'        49.2880   59.9530   58.2440 C.3       1 APC803      0.0000 
     18 O3'        50.4940   60.6410   57.9170 O.3       1 APC803      0.0000 
     19 C2'        49.5770   58.4910   58.5480 C.3       1 APC803      0.0000 
     20 O2'        50.9740   58.2140   58.5750 O.3       1 APC803      0.0000 
     21 C1'        48.9660   58.2270   59.9120 C.3       1 APC803      0.0000 
     22 N9         47.7720   57.3490   59.7710 N.pl3     1 APC803      0.0000 
     23 C8         47.3120   56.5280   60.7430 C.2       1 APC803      0.0000 
     24 N7         46.2100   55.8340   60.3520 N.2       1 APC803      0.0000 
     25 C5         45.9370   56.2300   59.0890 C.ar      1 APC803      0.0000 
     26 C6         44.9030   55.8960   58.0810 C.ar      1 APC803      0.0000 
     27 N6         43.9410   54.9990   58.3650 N.pl3     1 APC803      0.0000 
     28 N1         44.9640   56.5130   56.8830 N.ar      1 APC803      0.0000 
     29 C2         45.9290   57.4250   56.5890 C.ar      1 APC803      0.0000 
     30 N3         46.8940   57.7820   57.4580 N.ar      1 APC803      0.0000 
     31 C4         46.9610   57.2260   58.7020 C.ar      1 APC803      0.0000 
@<TRIPOS>BOND
     1    1    2 ar   
     2    1    3 ar   
     3    1    4 ar   
     4    1    8 1    
     5    5    6 ar   
     6    5    7 ar   
     7    5    8 1    
     8    5   12 1    
     9    9   10 ar   
    10    9   11 ar   
    11    9   12 1    
    12    9   13 1    
    13   13   14 1    
    14   14   15 1    
    15   15   16 1    
    16   15   17 1    
    17   16   21 1    
    18   17   18 1    
    19   17   19 1    
    20   19   20 1    
    21   19   21 1    
    22   21   22 1    
    23   22   23 1    
    24   22   31 1    
    25   23   24 2    
    26   24   25 1    
    27   25   26 ar   
    28   25   31 ar   
    29   26   27 1    
    30   26   28 ar   
    31   28   29 ar   
    32   29   30 ar   
    33   30   31 ar   
@<TRIPOS>SUBSTRUCTURE
     1 APC803      1 GROUP   
@<TRIPOS>SET

