#    Name: 6kck_4_PE0_CAVITY_N1_6
#    Modification time : Fri May 22 19:25:15 2020

@<TRIPOS>MOLECULE
6kck_4_PE0_CAVITY_N1_6
   59     0     7     0     0
SMALL
NO_CHARGES


@<TRIPOS>ATOM
      1 OG         13.5600   65.5700   21.5400 O.3       1 SER1        0.0000 
      2 OG         14.2100   69.3500   18.7400 O.3       1 SER1        0.0000 
      3 OG         14.7800   66.3100   22.0100 O.3       1 SER1        0.0000 
      4 OG         15.4500   66.5000   20.0100 O.3       1 SER1        0.0000 
      5 OG         16.1200   66.6900   18.0100 O.3       1 SER1        0.0000 
      6 OG         16.3100   65.6800   19.1000 O.3       1 SER1        0.0000 
      7 OG         15.4200   70.0900   19.2200 O.3       1 SER1        0.0000 
      8 O          13.3700   66.5800   20.4500 O.2       2 ALA2        0.0000 
      9 O          14.2300   65.7600   19.5300 O.2       2 ALA2        0.0000 
     10 N          15.9300   67.7000   16.9200 N.am      2 ALA2        0.0000 
     11 O          17.3300   67.4300   18.4900 O.2       2 ALA2        0.0000 
     12 OD1        14.1000   66.1200   24.0200 O.co2     3 ASP3        0.0000 
     13 OD1        14.7500   69.9000   21.2200 O.co2     3 ASP3        0.0000 
     14 OD1        15.3200   66.8600   24.4900 O.co2     3 ASP3        0.0000 
     15 OD1        15.6100   69.0800   20.3100 O.co2     3 ASP3        0.0000 
     16 OD1        15.8000   68.0600   21.4000 O.co2     3 ASP3        0.0000 
     17 OD1        15.9900   67.0500   22.4900 O.co2     3 ASP3        0.0000 
     18 OD1        16.1800   66.0400   23.5800 O.co2     3 ASP3        0.0000 
     19 OD1        16.4700   68.2500   19.4000 O.co2     3 ASP3        0.0000 
     20 OD1        16.6600   67.2400   20.4900 O.co2     3 ASP3        0.0000 
     21 OD1        16.8500   66.2300   21.5800 O.co2     3 ASP3        0.0000 
     22 OD1        17.5800   65.7700   25.1500 O.co2     3 ASP3        0.0000 
     23 OD1        17.6800   68.9900   19.8700 O.co2     3 ASP3        0.0000 
     24 NZ         17.0400   65.2200   22.6700 N.4       4 LYS4        0.0000 
     25 NZ         17.5200   66.4200   19.5800 N.4       4 LYS4        0.0000 
     26 NZ         16.9100   65.5800   27.1500 N.4       4 LYS4        0.0000 
     27 CZ         13.3500   70.1700   19.6500 C.ar      5 PHE5        0.0000 
     28 CZ         13.5400   69.1600   20.7400 C.ar      5 PHE5        0.0000 
     29 CZ         14.9600   65.3000   23.1100 C.ar      5 PHE5        0.0000 
     30 CZ         15.5100   65.8500   25.5900 C.ar      5 PHE5        0.0000 
     31 CZ         16.3700   65.0300   24.6700 C.ar      5 PHE5        0.0000 
     32 CA          9.4100   65.7300   22.4100 C.3       6 GLY6        0.0000 
     33 CA         10.2700   64.9100   21.5000 C.3       6 GLY6        0.0000 
     34 CA         10.2500   68.5000   20.7000 C.3       6 GLY6        0.0000 
     35 CA         10.4400   67.4800   21.7900 C.3       6 GLY6        0.0000 
     36 CA         11.1100   67.6700   19.7900 C.3       6 GLY6        0.0000 
     37 CA         11.3000   66.6600   20.8800 C.3       6 GLY6        0.0000 
     38 CA         11.4900   65.6500   21.9700 C.3       6 GLY6        0.0000 
     39 CA         12.1600   65.8400   19.9700 C.3       6 GLY6        0.0000 
     40 CA         11.4600   69.2400   21.1800 C.3       6 GLY6        0.0000 
     41 CA         12.5100   67.4000   21.3600 C.3       6 GLY6        0.0000 
     42 CA         12.7000   66.3900   22.4500 C.3       6 GLY6        0.0000 
     43 CA         12.9900   68.6000   18.2600 C.3       6 GLY6        0.0000 
     44 CA         13.1800   67.5900   19.3600 C.3       6 GLY6        0.0000 
     45 CA         13.8500   67.7800   17.3500 C.3       6 GLY6        0.0000 
     46 CA         14.0400   66.7700   18.4400 C.3       6 GLY6        0.0000 
     47 CA         13.7200   68.1500   21.8400 C.3       6 GLY6        0.0000 
     48 CA         13.9100   67.1300   22.9300 C.3       6 GLY6        0.0000 
     49 CA         16.2800   69.2600   18.3100 C.3       6 GLY6        0.0000 
     50 CA         16.7200   66.5900   26.0600 C.3       6 GLY6        0.0000 
     51 CA         16.6300   70.8300   19.6900 C.3       6 GLY6        0.0000 
     52 CA         17.7700   64.7600   26.2400 C.3       6 GLY6        0.0000 
     53 CA         17.5000   70.0100   18.7800 C.3       6 GLY6        0.0000 
     54 DU         12.1300   69.4300   19.1800 H         7 CUB7        0.0000 
     55 DU         12.3200   68.4200   20.2700 H         7 CUB7        0.0000 
     56 DU         14.4000   68.3300   19.8300 H         7 CUB7        0.0000 
     57 DU         14.5900   67.3200   20.9200 H         7 CUB7        0.0000 
     58 DU         15.0700   68.5200   17.8300 H         7 CUB7        0.0000 
     59 DU         15.2600   67.5100   18.9200 H         7 CUB7        0.0000 
@<TRIPOS>BOND
@<TRIPOS>SUBSTRUCTURE
     1 SER1        1 GROUP   
     2 ALA2        8 GROUP   
     3 ASP3       12 GROUP   
     4 LYS4       24 GROUP   
     5 PHE5       27 GROUP   
     6 GLY6       32 GROUP   
     7 CUB7       54 GROUP   
@<TRIPOS>SET

