#    Name: 6kck_6_APC_CAVITY_N1_4
#    Modification time : Fri May 22 19:25:31 2020

@<TRIPOS>MOLECULE
6kck_6_APC_CAVITY_N1_4
   75     0     7     0     0
SMALL
NO_CHARGES


@<TRIPOS>ATOM
      1 OG         45.3400   58.1600   60.7000 O.3       1 SER1        0.0000 
      2 OG         46.0200   58.3500   58.7000 O.3       1 SER1        0.0000 
      3 OG         45.5100   60.7400   61.0000 O.3       1 SER1        0.0000 
      4 N          43.7800   55.8600   58.8400 N.am      2 ALA2        0.0000 
      5 O          44.4500   56.0500   56.8300 O.2       2 ALA2        0.0000 
      6 N          44.6400   55.0400   57.9200 N.am      2 ALA2        0.0000 
      7 O          45.1800   55.5900   60.4000 O.2       2 ALA2        0.0000 
      8 O          45.6600   56.7900   57.3100 O.2       2 ALA2        0.0000 
      9 O          46.0400   54.7700   59.4900 O.2       2 ALA2        0.0000 
     10 O          46.4000   56.3300   60.8800 O.2       2 ALA2        0.0000 
     11 N          47.2600   55.5100   59.9700 N.am      2 ALA2        0.0000 
     12 N          48.2800   57.2600   59.3500 N.am      2 ALA2        0.0000 
     13 N          49.4900   58.0000   59.8300 N.am      2 ALA2        0.0000 
     14 N          50.3600   57.1800   58.9200 N.am      2 ALA2        0.0000 
     15 N          50.3300   60.7700   58.1300 N.am      2 ALA2        0.0000 
     16 N          50.5200   59.7600   59.2200 N.am      2 ALA2        0.0000 
     17 O          50.7100   58.7400   60.3100 O.2       2 ALA2        0.0000 
     18 N          51.1900   59.9400   57.2100 N.am      2 ALA2        0.0000 
     19 N          50.8700   61.3200   60.6100 N.am      2 ALA2        0.0000 
     20 N          51.5400   61.5100   58.6000 N.am      2 ALA2        0.0000 
     21 OD1        47.0400   60.1100   58.0800 O.co2     3 ASP3        0.0000 
     22 OD1        47.7100   60.2900   56.0800 O.co2     3 ASP3        0.0000 
     23 OD1        47.9000   59.2800   57.1700 O.co2     3 ASP3        0.0000 
     24 OD1        47.2000   62.6800   58.3800 O.co2     3 ASP3        0.0000 
     25 OD1        47.3900   61.6700   59.4700 O.co2     3 ASP3        0.0000 
     26 OD1        48.0600   61.8600   57.4700 O.co2     3 ASP3        0.0000 
     27 OD1        49.1200   60.0300   57.6500 O.co2     3 ASP3        0.0000 
     28 NZ         46.5000   59.5500   55.6000 N.4       4 LYS4        0.0000 
     29 NZ         46.6900   58.5400   56.6900 N.4       4 LYS4        0.0000 
     30 CZ         44.1300   57.4200   60.2200 C.ar      5 PHE5        0.0000 
     31 CZ         44.9900   56.6000   59.3100 C.ar      5 PHE5        0.0000 
     32 CZ         45.5300   57.1500   61.7900 C.ar      5 PHE5        0.0000 
     33 CZ         44.6500   61.5600   61.9100 C.ar      5 PHE5        0.0000 
     34 CZ         44.8400   60.5500   63.0000 C.ar      5 PHE5        0.0000 
     35 CZ         45.7000   59.7300   62.0900 C.ar      5 PHE5        0.0000 
     36 CZ         46.5600   58.9100   61.1800 C.ar      5 PHE5        0.0000 
     37 CZ         47.4200   58.0800   60.2700 C.ar      5 PHE5        0.0000 
     38 CZ         47.6100   57.0700   61.3600 C.ar      5 PHE5        0.0000 
     39 CZ         46.0500   61.2900   63.4800 C.ar      5 PHE5        0.0000 
     40 CZ         46.7200   61.4800   61.4800 C.ar      5 PHE5        0.0000 
     41 CZ         47.5800   60.6600   60.5600 C.ar      5 PHE5        0.0000 
     42 CZ         47.7700   59.6500   61.6500 C.ar      5 PHE5        0.0000 
     43 CZ         48.6300   58.8200   60.7400 C.ar      5 PHE5        0.0000 
     44 CZ         48.1200   61.2100   63.0400 C.ar      5 PHE5        0.0000 
     45 CZ         48.8000   61.4000   61.0400 C.ar      5 PHE5        0.0000 
     46 CZ         49.8500   59.5700   61.2200 C.ar      5 PHE5        0.0000 
     47 CA         45.3100   55.2200   55.9200 C.3       6 GLY6        0.0000 
     48 CA         45.5000   54.2100   57.0100 C.3       6 GLY6        0.0000 
     49 CA         44.3200   56.4100   61.3200 C.3       6 GLY6        0.0000 
     50 CA         45.4700   57.8000   56.2200 C.3       6 GLY6        0.0000 
     51 CA         45.8500   55.7800   58.4000 C.3       6 GLY6        0.0000 
     52 CA         46.3400   56.9800   55.3100 C.3       6 GLY6        0.0000 
     53 CA         46.5300   55.9700   56.4000 C.3       6 GLY6        0.0000 
     54 CA         46.7100   54.9500   57.4900 C.3       6 GLY6        0.0000 
     55 CA         44.4800   58.9900   61.6100 C.3       6 GLY6        0.0000 
     56 CA         47.0700   56.5200   58.8800 C.3       6 GLY6        0.0000 
     57 CA         47.5500   57.7200   55.7800 C.3       6 GLY6        0.0000 
     58 CA         47.7400   56.7100   56.8700 C.3       6 GLY6        0.0000 
     59 CA         48.7600   58.4600   56.2600 C.3       6 GLY6        0.0000 
     60 CA         48.9500   57.4500   57.3500 C.3       6 GLY6        0.0000 
     61 CA         49.1400   56.4400   58.4400 C.3       6 GLY6        0.0000 
     62 CA         50.1700   58.1900   57.8300 C.3       6 GLY6        0.0000 
     63 CA         51.0600   60.3100   61.7000 C.3       6 GLY6        0.0000 
     64 DU         46.2100   57.3400   59.7900 H         7 CUB7        0.0000 
     65 DU         46.8800   57.5300   57.7900 H         7 CUB7        0.0000 
     66 DU         46.3700   59.9200   60.0900 H         7 CUB7        0.0000 
     67 DU         47.2300   59.0900   59.1700 H         7 CUB7        0.0000 
     68 DU         48.0900   58.2700   58.2600 H         7 CUB7        0.0000 
     69 DU         45.8600   62.3000   62.3900 H         7 CUB7        0.0000 
     70 DU         48.2500   60.8500   58.5600 H         7 CUB7        0.0000 
     71 DU         48.4400   59.8400   59.6500 H         7 CUB7        0.0000 
     72 DU         49.3000   59.0100   58.7400 H         7 CUB7        0.0000 
     73 DU         48.6100   62.4100   59.9500 H         7 CUB7        0.0000 
     74 DU         49.4700   61.5900   59.0400 H         7 CUB7        0.0000 
     75 DU         49.6600   60.5800   60.1300 H         7 CUB7        0.0000 
@<TRIPOS>BOND
@<TRIPOS>SUBSTRUCTURE
     1 SER1        1 GROUP   
     2 ALA2        4 GROUP   
     3 ASP3       21 GROUP   
     4 LYS4       28 GROUP   
     5 PHE5       30 GROUP   
     6 GLY6       47 GROUP   
     7 CUB7       64 GROUP   
@<TRIPOS>SET

