#    Name: 6kck_5_PHB
#    Modification time : Fri May 22 19:25:21 2020

@<TRIPOS>MOLECULE
6kck_5_PHB
   10    10     1     0     0
SMALL
NO_CHARGES


@<TRIPOS>ATOM
      1 C1'         7.6430   66.6850   22.3300 C.2       1 PHB802      0.0000 
      2 O1'         7.2310   67.7580   21.8470 O.co2     1 PHB802      0.0000 
      3 O2'         6.9410   65.9860   23.0860 O.co2     1 PHB802      0.0000 
      4 C1          9.0150   66.2320   21.9910 C.ar      1 PHB802      0.0000 
      5 C2          9.4510   65.0230   22.5450 C.ar      1 PHB802      0.0000 
      6 C3         10.7190   64.5330   22.2470 C.ar      1 PHB802      0.0000 
      7 C4         11.5340   65.2790   21.4150 C.ar      1 PHB802      0.0000 
      8 C5         11.1060   66.4960   20.8580 C.ar      1 PHB802      0.0000 
      9 C6          9.8330   66.9920   21.1430 C.ar      1 PHB802      0.0000 
     10 O4         12.7650   64.7870   21.1380 O.3       1 PHB802      0.0000 
@<TRIPOS>BOND
     1    1    2 ar   
     2    1    3 ar   
     3    1    4 1    
     4    4    5 ar   
     5    4    9 ar   
     6    5    6 ar   
     7    6    7 ar   
     8    7    8 ar   
     9    7   10 1    
    10    8    9 ar   
@<TRIPOS>SUBSTRUCTURE
     1 PHB802      1 GROUP   
@<TRIPOS>SET

