#    Name: 6pvh_1_FAD
#    Modification time : Fri May 22 19:35:23 2020

@<TRIPOS>MOLECULE
6pvh_1_FAD
   53    58     1     0     1
SMALL
NO_CHARGES


@<TRIPOS>ATOM
      1 PA         38.7550   59.3130   39.6800 P.3       1 FAD502      0.0000 
      2 O1A        39.8100   58.4330   40.2000 O.co2     1 FAD502      0.0000 
      3 O2A        38.7090   59.5600   38.2000 O.co2     1 FAD502      0.0000 
      4 O5B        38.8850   60.6930   40.4120 O.3       1 FAD502      0.0000 
      5 C5B        39.1860   60.7590   41.8180 C.3       1 FAD502      0.0000 
      6 C4B        39.7590   62.1270   42.1170 C.3       1 FAD502      0.0000 
      7 O4B        39.7280   62.3540   43.5420 O.3       1 FAD502      0.0000 
      8 C3B        41.2080   62.3610   41.6770 C.3       1 FAD502      0.0000 
      9 O3B        41.2670   63.5920   40.9640 O.3       1 FAD502      0.0000 
     10 C2B        41.9830   62.4110   43.0020 C.3       1 FAD502      0.0000 
     11 O2B        43.0850   63.3100   42.9840 O.3       1 FAD502      0.0000 
     12 C1B        40.9240   62.9910   43.9230 C.3       1 FAD502      0.0000 
     13 N9A        41.1220   62.7520   45.3430 N.pl3     1 FAD502      0.0000 
     14 C8A        41.3590   61.5460   45.9470 C.2       1 FAD502      0.0000 
     15 N7A        41.4510   61.6100   47.2510 N.2       1 FAD502      0.0000 
     16 C5A        41.2460   62.9560   47.5280 C.ar      1 FAD502      0.0000 
     17 C6A        41.2190   63.6860   48.7330 C.ar      1 FAD502      0.0000 
     18 N6A        41.4010   63.1410   49.9380 N.pl3     1 FAD502      0.0000 
     19 N1A        40.9830   65.0140   48.6580 N.ar      1 FAD502      0.0000 
     20 C2A        40.7930   65.5680   47.4600 C.ar      1 FAD502      0.0000 
     21 N3A        40.7970   64.9840   46.2590 N.ar      1 FAD502      0.0000 
     22 C4A        41.0270   63.6680   46.3620 C.ar      1 FAD502      0.0000 
     23 N1         40.0640   55.5570   33.3330 N.2       1 FAD502      0.0000 
     24 C2         40.0750   55.1190   32.0430 C.2       1 FAD502      0.0000 
     25 O2         39.1960   54.3440   31.6230 O.2       1 FAD502      0.0000 
     26 N3         41.0790   55.5550   31.1900 N.am      1 FAD502      0.0000 
     27 C4         42.1140   56.4220   31.5220 C.2       1 FAD502      0.0000 
     28 O4         42.9560   56.7350   30.6830 O.2       1 FAD502      0.0000 
     29 C4X        42.0740   56.8810   32.8980 C.2       1 FAD502      0.0000 
     30 N5         43.0050   57.7020   33.3030 N.2       1 FAD502      0.0000 
     31 C5X        42.9600   58.1330   34.6220 C.ar      1 FAD502      0.0000 
     32 C6         43.9370   59.0220   35.0800 C.ar      1 FAD502      0.0000 
     33 C7         43.9220   59.4820   36.3950 C.ar      1 FAD502      0.0000 
     34 C7M        44.9940   60.4310   36.8610 C.3       1 FAD502      0.0000 
     35 C8         42.9080   59.0540   37.2720 C.ar      1 FAD502      0.0000 
     36 C8M        42.8650   59.5270   38.7020 C.3       1 FAD502      0.0000 
     37 C9         41.9320   58.1750   36.8170 C.ar      1 FAD502      0.0000 
     38 C9A        41.9530   57.7140   35.5060 C.ar      1 FAD502      0.0000 
     39 N10        40.9730   56.8300   35.0210 N.pl3     1 FAD502      0.0000 
     40 C10        41.0080   56.3870   33.7270 C.2       1 FAD502      0.0000 
     41 C1'        39.8830   56.3690   35.8900 C.3       1 FAD502      0.0000 
     42 C2'        38.5630   57.1110   35.6630 C.3       1 FAD502      0.0000 
     43 O2'        38.6640   58.5000   36.0040 O.3       1 FAD502      0.0000 
     44 C3'        37.4780   56.4570   36.5220 C.3       1 FAD502      0.0000 
     45 O3'        37.5680   55.0490   36.3510 O.3       1 FAD502      0.0000 
     46 C4'        36.0410   56.9030   36.2440 C.3       1 FAD502      0.0000 
     47 O4'        35.8970   57.2120   34.8600 O.3       1 FAD502      0.0000 
     48 C5'        35.6210   58.0740   37.1080 C.3       1 FAD502      0.0000 
     49 O5'        35.8980   57.7560   38.4860 O.3       1 FAD502      0.0000 
     50 P          35.8580   58.8600   39.6240 P.3       1 FAD502      0.0000 
     51 O1P        34.9170   58.2990   40.6900 O.co2     1 FAD502      0.0000 
     52 O2P        35.5520   60.2130   39.0880 O.co2     1 FAD502      0.0000 
     53 O3P        37.3440   58.8220   40.2140 O.3       1 FAD502      0.0000 
@<TRIPOS>BOND
     1    1    2 ar   
     2    1    3 ar   
     3    1    4 1    
     4    1   53 1    
     5    4    5 1    
     6    5    6 1    
     7    6    7 1    
     8    6    8 1    
     9    7   12 1    
    10    8    9 1    
    11    8   10 1    
    12   10   11 1    
    13   10   12 1    
    14   12   13 1    
    15   13   14 1    
    16   13   22 1    
    17   14   15 2    
    18   15   16 1    
    19   16   17 ar   
    20   16   22 ar   
    21   17   18 1    
    22   17   19 ar   
    23   19   20 ar   
    24   20   21 ar   
    25   21   22 ar   
    26   23   24 1    
    27   23   40 2    
    28   24   25 2    
    29   24   26 am   
    30   26   27 am   
    31   27   28 2    
    32   27   29 1    
    33   29   30 2    
    34   29   40 1    
    35   30   31 1    
    36   31   32 ar   
    37   31   38 ar   
    38   32   33 ar   
    39   33   34 1    
    40   33   35 ar   
    41   35   36 1    
    42   35   37 ar   
    43   37   38 ar   
    44   38   39 1    
    45   39   40 1    
    46   39   41 1    
    47   41   42 1    
    48   42   43 1    
    49   42   44 1    
    50   44   45 1    
    51   44   46 1    
    52   46   47 1    
    53   46   48 1    
    54   48   49 1    
    55   49   50 1    
    56   50   51 ar   
    57   50   52 ar   
    58   50   53 1    
@<TRIPOS>SUBSTRUCTURE
     1 FAD502      1 GROUP   
@<TRIPOS>SET
ATOM$ORANGE STATIC     ATOMS   COLORGROUP SYSTEM 
54 5 5 6 6 8 8 10 10 12 12 14 14 16 16 17 17 20 \
20 22 22 24 24 27 27 29 29 31 31 32 32 33 33 34 34 35 \
35 36 36 37 37 38 38 40 40 41 41 42 42 44 44 46 46 48 \
48 

