#    Name: 6fp3_1_FAD
#    Modification time : Fri May 22 19:28:49 2020

@<TRIPOS>MOLECULE
6fp3_1_FAD
   53    58     1     0     1
SMALL
NO_CHARGES


@<TRIPOS>ATOM
      1 PA        -11.0690 -119.2370  170.4990 P.3       1 FAD501      0.0000 
      2 O1A       -10.9970 -117.7980  170.1460 O.co2     1 FAD501      0.0000 
      3 O2A       -10.0210 -119.7440  171.4660 O.co2     1 FAD501      0.0000 
      4 O5B       -12.4770 -119.6250  171.1610 O.3       1 FAD501      0.0000 
      5 C5B       -13.7210 -119.4280  170.4550 C.3       1 FAD501      0.0000 
      6 C4B       -14.8940 -119.4690  171.4060 C.3       1 FAD501      0.0000 
      7 O4B       -14.9670 -120.7620  172.0410 O.3       1 FAD501      0.0000 
      8 C3B       -14.8810 -118.4550  172.5440 C.3       1 FAD501      0.0000 
      9 O3B       -16.2170 -118.0990  172.8860 O.3       1 FAD501      0.0000 
     10 C2B       -14.1880 -119.2280  173.6720 C.3       1 FAD501      0.0000 
     11 O2B       -14.6300 -118.7600  174.9430 O.3       1 FAD501      0.0000 
     12 C1B       -14.7080 -120.6440  173.4270 C.3       1 FAD501      0.0000 
     13 N9A       -13.8290 -121.7530  173.7990 N.pl3     1 FAD501      0.0000 
     14 C8A       -12.6830 -122.1670  173.1740 C.2       1 FAD501      0.0000 
     15 N7A       -12.1530 -123.2520  173.7020 N.2       1 FAD501      0.0000 
     16 C5A       -13.0320 -123.5790  174.7250 C.ar      1 FAD501      0.0000 
     17 C6A       -13.0410 -124.6250  175.6750 C.ar      1 FAD501      0.0000 
     18 N6A       -12.1150 -125.5840  175.7400 N.pl3     1 FAD501      0.0000 
     19 N1A       -14.0690 -124.6540  176.5560 N.ar      1 FAD501      0.0000 
     20 C2A       -15.0050 -123.7060  176.4940 C.ar      1 FAD501      0.0000 
     21 N3A       -15.0990 -122.6790  175.6470 N.ar      1 FAD501      0.0000 
     22 C4A       -14.0780 -122.6710  174.7800 C.ar      1 FAD501      0.0000 
     23 N1        -14.9220 -123.7090  161.6070 N.2       1 FAD501      0.0000 
     24 C2        -15.4010 -124.8680  161.0700 C.2       1 FAD501      0.0000 
     25 O2        -16.4310 -125.3960  161.4970 O.2       1 FAD501      0.0000 
     26 N3        -14.7210 -125.4750  160.0220 N.am      1 FAD501      0.0000 
     27 C4        -13.5610 -125.0220  159.4400 C.2       1 FAD501      0.0000 
     28 O4        -13.0420 -125.6400  158.5100 O.2       1 FAD501      0.0000 
     29 C4X       -13.0620 -123.7900  160.0190 C.2       1 FAD501      0.0000 
     30 N5        -11.9710 -123.2820  159.5190 N.2       1 FAD501      0.0000 
     31 C5X       -11.4780 -122.1350  160.0850 C.ar      1 FAD501      0.0000 
     32 C6        -10.2990 -121.5880  159.5820 C.ar      1 FAD501      0.0000 
     33 C7         -9.7800 -120.4140  160.1190 C.ar      1 FAD501      0.0000 
     34 C7M        -8.5070 -119.8340  159.5580 C.3       1 FAD501      0.0000 
     35 C8        -10.4500 -119.7860  161.1800 C.ar      1 FAD501      0.0000 
     36 C8M        -9.9640 -118.5010  161.7590 C.3       1 FAD501      0.0000 
     37 C9        -11.6170 -120.3300  161.6880 C.ar      1 FAD501      0.0000 
     38 C9A       -12.1340 -121.4920  161.1460 C.ar      1 FAD501      0.0000 
     39 N10       -13.3130 -122.0590  161.6460 N.pl3     1 FAD501      0.0000 
     40 C10       -13.8130 -123.2130  161.1060 C.2       1 FAD501      0.0000 
     41 C1'       -14.0550 -121.3990  162.7350 C.3       1 FAD501      0.0000 
     42 C2'       -13.8000 -122.0040  164.1070 C.3       1 FAD501      0.0000 
     43 O2'       -14.6890 -123.0970  164.3390 O.3       1 FAD501      0.0000 
     44 C3'       -14.0690 -120.9460  165.1770 C.3       1 FAD501      0.0000 
     45 O3'       -13.2740 -119.7940  164.9130 O.3       1 FAD501      0.0000 
     46 C4'       -13.7430 -121.4630  166.5750 C.3       1 FAD501      0.0000 
     47 O4'       -14.4110 -120.6950  167.5780 O.3       1 FAD501      0.0000 
     48 C5'       -12.2490 -121.5010  166.7960 C.3       1 FAD501      0.0000 
     49 O5'       -11.9720 -122.0510  168.0970 O.3       1 FAD501      0.0000 
     50 P         -10.6800 -121.6230  168.8860 P.3       1 FAD501      0.0000 
     51 O1P       -10.6410 -122.4070  170.2010 O.co2     1 FAD501      0.0000 
     52 O2P        -9.5390 -121.6770  167.9510 O.co2     1 FAD501      0.0000 
     53 O3P       -11.0470 -120.1090  169.1770 O.3       1 FAD501      0.0000 
@<TRIPOS>BOND
     1    1    2 ar   
     2    1    3 ar   
     3    1    4 1    
     4    1   53 1    
     5    4    5 1    
     6    5    6 1    
     7    6    7 1    
     8    6    8 1    
     9    7   12 1    
    10    8    9 1    
    11    8   10 1    
    12   10   11 1    
    13   10   12 1    
    14   12   13 1    
    15   13   14 1    
    16   13   22 1    
    17   14   15 2    
    18   15   16 1    
    19   16   17 ar   
    20   16   22 ar   
    21   17   18 1    
    22   17   19 ar   
    23   19   20 ar   
    24   20   21 ar   
    25   21   22 ar   
    26   23   24 1    
    27   23   40 2    
    28   24   25 2    
    29   24   26 am   
    30   26   27 am   
    31   27   28 2    
    32   27   29 1    
    33   29   30 2    
    34   29   40 1    
    35   30   31 1    
    36   31   32 ar   
    37   31   38 ar   
    38   32   33 ar   
    39   33   34 1    
    40   33   35 ar   
    41   35   36 1    
    42   35   37 ar   
    43   37   38 ar   
    44   38   39 1    
    45   39   40 1    
    46   39   41 1    
    47   41   42 1    
    48   42   43 1    
    49   42   44 1    
    50   44   45 1    
    51   44   46 1    
    52   46   47 1    
    53   46   48 1    
    54   48   49 1    
    55   49   50 1    
    56   50   51 ar   
    57   50   52 ar   
    58   50   53 1    
@<TRIPOS>SUBSTRUCTURE
     1 FAD501      1 GROUP   
@<TRIPOS>SET
ATOM$ORANGE STATIC     ATOMS   COLORGROUP SYSTEM 
54 5 5 6 6 8 8 10 10 12 12 14 14 16 16 17 17 20 \
20 22 22 24 24 27 27 29 29 31 31 32 32 33 33 34 34 35 \
35 36 36 37 37 38 38 40 40 41 41 42 42 44 44 46 46 48 \
48 

