#    Name: 6fp3_3_FAD
#    Modification time : Fri May 22 19:29:06 2020

@<TRIPOS>MOLECULE
6fp3_3_FAD
   53    58     1     0     1
SMALL
NO_CHARGES


@<TRIPOS>ATOM
      1 PA        -52.2480 -186.2140  157.3330 P.3       1 FAD501      0.0000 
      2 O1A       -52.1640 -187.6600  157.6390 O.co2     1 FAD501      0.0000 
      3 O2A       -51.1180 -185.6540  156.4800 O.co2     1 FAD501      0.0000 
      4 O5B       -53.6140 -185.8760  156.6190 O.3       1 FAD501      0.0000 
      5 C5B       -54.8760 -186.0480  157.2930 C.3       1 FAD501      0.0000 
      6 C4B       -56.0090 -185.9320  156.3030 C.3       1 FAD501      0.0000 
      7 O4B       -56.0420 -184.6010  155.7420 O.3       1 FAD501      0.0000 
      8 C3B       -55.9530 -186.8680  155.1030 C.3       1 FAD501      0.0000 
      9 O3B       -57.2860 -187.1120  154.6700 O.3       1 FAD501      0.0000 
     10 C2B       -55.1790 -186.0370  154.0750 C.3       1 FAD501      0.0000 
     11 O2B       -55.5110 -186.4230  152.7480 O.3       1 FAD501      0.0000 
     12 C1B       -55.7310 -184.6420  154.3590 C.3       1 FAD501      0.0000 
     13 N9A       -54.8440 -183.5130  154.0810 N.pl3     1 FAD501      0.0000 
     14 C8A       -53.7110 -183.1620  154.7640 C.2       1 FAD501      0.0000 
     15 N7A       -53.1570 -182.0470  154.3390 N.2       1 FAD501      0.0000 
     16 C5A       -54.0060 -181.6280  153.3250 C.ar      1 FAD501      0.0000 
     17 C6A       -53.9820 -180.5070  152.4680 C.ar      1 FAD501      0.0000 
     18 N6A       -53.0440 -179.5650  152.5060 N.pl3     1 FAD501      0.0000 
     19 N1A       -54.9840 -180.3860  151.5680 N.ar      1 FAD501      0.0000 
     20 C2A       -55.9320 -181.3230  151.5270 C.ar      1 FAD501      0.0000 
     21 N3A       -56.0630 -182.4120  152.2870 N.ar      1 FAD501      0.0000 
     22 C4A       -55.0610 -182.5130  153.1710 C.ar      1 FAD501      0.0000 
     23 N1        -56.5230 -182.3110  166.2830 N.2       1 FAD501      0.0000 
     24 C2        -57.0420 -181.2040  166.8870 C.2       1 FAD501      0.0000 
     25 O2        -58.0490 -180.6430  166.4500 O.2       1 FAD501      0.0000 
     26 N3        -56.4290 -180.6860  168.0160 N.am      1 FAD501      0.0000 
     27 C4        -55.2980 -181.1840  168.6240 C.2       1 FAD501      0.0000 
     28 O4        -54.8370 -180.6440  169.6270 O.2       1 FAD501      0.0000 
     29 C4X       -54.7500 -182.3530  167.9690 C.2       1 FAD501      0.0000 
     30 N5        -53.6800 -182.9020  168.4900 N.2       1 FAD501      0.0000 
     31 C5X       -53.1520 -184.0030  167.8560 C.ar      1 FAD501      0.0000 
     32 C6        -51.9960 -184.5890  168.3700 C.ar      1 FAD501      0.0000 
     33 C7        -51.4430 -185.7130  167.7670 C.ar      1 FAD501      0.0000 
     34 C7M       -50.1970 -186.3320  168.3460 C.3       1 FAD501      0.0000 
     35 C8        -52.0510 -186.2520  166.6210 C.ar      1 FAD501      0.0000 
     36 C8M       -51.5150 -187.4760  165.9570 C.3       1 FAD501      0.0000 
     37 C9        -53.1890 -185.6620  166.0980 C.ar      1 FAD501      0.0000 
     38 C9A       -53.7450 -184.5520  166.7070 C.ar      1 FAD501      0.0000 
     39 N10       -54.8980 -183.9390  166.1910 N.pl3     1 FAD501      0.0000 
     40 C10       -55.4380 -182.8420  166.8010 C.2       1 FAD501      0.0000 
     41 C1'       -55.5890 -184.5110  165.0180 C.3       1 FAD501      0.0000 
     42 C2'       -55.3170 -183.7890  163.7090 C.3       1 FAD501      0.0000 
     43 O2'       -56.2230 -182.6950  163.5580 O.3       1 FAD501      0.0000 
     44 C3'       -55.5710 -184.7640  162.5610 C.3       1 FAD501      0.0000 
     45 O3'       -54.8130 -185.9460  162.8020 O.3       1 FAD501      0.0000 
     46 C4'       -55.1620 -184.2110  161.2010 C.3       1 FAD501      0.0000 
     47 O4'       -55.7160 -185.0370  160.1760 O.3       1 FAD501      0.0000 
     48 C5'       -53.6550 -184.1460  161.1020 C.3       1 FAD501      0.0000 
     49 O5'       -53.2830 -183.4800  159.8820 O.3       1 FAD501      0.0000 
     50 P         -51.9830 -183.8990  159.1050 P.3       1 FAD501      0.0000 
     51 O1P       -51.8360 -183.0280  157.8540 O.co2     1 FAD501      0.0000 
     52 O2P       -50.8610 -183.9390  160.0920 O.co2     1 FAD501      0.0000 
     53 O3P       -52.3680 -185.3880  158.6820 O.3       1 FAD501      0.0000 
@<TRIPOS>BOND
     1    1    2 ar   
     2    1    3 ar   
     3    1    4 1    
     4    1   53 1    
     5    4    5 1    
     6    5    6 1    
     7    6    7 1    
     8    6    8 1    
     9    7   12 1    
    10    8    9 1    
    11    8   10 1    
    12   10   11 1    
    13   10   12 1    
    14   12   13 1    
    15   13   14 1    
    16   13   22 1    
    17   14   15 2    
    18   15   16 1    
    19   16   17 ar   
    20   16   22 ar   
    21   17   18 1    
    22   17   19 ar   
    23   19   20 ar   
    24   20   21 ar   
    25   21   22 ar   
    26   23   24 1    
    27   23   40 2    
    28   24   25 2    
    29   24   26 am   
    30   26   27 am   
    31   27   28 2    
    32   27   29 1    
    33   29   30 2    
    34   29   40 1    
    35   30   31 1    
    36   31   32 ar   
    37   31   38 ar   
    38   32   33 ar   
    39   33   34 1    
    40   33   35 ar   
    41   35   36 1    
    42   35   37 ar   
    43   37   38 ar   
    44   38   39 1    
    45   39   40 1    
    46   39   41 1    
    47   41   42 1    
    48   42   43 1    
    49   42   44 1    
    50   44   45 1    
    51   44   46 1    
    52   46   47 1    
    53   46   48 1    
    54   48   49 1    
    55   49   50 1    
    56   50   51 ar   
    57   50   52 ar   
    58   50   53 1    
@<TRIPOS>SUBSTRUCTURE
     1 FAD501      1 GROUP   
@<TRIPOS>SET
ATOM$ORANGE STATIC     ATOMS   COLORGROUP SYSTEM 
54 5 5 6 6 8 8 10 10 12 12 14 14 16 16 17 17 20 \
20 22 22 24 24 27 27 29 29 31 31 32 32 33 33 34 34 35 \
35 36 36 37 37 38 38 40 40 41 41 42 42 44 44 46 46 48 \
48 

