#    Name: 6fp3_2_FAD
#    Modification time : Fri May 22 19:28:57 2020

@<TRIPOS>MOLECULE
6fp3_2_FAD
   53    58     1     0     1
SMALL
NO_CHARGES


@<TRIPOS>ATOM
      1 PA         11.4110 -142.9650  171.4940 P.3       1 FAD501      0.0000 
      2 O1A        11.3580 -144.4270  171.2810 O.co2     1 FAD501      0.0000 
      3 O2A        10.3430 -142.3950  172.4080 O.co2     1 FAD501      0.0000 
      4 O5B        12.8050 -142.4690  172.0960 O.3       1 FAD501      0.0000 
      5 C5B        14.0430 -142.6600  171.3800 C.3       1 FAD501      0.0000 
      6 C4B        15.2240 -142.4890  172.3080 C.3       1 FAD501      0.0000 
      7 O4B        15.2780 -141.1350  172.8050 O.3       1 FAD501      0.0000 
      8 C3B        15.2470 -143.3740  173.5480 C.3       1 FAD501      0.0000 
      9 O3B        16.6030 -143.6300  173.8980 O.3       1 FAD501      0.0000 
     10 C2B        14.5510 -142.4970  174.5950 C.3       1 FAD501      0.0000 
     11 O2B        15.0170 -142.8410  175.8940 O.3       1 FAD501      0.0000 
     12 C1B        15.0560 -141.1080  174.2030 C.3       1 FAD501      0.0000 
     13 N9A        14.1770 -139.9650  174.4800 N.pl3     1 FAD501      0.0000 
     14 C8A        13.0210 -139.6260  173.8270 C.2       1 FAD501      0.0000 
     15 N7A        12.4860 -138.4960  174.2400 N.2       1 FAD501      0.0000 
     16 C5A        13.3760 -138.0480  175.2050 C.ar      1 FAD501      0.0000 
     17 C6A        13.3860 -136.9040  176.0330 C.ar      1 FAD501      0.0000 
     18 N6A        12.4480 -135.9570  176.0100 N.pl3     1 FAD501      0.0000 
     19 N1A        14.4190 -136.7670  176.8940 N.ar      1 FAD501      0.0000 
     20 C2A        15.3630 -137.7080  176.9270 C.ar      1 FAD501      0.0000 
     21 N3A        15.4590 -138.8210  176.1990 N.ar      1 FAD501      0.0000 
     22 C4A        14.4280 -138.9390  175.3530 C.ar      1 FAD501      0.0000 
     23 N1         15.0000 -139.4390  162.0810 N.2       1 FAD501      0.0000 
     24 C2         15.4670 -138.3520  161.3990 C.2       1 FAD501      0.0000 
     25 O2         16.5040 -137.7760  161.7350 O.2       1 FAD501      0.0000 
     26 N3         14.7660 -137.8750  160.3060 N.am      1 FAD501      0.0000 
     27 C4         13.5920 -138.3910  159.8100 C.2       1 FAD501      0.0000 
     28 O4         13.0640 -137.8940  158.8200 O.2       1 FAD501      0.0000 
     29 C4X        13.1060 -139.5480  160.5360 C.2       1 FAD501      0.0000 
     30 N5         12.0140 -140.1150  160.1180 N.2       1 FAD501      0.0000 
     31 C5X        11.5350 -141.1980  160.8250 C.ar      1 FAD501      0.0000 
     32 C6         10.3450 -141.7970  160.4140 C.ar      1 FAD501      0.0000 
     33 C7          9.8320 -142.8960  161.0920 C.ar      1 FAD501      0.0000 
     34 C7M         8.5510 -143.5320  160.6170 C.3       1 FAD501      0.0000 
     35 C8         10.5240 -143.4040  162.2040 C.ar      1 FAD501      0.0000 
     36 C8M        10.0380 -144.6090  162.9340 C.3       1 FAD501      0.0000 
     37 C9         11.7040 -142.8060  162.6230 C.ar      1 FAD501      0.0000 
     38 C9A        12.2130 -141.7120  161.9420 C.ar      1 FAD501      0.0000 
     39 N10        13.3960 -141.0750  162.3510 N.pl3     1 FAD501      0.0000 
     40 C10        13.8800 -139.9950  161.6650 C.2       1 FAD501      0.0000 
     41 C1'        14.1780 -141.5950  163.4860 C.3       1 FAD501      0.0000 
     42 C2'        13.9440 -140.8570  164.7960 C.3       1 FAD501      0.0000 
     43 O2'        14.7930 -139.7140  164.8900 O.3       1 FAD501      0.0000 
     44 C3'        14.2980 -141.7950  165.9490 C.3       1 FAD501      0.0000 
     45 O3'        13.4910 -142.9580  165.8170 O.3       1 FAD501      0.0000 
     46 C4'        14.0370 -141.2010  167.3280 C.3       1 FAD501      0.0000 
     47 O4'        14.7100 -141.9840  168.3130 O.3       1 FAD501      0.0000 
     48 C5'        12.5470 -141.1600  167.5830 C.3       1 FAD501      0.0000 
     49 O5'        12.2890 -140.4380  168.8010 O.3       1 FAD501      0.0000 
     50 P          11.0080 -140.7490  169.6510 P.3       1 FAD501      0.0000 
     51 O1P        10.9330 -139.8190  170.8650 O.co2     1 FAD501      0.0000 
     52 O2P         9.8310 -140.7720  168.7180 O.co2     1 FAD501      0.0000 
     53 O3P        11.3580 -142.2270  170.0930 O.3       1 FAD501      0.0000 
@<TRIPOS>BOND
     1    1    2 ar   
     2    1    3 ar   
     3    1    4 1    
     4    1   53 1    
     5    4    5 1    
     6    5    6 1    
     7    6    7 1    
     8    6    8 1    
     9    7   12 1    
    10    8    9 1    
    11    8   10 1    
    12   10   11 1    
    13   10   12 1    
    14   12   13 1    
    15   13   14 1    
    16   13   22 1    
    17   14   15 2    
    18   15   16 1    
    19   16   17 ar   
    20   16   22 ar   
    21   17   18 1    
    22   17   19 ar   
    23   19   20 ar   
    24   20   21 ar   
    25   21   22 ar   
    26   23   24 1    
    27   23   40 2    
    28   24   25 2    
    29   24   26 am   
    30   26   27 am   
    31   27   28 2    
    32   27   29 1    
    33   29   30 2    
    34   29   40 1    
    35   30   31 1    
    36   31   32 ar   
    37   31   38 ar   
    38   32   33 ar   
    39   33   34 1    
    40   33   35 ar   
    41   35   36 1    
    42   35   37 ar   
    43   37   38 ar   
    44   38   39 1    
    45   39   40 1    
    46   39   41 1    
    47   41   42 1    
    48   42   43 1    
    49   42   44 1    
    50   44   45 1    
    51   44   46 1    
    52   46   47 1    
    53   46   48 1    
    54   48   49 1    
    55   49   50 1    
    56   50   51 ar   
    57   50   52 ar   
    58   50   53 1    
@<TRIPOS>SUBSTRUCTURE
     1 FAD501      1 GROUP   
@<TRIPOS>SET
ATOM$ORANGE STATIC     ATOMS   COLORGROUP SYSTEM 
54 5 5 6 6 8 8 10 10 12 12 14 14 16 16 17 17 20 \
20 22 22 24 24 27 27 29 29 31 31 32 32 33 33 34 34 35 \
35 36 36 37 37 38 38 40 40 41 41 42 42 44 44 46 46 48 \
48 

