#    Name: 5zc6_1_GNP
#    Modification time : Fri May 22 19:24:29 2020

@<TRIPOS>MOLECULE
5zc6_1_GNP
   45    47     1     0     1
SMALL
NO_CHARGES


@<TRIPOS>ATOM
      1 PG         -8.4060    8.1760    8.6190 P.3       1 GNP201      0.0000 
      2 O1G        -8.5430    6.7500    8.1360 O.co2     1 GNP201      0.0000 
      3 O2G        -6.9720    8.6400    8.5360 O.co2     1 GNP201      0.0000 
      4 O3G        -8.9290    8.3070   10.0320 O.co2     1 GNP201      0.0000 
      5 N3B        -9.3080    9.0960    7.6390 N.3       1 GNP201      0.0000 
      6 PB         -8.8540    9.2690    6.0870 P.3       1 GNP201      0.0000 
      7 O1B       -10.0590    9.1240    5.1680 O.co2     1 GNP201      0.0000 
      8 O2B        -7.8320    8.2050    5.7120 O.co2     1 GNP201      0.0000 
      9 O3A        -8.2370   10.6530    5.8450 O.3       1 GNP201      0.0000 
     10 PA         -6.7700   11.0400    6.1340 P.3       1 GNP201      0.0000 
     11 O1A        -5.9170    9.7990    6.3750 O.co2     1 GNP201      0.0000 
     12 O2A        -6.6760   11.9290    7.3710 O.co2     1 GNP201      0.0000 
     13 O5'        -6.1490   11.8340    4.9670 O.3       1 GNP201      0.0000 
     14 C5'        -7.0020   12.6640    4.1390 C.3       1 GNP201      0.0000 
     15 C4'        -6.1850   13.8990    3.7190 C.3       1 GNP201      0.0000 
     16 O4'        -5.1000   13.4790    2.8900 O.3       1 GNP201      0.0000 
     17 C3'        -6.9340   14.9770    2.8990 C.3       1 GNP201      0.0000 
     18 O3'        -6.5440   16.2520    3.4100 O.3       1 GNP201      0.0000 
     19 C2'        -6.4340   14.7650    1.4740 C.3       1 GNP201      0.0000 
     20 O2'        -6.6480   15.9370    0.6930 O.3       1 GNP201      0.0000 
     21 C1'        -4.9820   14.3340    1.7430 C.3       1 GNP201      0.0000 
     22 N9         -4.3670   13.5700    0.6130 N.pl3     1 GNP201      0.0000 
     23 C8         -4.2530   12.2000    0.4980 C.2       1 GNP201      0.0000 
     24 N7         -3.6560   11.8070   -0.5910 N.2       1 GNP201      0.0000 
     25 C5         -3.3240   12.9830   -1.2640 C.2       1 GNP201      0.0000 
     26 C6         -2.6390   13.2270   -2.5210 C.2       1 GNP201      0.0000 
     27 O6         -2.1790   12.4410   -3.3360 O.2       1 GNP201      0.0000 
     28 N1         -2.4810   14.5720   -2.8330 N.am      1 GNP201      0.0000 
     29 C2         -2.9300   15.5970   -2.0480 C.2       1 GNP201      0.0000 
     30 N2         -2.7010   16.8310   -2.4450 N.pl3     1 GNP201      0.0000 
     31 N3         -3.5880   15.4070   -0.8820 N.2       1 GNP201      0.0000 
     32 C4         -3.7550   14.0780   -0.5280 C.2       1 GNP201      0.0000 
     33 HNB3      -10.3020    9.1260    7.8540 H         1 GNP201      0.0000 
     34 H5'2       -7.8860   12.9760    4.7110 H         1 GNP201      0.0000 
     35 H5'1       -7.3460   12.1100    3.2620 H         1 GNP201      0.0000 
     36 H4'        -5.7900   14.3530    4.6470 H         1 GNP201      0.0000 
     37 H3'        -8.0210   14.8490    2.9420 H         1 GNP201      0.0000 
     38 HO3'       -5.5790   16.3480    3.3880 H         1 GNP201      0.0000 
     39 H2'        -7.0070   13.9300    1.0370 H         1 GNP201      0.0000 
     40 HO2'       -6.7690   15.7020   -0.2460 H         1 GNP201      0.0000 
     41 H1'        -4.3780   15.2210    1.9730 H         1 GNP201      0.0000 
     42 H8         -4.6220   11.4980    1.2400 H         1 GNP201      0.0000 
     43 HN1        -1.9960   14.7290   -3.6950 H         1 GNP201      0.0000 
     44 HN21       -2.2130   17.0450   -3.3010 H         1 GNP201      0.0000 
     45 HN22       -3.0120   17.5950   -1.8650 H         1 GNP201      0.0000 
@<TRIPOS>BOND
     1    1    2 ar   
     2    1    3 ar   
     3    1    4 ar   
     4    1    5 1    
     5    5    6 1    
     6    5   33 1    
     7    6    7 ar   
     8    6    8 ar   
     9    6    9 1    
    10    9   10 1    
    11   10   11 ar   
    12   10   12 ar   
    13   10   13 1    
    14   13   14 1    
    15   14   15 1    
    16   14   34 1    
    17   14   35 1    
    18   15   16 1    
    19   15   17 1    
    20   15   36 1    
    21   16   21 1    
    22   17   18 1    
    23   17   19 1    
    24   17   37 1    
    25   18   38 1    
    26   19   20 1    
    27   19   21 1    
    28   19   39 1    
    29   20   40 1    
    30   21   22 1    
    31   21   41 1    
    32   22   23 1    
    33   22   32 1    
    34   23   24 2    
    35   23   42 1    
    36   24   25 1    
    37   25   26 1    
    38   25   32 2    
    39   26   27 2    
    40   26   28 am   
    41   28   29 1    
    42   28   43 1    
    43   29   30 1    
    44   29   31 2    
    45   30   44 1    
    46   30   45 1    
    47   31   32 1    
@<TRIPOS>SUBSTRUCTURE
     1 GNP201      1 GROUP   
@<TRIPOS>SET
ATOM$ORANGE STATIC     ATOMS   COLORGROUP SYSTEM 
20 14 14 15 15 17 17 19 19 21 21 23 23 25 25 26 26 29 \
29 32 32 

