#    Name: 6rvb_1_FAD
#    Modification time : Fri May 22 19:27:54 2020

@<TRIPOS>MOLECULE
6rvb_1_FAD
   53    58     1     0     1
SMALL
NO_CHARGES


@<TRIPOS>ATOM
      1 PA         70.3360  -33.0600   46.5460 P.3       1 FAD501      0.0000 
      2 O1A        69.5800  -33.6430   45.2400 O.co2     1 FAD501      0.0000 
      3 O2A        71.8740  -33.0710   46.6750 O.co2     1 FAD501      0.0000 
      4 O5B        69.7440  -33.7750   47.9300 O.3       1 FAD501      0.0000 
      5 C5B        68.3100  -33.8850   48.2240 C.3       1 FAD501      0.0000 
      6 C4B        68.0350  -34.9310   49.3050 C.3       1 FAD501      0.0000 
      7 O4B        66.8210  -34.5450   49.9260 O.3       1 FAD501      0.0000 
      8 C3B        67.9530  -36.3360   48.7310 C.3       1 FAD501      0.0000 
      9 O3B        68.9780  -37.2420   49.2770 O.3       1 FAD501      0.0000 
     10 C2B        66.6170  -36.7300   49.1940 C.3       1 FAD501      0.0000 
     11 O2B        66.9070  -38.0280   49.7170 O.3       1 FAD501      0.0000 
     12 C1B        66.1670  -35.6880   50.2640 C.3       1 FAD501      0.0000 
     13 N9A        64.6770  -35.5180   50.1680 N.pl3     1 FAD501      0.0000 
     14 C8A        63.9380  -35.3690   49.0180 C.2       1 FAD501      0.0000 
     15 N7A        62.5970  -35.4050   49.2480 N.2       1 FAD501      0.0000 
     16 C5A        62.4500  -35.5610   50.5870 C.ar      1 FAD501      0.0000 
     17 C6A        61.2630  -35.6580   51.4830 C.ar      1 FAD501      0.0000 
     18 N6A        60.0290  -35.5390   50.9090 N.pl3     1 FAD501      0.0000 
     19 N1A        61.5040  -35.8430   52.8110 N.ar      1 FAD501      0.0000 
     20 C2A        62.8040  -35.9140   53.2940 C.ar      1 FAD501      0.0000 
     21 N3A        63.9690  -35.8360   52.5680 N.ar      1 FAD501      0.0000 
     22 C4A        63.8200  -35.6490   51.2090 C.ar      1 FAD501      0.0000 
     23 N1         77.7400  -29.7640   40.9810 N.2       1 FAD501      0.0000 
     24 C2         78.7860  -28.9130   40.7290 C.2       1 FAD501      0.0000 
     25 O2         78.7030  -27.6860   41.0380 O.2       1 FAD501      0.0000 
     26 N3         79.9140  -29.3970   40.1750 N.am      1 FAD501      0.0000 
     27 C4         80.1170  -30.7260   39.8660 C.2       1 FAD501      0.0000 
     28 O4         81.2010  -31.1980   39.3470 O.2       1 FAD501      0.0000 
     29 C4X        79.0240  -31.7050   40.1640 C.2       1 FAD501      0.0000 
     30 N5         79.2140  -33.0430   39.8760 N.2       1 FAD501      0.0000 
     31 C5X        78.1680  -33.8900   40.1440 C.ar      1 FAD501      0.0000 
     32 C6         78.3000  -35.2710   39.8530 C.ar      1 FAD501      0.0000 
     33 C7         77.2500  -36.1690   40.1320 C.ar      1 FAD501      0.0000 
     34 C7M        77.4530  -37.6220   39.8050 C.3       1 FAD501      0.0000 
     35 C8         75.9640  -35.6750   40.7560 C.ar      1 FAD501      0.0000 
     36 C8M        74.8040  -36.5810   41.0730 C.3       1 FAD501      0.0000 
     37 C9         75.8120  -34.2980   41.0240 C.ar      1 FAD501      0.0000 
     38 C9A        76.8480  -33.3580   40.7570 C.ar      1 FAD501      0.0000 
     39 N10        76.6720  -31.9570   41.0800 N.pl3     1 FAD501      0.0000 
     40 C10        77.7700  -31.1140   40.7650 C.2       1 FAD501      0.0000 
     41 C1'        75.4140  -31.3970   41.6190 C.3       1 FAD501      0.0000 
     42 C2'        75.1680  -31.6200   43.0780 C.3       1 FAD501      0.0000 
     43 O2'        74.9090  -32.9920   43.3400 O.3       1 FAD501      0.0000 
     44 C3'        73.9200  -30.9000   43.5080 C.3       1 FAD501      0.0000 
     45 O3'        73.8450  -29.6320   42.8680 O.3       1 FAD501      0.0000 
     46 C4'        74.0590  -30.7670   45.0360 C.3       1 FAD501      0.0000 
     47 O4'        74.2570  -32.0180   45.7850 O.3       1 FAD501      0.0000 
     48 C5'        72.9700  -29.8550   45.6350 C.3       1 FAD501      0.0000 
     49 O5'        71.7690  -30.5440   45.9610 O.3       1 FAD501      0.0000 
     50 P          70.6730  -30.0920   47.0590 P.3       1 FAD501      0.0000 
     51 O1P        71.2940  -30.0290   48.4440 O.co2     1 FAD501      0.0000 
     52 O2P        69.5420  -29.1180   46.6560 O.co2     1 FAD501      0.0000 
     53 O3P        69.8840  -31.5070   46.9770 O.3       1 FAD501      0.0000 
@<TRIPOS>BOND
     1    1    2 ar   
     2    1    3 ar   
     3    1    4 1    
     4    1   53 1    
     5    4    5 1    
     6    5    6 1    
     7    6    7 1    
     8    6    8 1    
     9    7   12 1    
    10    8    9 1    
    11    8   10 1    
    12   10   11 1    
    13   10   12 1    
    14   12   13 1    
    15   13   14 1    
    16   13   22 1    
    17   14   15 2    
    18   15   16 1    
    19   16   17 ar   
    20   16   22 ar   
    21   17   18 1    
    22   17   19 ar   
    23   19   20 ar   
    24   20   21 ar   
    25   21   22 ar   
    26   23   24 1    
    27   23   40 2    
    28   24   25 2    
    29   24   26 am   
    30   26   27 am   
    31   27   28 2    
    32   27   29 1    
    33   29   30 2    
    34   29   40 1    
    35   30   31 1    
    36   31   32 ar   
    37   31   38 ar   
    38   32   33 ar   
    39   33   34 1    
    40   33   35 ar   
    41   35   36 1    
    42   35   37 ar   
    43   37   38 ar   
    44   38   39 1    
    45   39   40 1    
    46   39   41 1    
    47   41   42 1    
    48   42   43 1    
    49   42   44 1    
    50   44   45 1    
    51   44   46 1    
    52   46   47 1    
    53   46   48 1    
    54   48   49 1    
    55   49   50 1    
    56   50   51 ar   
    57   50   52 ar   
    58   50   53 1    
@<TRIPOS>SUBSTRUCTURE
     1 FAD501      1 GROUP   
@<TRIPOS>SET
ATOM$ORANGE STATIC     ATOMS   COLORGROUP SYSTEM 
54 5 5 6 6 8 8 10 10 12 12 14 14 16 16 17 17 20 \
20 22 22 24 24 27 27 29 29 31 31 32 32 33 33 34 34 35 \
35 36 36 37 37 38 38 40 40 41 41 42 42 44 44 46 46 48 \
48 

