#    Name: 6rvb_2_NAD
#    Modification time : Fri May 22 19:28:08 2020

@<TRIPOS>MOLECULE
6rvb_2_NAD
   44    49     1     0     1
SMALL
NO_CHARGES


@<TRIPOS>ATOM
      1 PA         72.1110  -33.1820   31.0420 P.3       1 NAD502      0.0000 
      2 O1A        73.3010  -32.2880   31.2940 O.co2     1 NAD502      0.0000 
      3 O2A        70.8040  -32.6090   30.8540 O.co2     1 NAD502      0.0000 
      4 O5B        72.3730  -34.1310   29.7460 O.3       1 NAD502      0.0000 
      5 C5B        72.4070  -33.8170   28.3100 C.3       1 NAD502      0.0000 
      6 C4B        71.4340  -34.7030   27.4600 C.3       1 NAD502      0.0000 
      7 O4B        71.2380  -34.9970   26.0490 O.3       1 NAD502      0.0000 
      8 C3B        71.8150  -35.9960   27.9870 Du        1 NAD502      0.0000 
      9 O3B        71.4210  -35.8280   29.2870 Du        1 NAD502      0.0000 
     10 C2B        70.8520  -36.8450   27.2200 Du        1 NAD502      0.0000 
     11 O2B        69.6520  -37.4190   27.7200 Du        1 NAD502      0.0000 
     12 C1B        70.2130  -35.9790   26.2460 C.3       1 NAD502      0.0000 
     13 N9A        69.9780  -37.3850   25.7260 N.pl3     1 NAD502      0.0000 
     14 C8A        70.8500  -38.3100   25.0880 C.2       1 NAD502      0.0000 
     15 N7A        70.2980  -39.5360   24.7700 N.2       1 NAD502      0.0000 
     16 C5A        69.0660  -39.4140   25.2390 C.ar      1 NAD502      0.0000 
     17 C6A        68.1350  -40.3570   25.1580 C.ar      1 NAD502      0.0000 
     18 N6A        68.5630  -41.4070   24.5700 N.pl3     1 NAD502      0.0000 
     19 N1A        66.9010  -40.1480   25.7020 N.ar      1 NAD502      0.0000 
     20 C2A        66.7290  -38.9000   26.3260 C.ar      1 NAD502      0.0000 
     21 N3A        67.7080  -37.9080   26.4450 N.ar      1 NAD502      0.0000 
     22 C4A        68.8500  -38.1640   25.8760 C.ar      1 NAD502      0.0000 
     23 O3         71.9480  -34.0510   32.3290 O.3       1 NAD502      0.0000 
     24 PN         73.0180  -34.7220   33.3400 P.3       1 NAD502      0.0000 
     25 O1N        72.1480  -35.8580   33.9250 O.co2     1 NAD502      0.0000 
     26 O2N        74.3130  -35.0490   32.7400 O.co2     1 NAD502      0.0000 
     27 O5D        73.3300  -33.4670   34.2620 O.3       1 NAD502      0.0000 
     28 C5D        73.3140  -33.5910   35.6640 C.3       1 NAD502      0.0000 
     29 C4D        73.3180  -32.2840   36.4730 C.3       1 NAD502      0.0000 
     30 O4D        73.8990  -32.3990   37.7970 O.3       1 NAD502      0.0000 
     31 C3D        74.0950  -31.2680   35.6740 C.3       1 NAD502      0.0000 
     32 O3D        73.3390  -30.5200   34.6980 O.3       1 NAD502      0.0000 
     33 C2D        74.5660  -30.4340   36.8250 C.3       1 NAD502      0.0000 
     34 O2D        73.4950  -29.6940   37.2930 O.3       1 NAD502      0.0000 
     35 C1D        74.8750  -31.4200   37.9180 C.3       1 NAD502      0.0000 
     36 N1N        76.2300  -31.8560   37.5000 N.pl3     1 NAD502      0.0000 
     37 C2N        77.2240  -30.8930   37.3590 C.ar      1 NAD502      0.0000 
     38 C3N        78.5450  -31.1880   36.9460 C.ar      1 NAD502      0.0000 
     39 C7N        79.6190  -30.1060   36.8100 C.2       1 NAD502      0.0000 
     40 O7N        79.3220  -28.7290   36.7470 O.2       1 NAD502      0.0000 
     41 N7N        80.9010  -30.4790   36.7220 N.am      1 NAD502      0.0000 
     42 C4N        78.8620  -32.5290   36.6710 C.ar      1 NAD502      0.0000 
     43 C5N        77.8760  -33.4940   36.7870 C.ar      1 NAD502      0.0000 
     44 C6N        76.5720  -33.1440   37.1910 C.ar      1 NAD502      0.0000 
@<TRIPOS>BOND
     1    1    2 ar   
     2    1    3 ar   
     3    1    4 1    
     4    1   23 1    
     5    4    5 1    
     6    5    6 1    
     7    6    7 1    
     8    6    8 du   
     9    7   12 1    
    10    8    9 du   
    11    8   10 du   
    12   10   11 du   
    13   10   12 du   
    14   10   13 du   
    15   12   13 1    
    16   13   14 1    
    17   13   22 1    
    18   14   15 2    
    19   15   16 1    
    20   16   17 ar   
    21   16   22 ar   
    22   17   18 1    
    23   17   19 ar   
    24   19   20 ar   
    25   20   21 ar   
    26   21   22 ar   
    27   23   24 1    
    28   24   25 ar   
    29   24   26 ar   
    30   24   27 1    
    31   27   28 1    
    32   28   29 1    
    33   29   30 1    
    34   29   31 1    
    35   30   35 1    
    36   31   32 1    
    37   31   33 1    
    38   33   34 1    
    39   33   35 1    
    40   35   36 1    
    41   36   37 ar   
    42   36   44 ar   
    43   37   38 ar   
    44   38   39 1    
    45   38   42 ar   
    46   39   40 2    
    47   39   41 am   
    48   42   43 ar   
    49   43   44 ar   
@<TRIPOS>SUBSTRUCTURE
     1 NAD502      1 GROUP   
@<TRIPOS>SET
ATOM$ORANGE STATIC     ATOMS   COLORGROUP SYSTEM 
38 5 5 6 6 12 12 14 14 16 16 17 17 20 20 22 22 28 \
28 29 29 31 31 33 33 35 35 37 37 38 38 39 39 42 42 43 \
43 44 44 

