#    Name: 6rvb_4_FAD
#    Modification time : Fri May 22 19:28:26 2020

@<TRIPOS>MOLECULE
6rvb_4_FAD
   53    58     1     0     1
SMALL
NO_CHARGES


@<TRIPOS>ATOM
      1 PA        113.9510   -4.9030   26.4760 P.3       1 FAD501      0.0000 
      2 O1A       114.7080   -4.5050   27.8130 O.co2     1 FAD501      0.0000 
      3 O2A       113.3800   -6.3040   26.2690 O.co2     1 FAD501      0.0000 
      4 O5B       114.8050   -4.7050   25.0800 O.3       1 FAD501      0.0000 
      5 C5B       115.4600   -3.4810   24.6750 C.3       1 FAD501      0.0000 
      6 C4B       116.4740   -3.7630   23.5720 C.3       1 FAD501      0.0000 
      7 O4B       116.5860   -2.5190   22.9070 O.3       1 FAD501      0.0000 
      8 C3B       117.8110   -4.1900   24.1970 C.3       1 FAD501      0.0000 
      9 O3B       118.2120   -5.5180   23.7220 O.3       1 FAD501      0.0000 
     10 C2B       118.7470   -3.1090   23.7590 C.3       1 FAD501      0.0000 
     11 O2B       119.8430   -3.7630   23.1000 O.3       1 FAD501      0.0000 
     12 C1B       117.9550   -2.2910   22.7030 C.3       1 FAD501      0.0000 
     13 N9A       118.4540   -0.8810   22.7450 N.pl3     1 FAD501      0.0000 
     14 C8A       118.6480   -0.1960   23.9050 C.2       1 FAD501      0.0000 
     15 N7A       119.2320    1.0100   23.6140 N.2       1 FAD501      0.0000 
     16 C5A       119.4200    1.1080   22.2500 C.ar      1 FAD501      0.0000 
     17 C6A       119.9930    2.1500   21.3210 C.ar      1 FAD501      0.0000 
     18 N6A       120.4570    3.3500   21.8690 N.pl3     1 FAD501      0.0000 
     19 N1A       119.9780    1.8190   19.9600 N.ar      1 FAD501      0.0000 
     20 C2A       119.4900    0.6250   19.4920 C.ar      1 FAD501      0.0000 
     21 N3A       118.9720   -0.3470   20.2900 N.ar      1 FAD501      0.0000 
     22 C4A       118.9080   -0.1630   21.6620 C.ar      1 FAD501      0.0000 
     23 N1        107.9640  -10.1560   32.1920 N.2       1 FAD501      0.0000 
     24 C2        106.7730  -10.7700   32.5020 C.2       1 FAD501      0.0000 
     25 O2        105.7060  -10.1420   32.2240 O.2       1 FAD501      0.0000 
     26 N3        106.7360  -12.0460   33.0440 N.am      1 FAD501      0.0000 
     27 C4        107.8620  -12.8220   33.3010 C.2       1 FAD501      0.0000 
     28 O4        107.8450  -14.0090   33.8040 O.2       1 FAD501      0.0000 
     29 C4X       109.2070  -12.2420   32.9720 C.2       1 FAD501      0.0000 
     30 N5        110.3590  -12.9820   33.2240 N.2       1 FAD501      0.0000 
     31 C5X       111.5730  -12.4020   32.9440 C.ar      1 FAD501      0.0000 
     32 C6        112.7700  -13.1210   33.2110 C.ar      1 FAD501      0.0000 
     33 C7        114.0300  -12.5180   32.8960 C.ar      1 FAD501      0.0000 
     34 C7M       115.3370  -13.2680   33.1580 C.3       1 FAD501      0.0000 
     35 C8        114.0720  -11.1120   32.2920 C.ar      1 FAD501      0.0000 
     36 C8M       115.3590  -10.4040   31.9220 C.3       1 FAD501      0.0000 
     37 C9        112.8930  -10.4060   32.0640 C.ar      1 FAD501      0.0000 
     38 C9A       111.6240  -10.9700   32.3450 C.ar      1 FAD501      0.0000 
     39 N10       110.4000  -10.1920   32.0530 N.pl3     1 FAD501      0.0000 
     40 C10       109.1630  -10.8280   32.3850 C.2       1 FAD501      0.0000 
     41 C1'       110.3490   -8.7820   31.5180 C.3       1 FAD501      0.0000 
     42 C2'       110.7330   -8.6580   30.0570 C.3       1 FAD501      0.0000 
     43 O2'       112.0980   -9.0080   29.7600 O.3       1 FAD501      0.0000 
     44 C3'       110.5400   -7.2190   29.6330 C.3       1 FAD501      0.0000 
     45 O3'       109.3950   -6.6080   30.2590 O.3       1 FAD501      0.0000 
     46 C4'       110.2890   -7.3550   28.1320 C.3       1 FAD501      0.0000 
     47 O4'       111.3080   -8.1560   27.4300 O.3       1 FAD501      0.0000 
     48 C5'       109.9230   -5.9950   27.5060 C.3       1 FAD501      0.0000 
     49 O5'       111.0460   -5.1840   27.1240 O.3       1 FAD501      0.0000 
     50 P         111.1120   -4.0630   25.9130 P.3       1 FAD501      0.0000 
     51 O1P       110.7680   -4.7070   24.5490 O.co2     1 FAD501      0.0000 
     52 O2P       110.6200   -2.6150   26.2980 O.co2     1 FAD501      0.0000 
     53 O3P       112.7430   -3.8680   26.0110 O.3       1 FAD501      0.0000 
@<TRIPOS>BOND
     1    1    2 ar   
     2    1    3 ar   
     3    1    4 1    
     4    1   53 1    
     5    4    5 1    
     6    5    6 1    
     7    6    7 1    
     8    6    8 1    
     9    7   12 1    
    10    8    9 1    
    11    8   10 1    
    12   10   11 1    
    13   10   12 1    
    14   12   13 1    
    15   13   14 1    
    16   13   22 1    
    17   14   15 2    
    18   15   16 1    
    19   16   17 ar   
    20   16   22 ar   
    21   17   18 1    
    22   17   19 ar   
    23   19   20 ar   
    24   20   21 ar   
    25   21   22 ar   
    26   23   24 1    
    27   23   40 2    
    28   24   25 2    
    29   24   26 am   
    30   26   27 am   
    31   27   28 2    
    32   27   29 1    
    33   29   30 2    
    34   29   40 1    
    35   30   31 1    
    36   31   32 ar   
    37   31   38 ar   
    38   32   33 ar   
    39   33   34 1    
    40   33   35 ar   
    41   35   36 1    
    42   35   37 ar   
    43   37   38 ar   
    44   38   39 1    
    45   39   40 1    
    46   39   41 1    
    47   41   42 1    
    48   42   43 1    
    49   42   44 1    
    50   44   45 1    
    51   44   46 1    
    52   46   47 1    
    53   46   48 1    
    54   48   49 1    
    55   49   50 1    
    56   50   51 ar   
    57   50   52 ar   
    58   50   53 1    
@<TRIPOS>SUBSTRUCTURE
     1 FAD501      1 GROUP   
@<TRIPOS>SET
ATOM$ORANGE STATIC     ATOMS   COLORGROUP SYSTEM 
54 5 5 6 6 8 8 10 10 12 12 14 14 16 16 17 17 20 \
20 22 22 24 24 27 27 29 29 31 31 32 32 33 33 34 34 35 \
35 36 36 37 37 38 38 40 40 41 41 42 42 44 44 46 46 48 \
48 

