#    Name: 6rvb_9_COA_CAVITY_N1_6
#    Modification time : Fri May 22 19:29:06 2020

@<TRIPOS>MOLECULE
6rvb_9_COA_CAVITY_N1_6
   74     0     5     0     0
SMALL
NO_CHARGES


@<TRIPOS>ATOM
      1 OG        118.3600  -75.8300   50.5200 O.3       1 SER1        0.0000 
      2 OG        118.1400  -74.2800   47.5600 O.3       1 SER1        0.0000 
      3 OG        118.5600  -75.4000   48.4600 O.3       1 SER1        0.0000 
      4 OG        121.7800  -74.6800   47.8400 O.3       1 SER1        0.0000 
      5 OG        124.1300  -75.7800   47.8400 O.3       1 SER1        0.0000 
      6 OG        124.7600  -76.4800   46.6700 O.3       1 SER1        0.0000 
      7 O         115.3300  -74.1500   44.0400 O.2       2 ALA2        0.0000 
      8 N         116.1700  -74.4100   40.8100 N.am      2 ALA2        0.0000 
      9 N         115.9900  -72.7400   45.4900 N.am      2 ALA2        0.0000 
     10 N         116.6200  -73.4400   44.3200 N.am      2 ALA2        0.0000 
     11 N         117.4600  -73.7000   41.0800 N.am      2 ALA2        0.0000 
     12 O         117.8900  -74.8200   41.9800 O.2       2 ALA2        0.0000 
     13 N         117.7100  -73.1600   46.6600 N.am      2 ALA2        0.0000 
     14 N         118.3400  -73.8500   45.4900 N.am      2 ALA2        0.0000 
     15 N         118.7700  -74.9700   46.3900 N.am      2 ALA2        0.0000 
     16 O         118.5500  -73.4200   43.4200 O.2       2 ALA2        0.0000 
     17 O         118.9700  -74.5400   44.3200 O.2       2 ALA2        0.0000 
     18 N         119.4000  -75.6700   45.2200 N.am      2 ALA2        0.0000 
     19 N         119.8300  -76.7900   46.1200 N.am      2 ALA2        0.0000 
     20 O         118.7500  -72.9900   41.3600 O.2       2 ALA2        0.0000 
     21 N         119.6300  -73.1400   45.7700 N.am      2 ALA2        0.0000 
     22 N         120.0600  -74.2600   46.6700 N.am      2 ALA2        0.0000 
     23 N         120.4900  -75.3900   47.5600 N.am      2 ALA2        0.0000 
     24 N         121.5500  -77.2000   47.2900 N.am      2 ALA2        0.0000 
     25 O         121.1500  -73.9800   49.0100 O.2       2 ALA2        0.0000 
     26 N         121.5700  -75.1100   49.9100 N.am      2 ALA2        0.0000 
     27 N         122.8400  -76.4900   47.5700 N.am      2 ALA2        0.0000 
     28 N         123.4700  -77.1900   46.4000 N.am      2 ALA2        0.0000 
     29 N         123.9200  -76.2100   49.9100 N.am      2 ALA2        0.0000 
     30 N         125.8500  -76.2000   49.0100 N.am      2 ALA2        0.0000 
     31 OD1       118.1300  -78.3600   49.9700 O.co2     3 ASP3        0.0000 
     32 OD1       118.9900  -76.5300   49.3500 O.co2     3 ASP3        0.0000 
     33 OD1       119.6500  -75.1200   50.8000 O.co2     3 ASP3        0.0000 
     34 OD1       120.7100  -76.9400   50.5300 O.co2     3 ASP3        0.0000 
     35 OD1       121.3400  -77.6300   49.3600 O.co2     3 ASP3        0.0000 
     36 OD1       121.7700  -78.7600   50.2500 O.co2     3 ASP3        0.0000 
     37 OD1       123.0600  -78.0500   50.5300 O.co2     3 ASP3        0.0000 
     38 OD1       124.9800  -78.0300   49.6400 O.co2     3 ASP3        0.0000 
     39 OD1       125.6200  -78.7200   48.4700 O.co2     3 ASP3        0.0000 
     40 OD1       126.2500  -79.4200   47.3000 O.co2     3 ASP3        0.0000 
     41 CA        114.4700  -75.9800   44.6600 C.3       4 GLY6        0.0000 
     42 CA        114.6700  -75.5500   42.6000 C.3       4 GLY6        0.0000 
     43 CA        115.1300  -74.5800   46.1100 C.3       4 GLY6        0.0000 
     44 CA        115.7600  -75.2700   44.9400 C.3       4 GLY6        0.0000 
     45 CA        115.9600  -74.8400   42.8700 C.3       4 GLY6        0.0000 
     46 CA        116.4200  -73.8700   46.3900 C.3       4 GLY6        0.0000 
     47 CA        117.7000  -77.2400   49.0800 C.3       4 GLY6        0.0000 
     48 CA        117.0500  -74.5600   45.2200 C.3       4 GLY6        0.0000 
     49 CA        117.4800  -75.6800   46.1100 C.3       4 GLY6        0.0000 
     50 CA        117.9000  -76.8100   47.0100 C.3       4 GLY6        0.0000 
     51 CA        116.8300  -73.0100   42.2500 C.3       4 GLY6        0.0000 
     52 CA        117.9200  -72.7300   44.5900 C.3       4 GLY6        0.0000 
     53 CA        118.1200  -72.3000   42.5300 C.3       4 GLY6        0.0000 
     54 CA        119.2200  -74.0000   49.9000 C.3       4 GLY6        0.0000 
     55 CA        119.4300  -73.5700   47.8400 C.3       4 GLY6        0.0000 
     56 CA        119.8600  -74.6900   48.7300 C.3       4 GLY6        0.0000 
     57 CA        122.0000  -76.2300   50.8000 C.3       4 GLY6        0.0000 
     58 CA        122.2100  -75.8000   48.7400 C.3       4 GLY6        0.0000 
     59 CA        125.1900  -77.6000   47.5700 C.3       4 GLY6        0.0000 
     60 CA        125.3900  -77.1700   45.5000 C.3       4 GLY6        0.0000 
     61 CA        125.8200  -78.2900   46.4000 C.3       4 GLY6        0.0000 
     62 CA        126.4800  -76.8900   47.8400 C.3       4 GLY6        0.0000 
     63 DU        116.3900  -75.9600   43.7700 H         5 CUB7        0.0000 
     64 DU        117.2600  -74.1300   43.1500 H         5 CUB7        0.0000 
     65 DU        117.6800  -75.2500   44.0500 H         5 CUB7        0.0000 
     66 DU        118.1100  -76.3800   44.9400 H         5 CUB7        0.0000 
     67 DU        119.2000  -76.1000   47.2900 H         5 CUB7        0.0000 
     68 DU        119.6200  -77.2200   48.1800 H         5 CUB7        0.0000 
     69 DU        120.2800  -75.8200   49.6300 H         5 CUB7        0.0000 
     70 DU        120.9100  -76.5100   48.4600 H         5 CUB7        0.0000 
     71 DU        122.6300  -76.9200   49.6300 H         5 CUB7        0.0000 
     72 DU        123.2600  -77.6200   48.4600 H         5 CUB7        0.0000 
     73 DU        123.9000  -78.3100   47.2900 H         5 CUB7        0.0000 
     74 DU        124.5600  -76.9100   48.7400 H         5 CUB7        0.0000 
@<TRIPOS>BOND
@<TRIPOS>SUBSTRUCTURE
     1 SER1        1 GROUP   
     2 ALA2        7 GROUP   
     3 ASP3       31 GROUP   
     4 GLY6       41 GROUP   
     5 CUB7       63 GROUP   
@<TRIPOS>SET

