#    Name: 6rvb_6_COA
#    Modification time : Fri May 22 19:28:46 2020

@<TRIPOS>MOLECULE
6rvb_6_COA
   48    50     1     0     1
SMALL
NO_CHARGES


@<TRIPOS>ATOM
      1 N1A        94.3730  -18.0890   17.4300 N.ar      1 COA503      0.0000 
      2 C2A        93.8360  -17.0910   16.6450 C.ar      1 COA503      0.0000 
      3 N3A        94.4220  -15.8500   16.4540 N.ar      1 COA503      0.0000 
      4 C4A        95.6300  -15.5070   17.0490 C.ar      1 COA503      0.0000 
      5 C5A        96.2730  -16.5300   17.9350 C.ar      1 COA503      0.0000 
      6 C6A        95.5980  -17.8560   18.0940 C.ar      1 COA503      0.0000 
      7 N6A        96.2640  -18.7260   18.9300 N.pl3     1 COA503      0.0000 
      8 N7A        97.4080  -15.9770   18.4470 N.2       1 COA503      0.0000 
      9 C8A        97.5060  -14.7190   17.9360 C.2       1 COA503      0.0000 
     10 N9A        96.4610  -14.4370   17.1170 N.pl3     1 COA503      0.0000 
     11 C1B        96.3100  -13.1260   16.4360 C.3       1 COA503      0.0000 
     12 C2B        96.2460  -11.9260   17.3950 C.3       1 COA503      0.0000 
     13 O2B        94.8860  -11.7190   17.8350 O.3       1 COA503      0.0000 
     14 C3B        96.7200  -10.7360   16.5650 C.3       1 COA503      0.0000 
     15 O3B        95.5690  -10.0710   15.9850 O.3       1 COA503      0.0000 
     16 P3B        95.5490   -8.8340   14.9360 P.3       1 COA503      0.0000 
     17 O7A        94.1980   -8.2470   15.2980 O.co2     1 COA503      0.0000 
     18 O8A        96.7660   -8.0090   15.1900 O.co2     1 COA503      0.0000 
     19 O9A        95.6820   -9.4530   13.5540 O.co2     1 COA503      0.0000 
     20 C4B        97.5690  -11.3790   15.4880 C.3       1 COA503      0.0000 
     21 O4B        97.4210  -12.8000   15.5920 O.3       1 COA503      0.0000 
     22 C5B        99.0290  -11.1090   15.6720 C.3       1 COA503      0.0000 
     23 O5B        99.5790  -12.0220   16.6280 O.3       1 COA503      0.0000 
     24 P1A       101.1120  -12.4650   16.4010 P.3       1 COA503      0.0000 
     25 O1A       101.2850  -13.4630   17.4920 O.co2     1 COA503      0.0000 
     26 O2A       101.3930  -12.8500   14.9650 O.co2     1 COA503      0.0000 
     27 O3A       101.8530  -11.1090   16.8980 O.3       1 COA503      0.0000 
     28 P2A       102.7060   -9.9300   16.1630 P.3       1 COA503      0.0000 
     29 O4A       102.2310   -8.5050   16.5750 O.co2     1 COA503      0.0000 
     30 O5A       102.9030  -10.3650   14.7200 O.co2     1 COA503      0.0000 
     31 O6A       104.0700  -10.3070   16.9190 O.3       1 COA503      0.0000 
     32 CBP       106.1090  -10.1890   18.0840 C.3       1 COA503      0.0000 
     33 CCP       104.9770   -9.3960   17.4690 C.3       1 COA503      0.0000 
     34 CDP       105.9510  -11.7060   17.9210 C.3       1 COA503      0.0000 
     35 CEP       107.3350   -9.7220   17.3210 C.3       1 COA503      0.0000 
     36 CAP       106.1400   -9.7510   19.5690 C.3       1 COA503      0.0000 
     37 OAP       104.9590  -10.1190   20.2900 O.3       1 COA503      0.0000 
     38 C9P       107.3620  -10.2330   20.2970 C.2       1 COA503      0.0000 
     39 O9P       108.4830   -9.7490   20.0520 O.2       1 COA503      0.0000 
     40 N8P       107.1900  -11.1940   21.2070 N.am      1 COA503      0.0000 
     41 C7P       108.4150  -11.8570   21.6430 C.3       1 COA503      0.0000 
     42 C6P       109.0720  -11.0760   22.7810 C.3       1 COA503      0.0000 
     43 C5P       108.0170  -11.0680   23.8710 C.2       1 COA503      0.0000 
     44 O5P       107.1150  -10.2340   23.9030 O.2       1 COA503      0.0000 
     45 N4P       108.0890  -11.9880   24.8060 N.am      1 COA503      0.0000 
     46 C3P       107.5880  -11.5420   26.0830 C.3       1 COA503      0.0000 
     47 C2P       108.4220  -10.3790   26.5960 C.3       1 COA503      0.0000 
     48 S1P       109.4320  -11.0520   27.9340 S.3       1 COA503      0.0000 
@<TRIPOS>BOND
     1    1    2 ar   
     2    1    6 ar   
     3    2    3 ar   
     4    3    4 ar   
     5    4    5 ar   
     6    4   10 1    
     7    5    6 ar   
     8    5    8 1    
     9    6    7 1    
    10    8    9 2    
    11    9   10 1    
    12   10   11 1    
    13   11   12 1    
    14   11   21 1    
    15   12   13 1    
    16   12   14 1    
    17   14   15 1    
    18   14   20 1    
    19   15   16 1    
    20   16   17 ar   
    21   16   18 ar   
    22   16   19 ar   
    23   20   21 1    
    24   20   22 1    
    25   22   23 1    
    26   23   24 1    
    27   24   25 ar   
    28   24   26 ar   
    29   24   27 1    
    30   27   28 1    
    31   28   29 ar   
    32   28   30 ar   
    33   28   31 1    
    34   31   33 1    
    35   32   33 1    
    36   32   34 1    
    37   32   35 1    
    38   32   36 1    
    39   36   37 1    
    40   36   38 1    
    41   38   39 2    
    42   38   40 am   
    43   40   41 1    
    44   41   42 1    
    45   42   43 1    
    46   43   44 2    
    47   43   45 am   
    48   45   46 1    
    49   46   47 1    
    50   47   48 1    
@<TRIPOS>SUBSTRUCTURE
     1 COA503      1 GROUP   
@<TRIPOS>SET
ATOM$ORANGE STATIC     ATOMS   COLORGROUP SYSTEM 
42 2 2 4 4 5 5 6 6 9 9 11 11 12 12 14 14 20 \
20 22 22 32 32 33 33 34 34 35 35 36 36 38 38 41 41 42 \
42 43 43 46 46 47 47 

