#    Name: 6rvb_12_COA
#    Modification time : Fri May 22 19:29:23 2020

@<TRIPOS>MOLECULE
6rvb_12_COA
   48    50     1     0     1
SMALL
NO_CHARGES


@<TRIPOS>ATOM
      1 N1A        38.0870  -74.6090    8.2300 N.ar      1 COA503      0.0000 
      2 C2A        36.9640  -74.9110    7.5130 C.ar      1 COA503      0.0000 
      3 N3A        36.0340  -73.9650    7.1340 N.ar      1 COA503      0.0000 
      4 C4A        36.0940  -72.6300    7.4390 C.ar      1 COA503      0.0000 
      5 C5A        37.2730  -72.2120    8.2400 C.ar      1 COA503      0.0000 
      6 C6A        38.2770  -73.2930    8.6320 C.ar      1 COA503      0.0000 
      7 N6A        39.3440  -72.8940    9.3970 N.pl3     1 COA503      0.0000 
      8 N7A        37.1610  -70.8450    8.4380 N.2       1 COA503      0.0000 
      9 C8A        36.0160  -70.4390    7.8270 C.2       1 COA503      0.0000 
     10 N9A        35.3710  -71.4920    7.2290 N.pl3     1 COA503      0.0000 
     11 C1B        34.0630  -71.3400    6.4950 C.3       1 COA503      0.0000 
     12 C2B        32.9040  -70.8520    7.3990 C.3       1 COA503      0.0000 
     13 O2B        32.2910  -71.9620    8.0710 O.3       1 COA503      0.0000 
     14 C3B        31.9440  -70.2080    6.4110 C.3       1 COA503      0.0000 
     15 O3B        30.9160  -71.1800    6.0340 O.3       1 COA503      0.0000 
     16 P3B        29.7150  -70.9970    4.9530 P.3       1 COA503      0.0000 
     17 O7A        28.7750  -72.0330    5.5590 O.co2     1 COA503      0.0000 
     18 O8A        29.2720  -69.5480    4.8890 O.co2     1 COA503      0.0000 
     19 O9A        30.4090  -71.2630    3.6190 O.co2     1 COA503      0.0000 
     20 C4B        32.8400  -69.8070    5.2230 C.3       1 COA503      0.0000 
     21 O4B        34.1320  -70.4090    5.4040 O.3       1 COA503      0.0000 
     22 C5B        33.0270  -68.3030    5.0710 C.3       1 COA503      0.0000 
     23 O5B        34.0750  -67.8930    5.9630 O.3       1 COA503      0.0000 
     24 P1A        35.0290  -66.6300    5.6620 P.3       1 COA503      0.0000 
     25 O1A        35.9780  -66.7160    6.8430 O.co2     1 COA503      0.0000 
     26 O2A        35.5820  -66.6400    4.2350 O.co2     1 COA503      0.0000 
     27 O3A        33.9350  -65.4480    5.9460 O.3       1 COA503      0.0000 
     28 P2A        33.1750  -64.3680    4.9750 P.3       1 COA503      0.0000 
     29 O4A        31.7470  -64.2300    5.4810 O.co2     1 COA503      0.0000 
     30 O5A        33.5610  -64.5370    3.4860 O.co2     1 COA503      0.0000 
     31 O6A        33.9970  -63.1000    5.5270 O.3       1 COA503      0.0000 
     32 CBP        34.5360  -60.9840    6.2540 C.3       1 COA503      0.0000 
     33 CCP        33.4100  -61.8670    5.8350 C.3       1 COA503      0.0000 
     34 CDP        35.8240  -61.7480    6.2000 C.3       1 COA503      0.0000 
     35 CEP        34.6650  -59.8980    5.2260 C.3       1 COA503      0.0000 
     36 CAP        34.1450  -60.5300    7.6870 C.3       1 COA503      0.0000 
     37 OAP        34.0290  -61.6340    8.6230 O.3       1 COA503      0.0000 
     38 C9P        35.0590  -59.4540    8.2290 C.2       1 COA503      0.0000 
     39 O9P        35.1730  -58.3600    7.7090 O.2       1 COA503      0.0000 
     40 N8P        35.8020  -59.6540    9.2920 N.am      1 COA503      0.0000 
     41 C7P        36.8660  -58.6780    9.4520 C.3       1 COA503      0.0000 
     42 C6P        36.4310  -57.6330   10.4490 C.3       1 COA503      0.0000 
     43 C5P        36.0950  -58.4590   11.6610 C.2       1 COA503      0.0000 
     44 O5P        35.0250  -58.9710   11.7650 O.2       1 COA503      0.0000 
     45 N4P        36.9400  -58.6400   12.6390 N.am      1 COA503      0.0000 
     46 C3P        36.3570  -58.6640   13.9630 C.3       1 COA503      0.0000 
     47 C2P        35.5720  -57.4010   14.2700 C.3       1 COA503      0.0000 
     48 S1P        36.5500  -56.4380   15.4600 S.3       1 COA503      0.0000 
@<TRIPOS>BOND
     1    1    2 ar   
     2    1    6 ar   
     3    2    3 ar   
     4    3    4 ar   
     5    4    5 ar   
     6    4   10 1    
     7    5    6 ar   
     8    5    8 1    
     9    6    7 1    
    10    8    9 2    
    11    9   10 1    
    12   10   11 1    
    13   11   12 1    
    14   11   21 1    
    15   12   13 1    
    16   12   14 1    
    17   14   15 1    
    18   14   20 1    
    19   15   16 1    
    20   16   17 ar   
    21   16   18 ar   
    22   16   19 ar   
    23   20   21 1    
    24   20   22 1    
    25   22   23 1    
    26   23   24 1    
    27   24   25 ar   
    28   24   26 ar   
    29   24   27 1    
    30   27   28 1    
    31   28   29 ar   
    32   28   30 ar   
    33   28   31 1    
    34   31   33 1    
    35   32   33 1    
    36   32   34 1    
    37   32   35 1    
    38   32   36 1    
    39   36   37 1    
    40   36   38 1    
    41   38   39 2    
    42   38   40 am   
    43   40   41 1    
    44   41   42 1    
    45   42   43 1    
    46   43   44 2    
    47   43   45 am   
    48   45   46 1    
    49   46   47 1    
    50   47   48 1    
@<TRIPOS>SUBSTRUCTURE
     1 COA503      1 GROUP   
@<TRIPOS>SET
ATOM$ORANGE STATIC     ATOMS   COLORGROUP SYSTEM 
42 2 2 4 4 5 5 6 6 9 9 11 11 12 12 14 14 20 \
20 22 22 32 32 33 33 34 34 35 35 36 36 38 38 41 41 42 \
42 43 43 46 46 47 47 

