#    Name: 6rvb_3_COA
#    Modification time : Fri May 22 19:28:18 2020

@<TRIPOS>MOLECULE
6rvb_3_COA
   48    50     1     0     1
SMALL
NO_CHARGES


@<TRIPOS>ATOM
      1 N1A        90.2090  -20.6040   55.8150 N.ar      1 COA503      0.0000 
      2 C2A        89.5100  -19.7170   56.5700 C.ar      1 COA503      0.0000 
      3 N3A        88.1460  -19.8140   56.7660 N.ar      1 COA503      0.0000 
      4 C4A        87.3590  -20.7840   56.2110 C.ar      1 COA503      0.0000 
      5 C5A        88.0430  -21.7850   55.3540 C.ar      1 COA503      0.0000 
      6 C6A        89.5500  -21.6660   55.1580 C.ar      1 COA503      0.0000 
      7 N6A        90.2080  -22.6000   54.3400 N.pl3     1 COA503      0.0000 
      8 N7A        87.1000  -22.6450   54.9100 N.2       1 COA503      0.0000 
      9 C8A        85.9300  -22.1960   55.4260 C.2       1 COA503      0.0000 
     10 N9A        86.0640  -21.0970   56.2050 N.pl3     1 COA503      0.0000 
     11 C1B        84.9250  -20.4150   56.9220 C.3       1 COA503      0.0000 
     12 C2B        83.8690  -19.8810   55.9510 C.3       1 COA503      0.0000 
     13 O2B        84.3470  -18.5900   55.5250 O.3       1 COA503      0.0000 
     14 C3B        82.5650  -19.7990   56.7580 C.3       1 COA503      0.0000 
     15 O3B        82.4740  -18.5060   57.3840 O.3       1 COA503      0.0000 
     16 P3B        81.3040  -17.9530   58.3430 P.3       1 COA503      0.0000 
     17 O7A        81.3310  -16.4640   58.0240 O.co2     1 COA503      0.0000 
     18 O8A        80.0430  -18.7170   58.0080 O.co2     1 COA503      0.0000 
     19 O9A        81.8080  -18.2940   59.7280 O.co2     1 COA503      0.0000 
     20 C4B        82.7610  -20.8410   57.8270 C.3       1 COA503      0.0000 
     21 O4B        84.1630  -21.2140   57.8470 O.3       1 COA503      0.0000 
     22 C5B        81.8600  -22.0580   57.5890 C.3       1 COA503      0.0000 
     23 O5B        82.5130  -22.9710   56.6830 O.3       1 COA503      0.0000 
     24 P1A        82.3460  -24.5780   56.7880 P.3       1 COA503      0.0000 
     25 O1A        83.2520  -25.1170   55.7230 O.co2     1 COA503      0.0000 
     26 O2A        82.4760  -24.9820   58.2630 O.co2     1 COA503      0.0000 
     27 O3A        80.8310  -24.7260   56.2080 O.3       1 COA503      0.0000 
     28 P2A        79.4180  -24.9410   56.9510 P.3       1 COA503      0.0000 
     29 O4A        78.3890  -23.8980   56.4990 O.co2     1 COA503      0.0000 
     30 O5A        79.5620  -25.2430   58.4490 O.co2     1 COA503      0.0000 
     31 O6A        79.1640  -26.3490   56.1630 O.3       1 COA503      0.0000 
     32 CBP        78.1000  -28.1200   55.0610 C.3       1 COA503      0.0000 
     33 CCP        77.8870  -26.7450   55.6320 C.3       1 COA503      0.0000 
     34 CDP        79.5680  -28.4650   55.2820 C.3       1 COA503      0.0000 
     35 CEP        77.2760  -29.1030   55.8690 C.3       1 COA503      0.0000 
     36 CAP        77.6680  -27.9840   53.5650 C.3       1 COA503      0.0000 
     37 OAP        78.5180  -27.0420   52.8800 O.3       1 COA503      0.0000 
     38 C9P        77.6950  -29.2830   52.7930 C.2       1 COA503      0.0000 
     39 O9P        76.8480  -30.1330   53.0370 O.2       1 COA503      0.0000 
     40 N8P        78.6510  -29.5260   51.8830 N.am      1 COA503      0.0000 
     41 C7P        78.7980  -30.9060   51.4520 C.3       1 COA503      0.0000 
     42 C6P        77.8570  -31.1600   50.2850 C.3       1 COA503      0.0000 
     43 C5P        78.3950  -30.1810   49.2530 C.2       1 COA503      0.0000 
     44 O5P        78.0750  -28.9990   49.2320 O.2       1 COA503      0.0000 
     45 N4P        79.2330  -30.5890   48.3240 N.am      1 COA503      0.0000 
     46 C3P        79.0180  -29.8970   47.0520 C.3       1 COA503      0.0000 
     47 C2P        77.6440  -30.1930   46.4180 C.3       1 COA503      0.0000 
     48 S1P        77.8100  -31.4550   45.0720 S.3       1 COA503      0.0000 
@<TRIPOS>BOND
     1    1    2 ar   
     2    1    6 ar   
     3    2    3 ar   
     4    3    4 ar   
     5    4    5 ar   
     6    4   10 1    
     7    5    6 ar   
     8    5    8 1    
     9    6    7 1    
    10    8    9 2    
    11    9   10 1    
    12   10   11 1    
    13   11   12 1    
    14   11   21 1    
    15   12   13 1    
    16   12   14 1    
    17   14   15 1    
    18   14   20 1    
    19   15   16 1    
    20   16   17 ar   
    21   16   18 ar   
    22   16   19 ar   
    23   20   21 1    
    24   20   22 1    
    25   22   23 1    
    26   23   24 1    
    27   24   25 ar   
    28   24   26 ar   
    29   24   27 1    
    30   27   28 1    
    31   28   29 ar   
    32   28   30 ar   
    33   28   31 1    
    34   31   33 1    
    35   32   33 1    
    36   32   34 1    
    37   32   35 1    
    38   32   36 1    
    39   36   37 1    
    40   36   38 1    
    41   38   39 2    
    42   38   40 am   
    43   40   41 1    
    44   41   42 1    
    45   42   43 1    
    46   43   44 2    
    47   43   45 am   
    48   45   46 1    
    49   46   47 1    
    50   47   48 1    
@<TRIPOS>SUBSTRUCTURE
     1 COA503      1 GROUP   
@<TRIPOS>SET
ATOM$ORANGE STATIC     ATOMS   COLORGROUP SYSTEM 
42 2 2 4 4 5 5 6 6 9 9 11 11 12 12 14 14 20 \
20 22 22 32 32 33 33 34 34 35 35 36 36 38 38 41 41 42 \
42 43 43 46 46 47 47 

