#    Name: 6rvb_7_FAD
#    Modification time : Fri May 22 19:28:52 2020

@<TRIPOS>MOLECULE
6rvb_7_FAD
   53    58     1     0     1
SMALL
NO_CHARGES


@<TRIPOS>ATOM
      1 PA        117.8310  -64.6830   42.7710 P.3       1 FAD501      0.0000 
      2 O1A       117.4870  -63.5820   41.7620 O.co2     1 FAD501      0.0000 
      3 O2A       117.2050  -66.0640   42.6560 O.co2     1 FAD501      0.0000 
      4 O5B       117.4120  -64.1910   44.2490 O.3       1 FAD501      0.0000 
      5 C5B       117.8820  -63.0070   44.9120 C.3       1 FAD501      0.0000 
      6 C4B       116.9940  -62.6960   46.1180 C.3       1 FAD501      0.0000 
      7 O4B       117.7550  -61.7930   46.8610 O.3       1 FAD501      0.0000 
      8 C3B       115.7000  -61.9820   45.7510 C.3       1 FAD501      0.0000 
      9 O3B       114.4930  -62.7030   46.1100 O.3       1 FAD501      0.0000 
     10 C2B       115.7820  -60.6890   46.4870 C.3       1 FAD501      0.0000 
     11 O2B       114.6010  -60.6060   47.2400 O.3       1 FAD501      0.0000 
     12 C1B       116.9240  -60.8430   47.4540 C.3       1 FAD501      0.0000 
     13 N9A       117.5750  -59.5030   47.5780 N.pl3     1 FAD501      0.0000 
     14 C8A       117.9490  -58.6730   46.5590 C.2       1 FAD501      0.0000 
     15 N7A       118.4900  -57.5260   47.0580 N.2       1 FAD501      0.0000 
     16 C5A       118.4600  -57.5880   48.4120 C.ar      1 FAD501      0.0000 
     17 C6A       118.8630  -56.6900   49.5430 C.ar      1 FAD501      0.0000 
     18 N6A       119.4050  -55.4840   49.2770 N.pl3     1 FAD501      0.0000 
     19 N1A       118.6510  -57.0990   50.8150 N.ar      1 FAD501      0.0000 
     20 C2A       118.1180  -58.3330   51.0370 C.ar      1 FAD501      0.0000 
     21 N3A       117.7220  -59.2190   50.0690 N.ar      1 FAD501      0.0000 
     22 C4A       117.8440  -58.8900   48.7510 C.ar      1 FAD501      0.0000 
     23 N1        118.0830  -71.5390   35.6250 N.2       1 FAD501      0.0000 
     24 C2        118.5000  -72.7350   35.0610 C.2       1 FAD501      0.0000 
     25 O2        119.7040  -73.1570   35.1840 O.2       1 FAD501      0.0000 
     26 N3        117.6090  -73.5170   34.3970 N.am      1 FAD501      0.0000 
     27 C4        116.2740  -73.2080   34.2490 C.2       1 FAD501      0.0000 
     28 O4        115.4520  -73.9890   33.6150 O.2       1 FAD501      0.0000 
     29 C4X       115.7570  -71.9130   34.8460 C.2       1 FAD501      0.0000 
     30 N5        114.4240  -71.5430   34.7150 N.2       1 FAD501      0.0000 
     31 C5X       113.9930  -70.3770   35.2450 C.ar      1 FAD501      0.0000 
     32 C6        112.6310  -69.9850   35.0980 C.ar      1 FAD501      0.0000 
     33 C7        112.1590  -68.7700   35.6850 C.ar      1 FAD501      0.0000 
     34 C7M       110.6990  -68.3850   35.5400 C.3       1 FAD501      0.0000 
     35 C8        113.1630  -67.9080   36.4320 C.ar      1 FAD501      0.0000 
     36 C8M       112.8770  -66.6100   37.0830 C.3       1 FAD501      0.0000 
     37 C9        114.5000  -68.2810   36.5470 C.ar      1 FAD501      0.0000 
     38 C9A       114.9940  -69.4980   36.0030 C.ar      1 FAD501      0.0000 
     39 N10       116.3890  -69.8890   36.1670 N.pl3     1 FAD501      0.0000 
     40 C10       116.7860  -71.0950   35.5640 C.2       1 FAD501      0.0000 
     41 C1'       117.4370  -69.0810   36.8260 C.3       1 FAD501      0.0000 
     42 C2'       117.2830  -69.0140   38.3150 C.3       1 FAD501      0.0000 
     43 O2'       116.0820  -68.3320   38.7580 O.3       1 FAD501      0.0000 
     44 C3'       118.4560  -68.2080   38.8220 C.3       1 FAD501      0.0000 
     45 O3'       119.6080  -68.5650   38.0710 O.3       1 FAD501      0.0000 
     46 C4'       118.5740  -68.6430   40.2800 C.3       1 FAD501      0.0000 
     47 O4'       117.3030  -68.5500   41.0300 O.3       1 FAD501      0.0000 
     48 C5'       119.8120  -68.0470   40.9810 C.3       1 FAD501      0.0000 
     49 O5'       119.5800  -66.7750   41.5910 O.3       1 FAD501      0.0000 
     50 P         120.3740  -66.2310   42.8940 P.3       1 FAD501      0.0000 
     51 O1P       120.2350  -67.1680   44.0840 O.co2     1 FAD501      0.0000 
     52 O2P       121.7340  -65.6500   42.5070 O.co2     1 FAD501      0.0000 
     53 O3P       119.4230  -64.9170   43.1010 O.3       1 FAD501      0.0000 
@<TRIPOS>BOND
     1    1    2 ar   
     2    1    3 ar   
     3    1    4 1    
     4    1   53 1    
     5    4    5 1    
     6    5    6 1    
     7    6    7 1    
     8    6    8 1    
     9    7   12 1    
    10    8    9 1    
    11    8   10 1    
    12   10   11 1    
    13   10   12 1    
    14   12   13 1    
    15   13   14 1    
    16   13   22 1    
    17   14   15 2    
    18   15   16 1    
    19   16   17 ar   
    20   16   22 ar   
    21   17   18 1    
    22   17   19 ar   
    23   19   20 ar   
    24   20   21 ar   
    25   21   22 ar   
    26   23   24 1    
    27   23   40 2    
    28   24   25 2    
    29   24   26 am   
    30   26   27 am   
    31   27   28 2    
    32   27   29 1    
    33   29   30 2    
    34   29   40 1    
    35   30   31 1    
    36   31   32 ar   
    37   31   38 ar   
    38   32   33 ar   
    39   33   34 1    
    40   33   35 ar   
    41   35   36 1    
    42   35   37 ar   
    43   37   38 ar   
    44   38   39 1    
    45   39   40 1    
    46   39   41 1    
    47   41   42 1    
    48   42   43 1    
    49   42   44 1    
    50   44   45 1    
    51   44   46 1    
    52   46   47 1    
    53   46   48 1    
    54   48   49 1    
    55   49   50 1    
    56   50   51 ar   
    57   50   52 ar   
    58   50   53 1    
@<TRIPOS>SUBSTRUCTURE
     1 FAD501      1 GROUP   
@<TRIPOS>SET
ATOM$ORANGE STATIC     ATOMS   COLORGROUP SYSTEM 
54 5 5 6 6 8 8 10 10 12 12 14 14 16 16 17 17 20 \
20 22 22 24 24 27 27 29 29 31 31 32 32 33 33 34 34 35 \
35 36 36 37 37 38 38 40 40 41 41 42 42 44 44 46 46 48 \
48 

