#    Name: 6rvb_9_COA
#    Modification time : Fri May 22 19:29:04 2020

@<TRIPOS>MOLECULE
6rvb_9_COA
   48    50     1     0     1
SMALL
NO_CHARGES


@<TRIPOS>ATOM
      1 N1A       122.5670  -89.2010   46.9700 N.ar      1 COA503      0.0000 
      2 C2A       123.7010  -89.0070   47.7260 C.ar      1 COA503      0.0000 
      3 N3A       124.1600  -87.7980   48.1490 N.ar      1 COA503      0.0000 
      4 C4A       123.5280  -86.6260   47.8350 C.ar      1 COA503      0.0000 
      5 C5A       122.2950  -86.7310   47.0080 C.ar      1 COA503      0.0000 
      6 C6A       121.8340  -88.0950   46.5740 C.ar      1 COA503      0.0000 
      7 N6A       120.7040  -88.1480   45.7930 N.pl3     1 COA503      0.0000 
      8 N7A       121.8430  -85.4540   46.8010 N.2       1 COA503      0.0000 
      9 C8A       122.7170  -84.5930   47.4090 C.2       1 COA503      0.0000 
     10 N9A       123.7110  -85.2800   48.0390 N.pl3     1 COA503      0.0000 
     11 C1B       124.7960  -84.6080   48.8230 C.3       1 COA503      0.0000 
     12 C2B       125.6350  -83.6580   47.9920 C.3       1 COA503      0.0000 
     13 O2B       126.6540  -84.4330   47.3500 O.3       1 COA503      0.0000 
     14 C3B       126.2240  -82.7210   49.0440 C.3       1 COA503      0.0000 
     15 O3B       127.5450  -83.1510   49.4750 O.3       1 COA503      0.0000 
     16 P3B       128.5360  -82.4660   50.5620 P.3       1 COA503      0.0000 
     17 O7A       129.8990  -82.9840   50.0330 O.co2     1 COA503      0.0000 
     18 O8A       128.2900  -80.9660   50.5940 O.co2     1 COA503      0.0000 
     19 O9A       128.0140  -82.9980   51.8720 O.co2     1 COA503      0.0000 
     20 C4B       125.1980  -82.7510   50.1750 C.3       1 COA503      0.0000 
     21 O4B       124.3010  -83.8130   49.9070 O.3       1 COA503      0.0000 
     22 C5B       124.3350  -81.5100   50.2790 C.3       1 COA503      0.0000 
     23 O5B       123.2660  -81.5350   49.3100 O.3       1 COA503      0.0000 
     24 P1A       121.8570  -80.7570   49.6320 P.3       1 COA503      0.0000 
     25 O1A       120.9760  -81.1380   48.5000 O.co2     1 COA503      0.0000 
     26 O2A       121.4020  -81.0160   51.0740 O.co2     1 COA503      0.0000 
     27 O3A       122.3100  -79.2200   49.3800 O.3       1 COA503      0.0000 
     28 P2A       122.6050  -77.9840   50.4190 P.3       1 COA503      0.0000 
     29 O4A       123.9690  -77.3170   50.1380 O.co2     1 COA503      0.0000 
     30 O5A       122.2310  -78.3320   51.8450 O.co2     1 COA503      0.0000 
     31 O6A       121.3580  -77.0880   49.9210 O.3       1 COA503      0.0000 
     32 CBP       120.0010  -75.3780   49.1290 C.3       1 COA503      0.0000 
     33 CCP       121.4000  -75.7240   49.5470 C.3       1 COA503      0.0000 
     34 CDP       119.0420  -76.5380   49.1600 C.3       1 COA503      0.0000 
     35 CEP       119.5120  -74.4830   50.2440 C.3       1 COA503      0.0000 
     36 CAP       120.1710  -74.7860   47.7020 C.3       1 COA503      0.0000 
     37 OAP       120.7090  -75.7660   46.7520 O.3       1 COA503      0.0000 
     38 C9P       118.9190  -74.1670   47.1240 C.2       1 COA503      0.0000 
     39 O9P       118.3700  -73.2040   47.6250 O.2       1 COA503      0.0000 
     40 N8P       118.3690  -74.7140   46.0500 N.am      1 COA503      0.0000 
     41 C7P       116.9800  -74.3000   45.8380 C.3       1 COA503      0.0000 
     42 C6P       116.9040  -73.1840   44.8180 C.3       1 COA503      0.0000 
     43 C5P       117.6460  -73.7020   43.6040 C.2       1 COA503      0.0000 
     44 O5P       118.8800  -73.6790   43.5500 O.2       1 COA503      0.0000 
     45 N4P       116.9610  -74.1810   42.5850 N.am      1 COA503      0.0000 
     46 C3P       117.6470  -73.9740   41.3330 C.3       1 COA503      0.0000 
     47 C2P       117.8120  -72.4770   41.1340 C.3       1 COA503      0.0000 
     48 S1P       116.4800  -72.0800   39.9600 S.3       1 COA503      0.0000 
@<TRIPOS>BOND
     1    1    2 ar   
     2    1    6 ar   
     3    2    3 ar   
     4    3    4 ar   
     5    4    5 ar   
     6    4   10 1    
     7    5    6 ar   
     8    5    8 1    
     9    6    7 1    
    10    8    9 2    
    11    9   10 1    
    12   10   11 1    
    13   11   12 1    
    14   11   21 1    
    15   12   13 1    
    16   12   14 1    
    17   14   15 1    
    18   14   20 1    
    19   15   16 1    
    20   16   17 ar   
    21   16   18 ar   
    22   16   19 ar   
    23   20   21 1    
    24   20   22 1    
    25   22   23 1    
    26   23   24 1    
    27   24   25 ar   
    28   24   26 ar   
    29   24   27 1    
    30   27   28 1    
    31   28   29 ar   
    32   28   30 ar   
    33   28   31 1    
    34   31   33 1    
    35   32   33 1    
    36   32   34 1    
    37   32   35 1    
    38   32   36 1    
    39   36   37 1    
    40   36   38 1    
    41   38   39 2    
    42   38   40 am   
    43   40   41 1    
    44   41   42 1    
    45   42   43 1    
    46   43   44 2    
    47   43   45 am   
    48   45   46 1    
    49   46   47 1    
    50   47   48 1    
@<TRIPOS>SUBSTRUCTURE
     1 COA503      1 GROUP   
@<TRIPOS>SET
ATOM$ORANGE STATIC     ATOMS   COLORGROUP SYSTEM 
42 2 2 4 4 5 5 6 6 9 9 11 11 12 12 14 14 20 \
20 22 22 32 32 33 33 34 34 35 35 36 36 38 38 41 41 42 \
42 43 43 46 46 47 47 

