#    Name: 6rvb_5_NAD
#    Modification time : Fri May 22 19:28:35 2020

@<TRIPOS>MOLECULE
6rvb_5_NAD
   44    49     1     0     1
SMALL
NO_CHARGES


@<TRIPOS>ATOM
      1 PA        113.5450   -6.4640   41.8980 P.3       1 NAD502      0.0000 
      2 O1A       112.2410   -7.2450   41.6330 O.co2     1 NAD502      0.0000 
      3 O2A       113.4250   -5.0570   42.2610 O.co2     1 NAD502      0.0000 
      4 O5B       114.2850   -6.9900   43.2680 O.3       1 NAD502      0.0000 
      5 C5B       113.8820   -6.9260   44.7160 C.3       1 NAD502      0.0000 
      6 C4B       115.1290   -6.4960   45.5120 C.3       1 NAD502      0.0000 
      7 O4B       115.4740   -6.5090   46.8860 O.3       1 NAD502      0.0000 
      8 C3B       116.1940   -7.3460   44.9260 Du        1 NAD502      0.0000 
      9 O3B       116.2650   -7.0700   43.5520 Du        1 NAD502      0.0000 
     10 C2B       117.3520   -6.7720   45.6600 Du        1 NAD502      0.0000 
     11 O2B       118.3820   -6.0350   44.9910 Du        1 NAD502      0.0000 
     12 C1B       116.7920   -5.8320   46.7050 C.3       1 NAD502      0.0000 
     13 N9A       118.2260   -6.1440   47.2180 N.pl3     1 NAD502      0.0000 
     14 C8A       118.7310   -7.3320   47.8340 C.2       1 NAD502      0.0000 
     15 N7A       120.0970   -7.3450   48.0970 N.2       1 NAD502      0.0000 
     16 C5A       120.5170   -6.2010   47.5820 C.ar      1 NAD502      0.0000 
     17 C6A       121.7890   -5.7800   47.6200 C.ar      1 NAD502      0.0000 
     18 N6A       122.6780   -6.5900   48.2030 N.pl3     1 NAD502      0.0000 
     19 N1A       122.0650   -4.5460   47.0440 N.ar      1 NAD502      0.0000 
     20 C2A       121.0150   -3.8240   46.4560 C.ar      1 NAD502      0.0000 
     21 N3A       119.7060   -4.3050   46.4240 N.ar      1 NAD502      0.0000 
     22 C4A       119.4460   -5.4630   47.0120 C.ar      1 NAD502      0.0000 
     23 O3        114.4750   -6.6570   40.6570 O.3       1 NAD502      0.0000 
     24 PN        114.5560   -7.9510   39.7180 P.3       1 NAD502      0.0000 
     25 O1N       115.8590   -7.6940   39.0160 O.co2     1 NAD502      0.0000 
     26 O2N       114.4130   -9.2450   40.3840 O.co2     1 NAD502      0.0000 
     27 O5D       113.2880   -7.6050   38.8130 O.3       1 NAD502      0.0000 
     28 C5D       113.3310   -7.7440   37.3830 C.3       1 NAD502      0.0000 
     29 C4D       112.1280   -7.1820   36.5980 C.3       1 NAD502      0.0000 
     30 O4D       111.9740   -7.7770   35.3030 O.3       1 NAD502      0.0000 
     31 C3D       110.9040   -7.4840   37.4300 C.3       1 NAD502      0.0000 
     32 O3D       110.5740   -6.4620   38.3900 O.3       1 NAD502      0.0000 
     33 C2D       109.9130   -7.6230   36.3340 C.3       1 NAD502      0.0000 
     34 O2D       109.5630   -6.3200   35.9090 O.3       1 NAD502      0.0000 
     35 C1D       110.6820   -8.2930   35.2070 C.3       1 NAD502      0.0000 
     36 N1N       110.5120   -9.6980   35.5730 N.pl3     1 NAD502      0.0000 
     37 C2N       109.2210  -10.1890   35.7630 C.ar      1 NAD502      0.0000 
     38 C3N       108.9250  -11.5210   36.1710 C.ar      1 NAD502      0.0000 
     39 C7N       107.5020  -12.0750   36.3230 C.2       1 NAD502      0.0000 
     40 O7N       106.3370  -11.2780   36.2820 O.2       1 NAD502      0.0000 
     41 N7N       107.3600  -13.4030   36.4380 N.am      1 NAD502      0.0000 
     42 C4N       110.0160  -12.3890   36.3700 C.ar      1 NAD502      0.0000 
     43 C5N       111.3210  -11.8820   36.1770 C.ar      1 NAD502      0.0000 
     44 C6N       111.5620  -10.5350   35.7900 C.ar      1 NAD502      0.0000 
@<TRIPOS>BOND
     1    1    2 ar   
     2    1    3 ar   
     3    1    4 1    
     4    1   23 1    
     5    4    5 1    
     6    5    6 1    
     7    6    7 1    
     8    6    8 du   
     9    7   12 1    
    10    8    9 du   
    11    8   10 du   
    12   10   11 du   
    13   10   12 du   
    14   10   13 du   
    15   12   13 1    
    16   13   14 1    
    17   13   22 1    
    18   14   15 2    
    19   15   16 1    
    20   16   17 ar   
    21   16   22 ar   
    22   17   18 1    
    23   17   19 ar   
    24   19   20 ar   
    25   20   21 ar   
    26   21   22 ar   
    27   23   24 1    
    28   24   25 ar   
    29   24   26 ar   
    30   24   27 1    
    31   27   28 1    
    32   28   29 1    
    33   29   30 1    
    34   29   31 1    
    35   30   35 1    
    36   31   32 1    
    37   31   33 1    
    38   33   34 1    
    39   33   35 1    
    40   35   36 1    
    41   36   37 ar   
    42   36   44 ar   
    43   37   38 ar   
    44   38   39 1    
    45   38   42 ar   
    46   39   40 2    
    47   39   41 am   
    48   42   43 ar   
    49   43   44 ar   
@<TRIPOS>SUBSTRUCTURE
     1 NAD502      1 GROUP   
@<TRIPOS>SET
ATOM$ORANGE STATIC     ATOMS   COLORGROUP SYSTEM 
38 5 5 6 6 12 12 14 14 16 16 17 17 20 20 22 22 28 \
28 29 29 31 31 33 33 35 35 37 37 38 38 39 39 42 42 43 \
43 44 44 

