#    Name: 6rvb_12_COA_CAVITY_N1_ALL
#    Modification time : Fri May 22 19:29:24 2020

@<TRIPOS>MOLECULE
6rvb_12_COA_CAVITY_N1_ALL
   81     0     5     0     0
SMALL
NO_CHARGES


@<TRIPOS>ATOM
      1 OG         31.6200  -62.9600    7.5800 O.3       1 SER1        0.0000 
      2 OG         35.0700  -59.7100    7.5100 O.3       1 SER1        0.0000 
      3 OG         35.2800  -59.2800    5.4400 O.3       1 SER1        0.0000 
      4 OG         35.7000  -60.4000    6.3400 O.3       1 SER1        0.0000 
      5 OG         36.3600  -58.9900    7.7900 O.3       1 SER1        0.0000 
      6 N          30.1200  -64.1000    9.3700 N.am      2 ALA2        0.0000 
      7 N          30.3300  -63.6700    7.3000 N.am      2 ALA2        0.0000 
      8 N          30.5400  -63.2400    5.2300 N.am      2 ALA2        0.0000 
      9 N          30.9600  -64.3700    6.1300 N.am      2 ALA2        0.0000 
     10 N          32.0500  -64.0900    8.4800 N.am      2 ALA2        0.0000 
     11 N          32.9100  -62.2500    7.8500 N.am      2 ALA2        0.0000 
     12 N          33.3400  -63.3800    8.7500 N.am      2 ALA2        0.0000 
     13 N          32.6900  -60.7000    4.8900 N.am      2 ALA2        0.0000 
     14 N          33.1500  -59.7200    8.4000 N.am      2 ALA2        0.0000 
     15 N          33.7800  -60.4200    7.2300 N.am      2 ALA2        0.0000 
     16 N          34.2100  -61.5400    8.1300 N.am      2 ALA2        0.0000 
     17 O          34.2300  -59.4400   10.7500 O.2       2 ALA2        0.0000 
     18 N          34.4400  -59.0100    8.6800 N.am      2 ALA2        0.0000 
     19 N          34.8600  -60.1400    9.5800 N.am      2 ALA2        0.0000 
     20 N          35.5000  -60.8300    8.4100 N.am      2 ALA2        0.0000 
     21 N          34.6900  -58.4700   14.2600 N.am      2 ALA2        0.0000 
     22 N          35.1100  -59.5900   15.1600 N.am      2 ALA2        0.0000 
     23 O          35.3200  -59.1600   13.0900 O.2       2 ALA2        0.0000 
     24 O          35.5200  -58.7300   11.0200 O.2       2 ALA2        0.0000 
     25 O          35.9500  -59.8500   11.9200 O.2       2 ALA2        0.0000 
     26 N          35.7300  -58.3000    8.9600 N.am      2 ALA2        0.0000 
     27 N          35.9800  -57.7600   14.5400 N.am      2 ALA2        0.0000 
     28 N          35.7600  -56.2000   11.5700 N.am      2 ALA2        0.0000 
     29 N          36.1800  -57.3300   12.4700 N.am      2 ALA2        0.0000 
     30 N          36.3900  -56.9000   10.4000 N.am      2 ALA2        0.0000 
     31 N          36.8200  -58.0200   11.3000 N.am      2 ALA2        0.0000 
     32 O          37.0200  -57.5900    9.2300 O.2       2 ALA2        0.0000 
     33 OD1        30.1000  -66.2000    6.7500 O.co2     3 ASP3        0.0000 
     34 OD1        31.3900  -65.4900    7.0300 O.co2     3 ASP3        0.0000 
     35 OD1        31.8200  -66.6100    7.9300 O.co2     3 ASP3        0.0000 
     36 OD1        31.1700  -63.9400    4.0600 O.co2     3 ASP3        0.0000 
     37 OD1        31.5900  -65.0600    4.9600 O.co2     3 ASP3        0.0000 
     38 OD1        32.0200  -66.1800    5.8600 O.co2     3 ASP3        0.0000 
     39 OD1        32.8900  -64.3500    5.2400 O.co2     3 ASP3        0.0000 
     40 OD1        33.3100  -65.4700    6.1300 O.co2     3 ASP3        0.0000 
     41 OD1        33.7500  -62.5200    4.6200 O.co2     3 ASP3        0.0000 
     42 OD1        34.1800  -63.6400    5.5100 O.co2     3 ASP3        0.0000 
     43 OD1        34.6200  -60.6800    4.0000 O.co2     3 ASP3        0.0000 
     44 OD1        35.0400  -61.8000    4.8900 O.co2     3 ASP3        0.0000 
     45 OD1        35.4700  -62.9300    5.7900 O.co2     3 ASP3        0.0000 
     46 OD1        36.3300  -61.0900    5.1700 O.co2     3 ASP3        0.0000 
     47 OD1        36.7600  -62.2200    6.0700 O.co2     3 ASP3        0.0000 
     48 CA         29.0400  -64.3800    7.0300 C.3       4 GLY6        0.0000 
     49 CA         29.6700  -65.0800    5.8600 C.3       4 GLY6        0.0000 
     50 CA         30.5500  -65.2300   10.2700 C.3       4 GLY6        0.0000 
     51 CA         30.7600  -64.8000    8.2000 C.3       4 GLY6        0.0000 
     52 CA         31.1800  -65.9200    9.1000 C.3       4 GLY6        0.0000 
     53 CA         31.8300  -62.5300    5.5100 C.3       4 GLY6        0.0000 
     54 CA         32.4600  -63.2300    4.3400 C.3       4 GLY6        0.0000 
     55 CA         32.4900  -61.1300    6.9600 C.3       4 GLY6        0.0000 
     56 CA         33.1200  -61.8200    5.7900 C.3       4 GLY6        0.0000 
     57 CA         33.3500  -59.2900    6.3400 C.3       4 GLY6        0.0000 
     58 CA         33.9800  -59.9900    5.1700 C.3       4 GLY6        0.0000 
     59 CA         33.8100  -58.3200    9.8500 C.3       4 GLY6        0.0000 
     60 CA         34.0100  -57.8900    7.7800 C.3       4 GLY6        0.0000 
     61 CA         34.6400  -58.5800    6.6100 C.3       4 GLY6        0.0000 
     62 CA         36.1300  -61.5200    7.2400 C.3       4 GLY6        0.0000 
     63 CA         34.2600  -57.3400   13.3600 C.3       4 GLY6        0.0000 
     64 CA         34.8900  -58.0400   12.1900 C.3       4 GLY6        0.0000 
     65 CA         35.1000  -57.6100   10.1300 C.3       4 GLY6        0.0000 
     66 CA         36.7900  -60.1200    8.6800 C.3       4 GLY6        0.0000 
     67 CA         35.5500  -56.6300   13.6400 C.3       4 GLY6        0.0000 
     68 CA         37.4500  -58.7100   10.1300 C.3       4 GLY6        0.0000 
     69 CA         37.9000  -57.7400   13.6400 C.3       4 GLY6        0.0000 
     70 CA         38.5300  -58.4300   12.4700 C.3       4 GLY6        0.0000 
     71 CA         38.7400  -58.0000   10.4100 C.3       4 GLY6        0.0000 
     72 CA         39.1700  -59.1300   11.3000 C.3       4 GLY6        0.0000 
     73 DU         32.2500  -63.6600    6.4100 H         5 CUB7        0.0000 
     74 DU         32.6800  -64.7800    7.3100 H         5 CUB7        0.0000 
     75 DU         33.5500  -62.9500    6.6800 H         5 CUB7        0.0000 
     76 DU         33.9700  -64.0700    7.5800 H         5 CUB7        0.0000 
     77 DU         34.4100  -61.1100    6.0600 H         5 CUB7        0.0000 
     78 DU         34.8400  -62.2300    6.9600 H         5 CUB7        0.0000 
     79 DU         36.1600  -59.4200    9.8500 H         5 CUB7        0.0000 
     80 DU         36.6100  -58.4500   13.3700 H         5 CUB7        0.0000 
     81 DU         37.2400  -59.1400   12.2000 H         5 CUB7        0.0000 
@<TRIPOS>BOND
@<TRIPOS>SUBSTRUCTURE
     1 SER1        1 GROUP   
     2 ALA2        6 GROUP   
     3 ASP3       33 GROUP   
     4 GLY6       48 GROUP   
     5 CUB7       73 GROUP   
@<TRIPOS>SET

