#    Name: 6rvb_10_FAD
#    Modification time : Fri May 22 19:29:10 2020

@<TRIPOS>MOLECULE
6rvb_10_FAD
   53    58     1     0     1
SMALL
NO_CHARGES


@<TRIPOS>ATOM
      1 PA         32.2840  -50.3580   12.5870 P.3       1 FAD501      0.0000 
      2 O1A        32.1420  -49.2040   13.7070 O.co2     1 FAD501      0.0000 
      3 O2A        33.4140  -51.3790   12.6300 O.co2     1 FAD501      0.0000 
      4 O5B        32.3890  -49.8810   11.0280 O.3       1 FAD501      0.0000 
      5 C5B        31.4770  -48.9330   10.4370 C.3       1 FAD501      0.0000 
      6 C4B        32.0710  -48.2230    9.2290 C.3       1 FAD501      0.0000 
      7 O4B        30.9260  -47.7270    8.6130 O.3       1 FAD501      0.0000 
      8 C3B        32.9370  -47.0360    9.6440 C.3       1 FAD501      0.0000 
      9 O3B        34.3430  -47.1700    9.2370 O.3       1 FAD501      0.0000 
     10 C2B        32.2780  -45.9100    8.9430 C.3       1 FAD501      0.0000 
     11 O2B        33.3760  -45.2960    8.2370 O.3       1 FAD501      0.0000 
     12 C1B        31.2370  -46.5430    8.0050 C.3       1 FAD501      0.0000 
     13 N9A        30.0780  -45.6030    7.8920 N.pl3     1 FAD501      0.0000 
     14 C8A        29.4360  -44.9730    8.9280 C.2       1 FAD501      0.0000 
     15 N7A        28.4760  -44.0900    8.4680 N.2       1 FAD501      0.0000 
     16 C5A        28.5070  -44.1550    7.0900 C.ar      1 FAD501      0.0000 
     17 C6A        27.7600  -43.4750    5.9660 C.ar      1 FAD501      0.0000 
     18 N6A        26.8090  -42.5440    6.2600 N.pl3     1 FAD501      0.0000 
     19 N1A        28.1250  -43.8140    4.6890 N.ar      1 FAD501      0.0000 
     20 C2A        29.1080  -44.7350    4.4630 C.ar      1 FAD501      0.0000 
     21 N3A        29.8340  -45.4070    5.3920 N.ar      1 FAD501      0.0000 
     22 C4A        29.5820  -45.1470    6.7030 C.ar      1 FAD501      0.0000 
     23 N1         35.1000  -56.6660   19.6270 N.2       1 FAD501      0.0000 
     24 C2         35.2710  -57.9480   20.1600 C.2       1 FAD501      0.0000 
     25 O2         34.3680  -58.8580   20.0740 O.2       1 FAD501      0.0000 
     26 N3         36.4510  -58.2770   20.7930 N.am      1 FAD501      0.0000 
     27 C4         37.5310  -57.4220   20.9350 C.2       1 FAD501      0.0000 
     28 O4         38.6210  -57.7660   21.5090 O.2       1 FAD501      0.0000 
     29 C4X        37.4050  -56.0350   20.3710 C.2       1 FAD501      0.0000 
     30 N5         38.4470  -55.1490   20.4940 N.2       1 FAD501      0.0000 
     31 C5X        38.3710  -53.8650   19.9950 C.ar      1 FAD501      0.0000 
     32 C6         39.4720  -52.9450   20.1230 C.ar      1 FAD501      0.0000 
     33 C7         39.3260  -51.6590   19.5960 C.ar      1 FAD501      0.0000 
     34 C7M        40.4650  -50.7030   19.7180 C.3       1 FAD501      0.0000 
     35 C8         38.0480  -51.2320   18.9250 C.ar      1 FAD501      0.0000 
     36 C8M        37.8180  -49.8600   18.3280 C.3       1 FAD501      0.0000 
     37 C9         36.9820  -52.1350   18.8070 C.ar      1 FAD501      0.0000 
     38 C9A        37.0510  -53.4640   19.3040 C.ar      1 FAD501      0.0000 
     39 N10        35.9340  -54.4110   19.1540 N.pl3     1 FAD501      0.0000 
     40 C10        36.0950  -55.7080   19.6950 C.2       1 FAD501      0.0000 
     41 C1'        34.6330  -54.0840   18.5420 C.3       1 FAD501      0.0000 
     42 C2'        34.6760  -53.9540   17.0430 C.3       1 FAD501      0.0000 
     43 O2'        35.5380  -52.8760   16.5560 O.3       1 FAD501      0.0000 
     44 C3'        33.2260  -53.7580   16.5500 C.3       1 FAD501      0.0000 
     45 O3'        32.2930  -54.5470   17.2950 O.3       1 FAD501      0.0000 
     46 C4'        33.1920  -54.2040   15.0810 C.3       1 FAD501      0.0000 
     47 O4'        34.1990  -53.5450   14.2280 O.3       1 FAD501      0.0000 
     48 C5'        31.7800  -54.1800   14.5170 C.3       1 FAD501      0.0000 
     49 O5'        31.5180  -52.9450   13.8890 O.3       1 FAD501      0.0000 
     50 P          30.5350  -52.7910   12.5920 P.3       1 FAD501      0.0000 
     51 O1P        31.0930  -53.4400   11.3270 O.co2     1 FAD501      0.0000 
     52 O2P        29.0160  -52.7740   12.9730 O.co2     1 FAD501      0.0000 
     53 O3P        30.9100  -51.2320   12.3020 O.3       1 FAD501      0.0000 
@<TRIPOS>BOND
     1    1    2 ar   
     2    1    3 ar   
     3    1    4 1    
     4    1   53 1    
     5    4    5 1    
     6    5    6 1    
     7    6    7 1    
     8    6    8 1    
     9    7   12 1    
    10    8    9 1    
    11    8   10 1    
    12   10   11 1    
    13   10   12 1    
    14   12   13 1    
    15   13   14 1    
    16   13   22 1    
    17   14   15 2    
    18   15   16 1    
    19   16   17 ar   
    20   16   22 ar   
    21   17   18 1    
    22   17   19 ar   
    23   19   20 ar   
    24   20   21 ar   
    25   21   22 ar   
    26   23   24 1    
    27   23   40 2    
    28   24   25 2    
    29   24   26 am   
    30   26   27 am   
    31   27   28 2    
    32   27   29 1    
    33   29   30 2    
    34   29   40 1    
    35   30   31 1    
    36   31   32 ar   
    37   31   38 ar   
    38   32   33 ar   
    39   33   34 1    
    40   33   35 ar   
    41   35   36 1    
    42   35   37 ar   
    43   37   38 ar   
    44   38   39 1    
    45   39   40 1    
    46   39   41 1    
    47   41   42 1    
    48   42   43 1    
    49   42   44 1    
    50   44   45 1    
    51   44   46 1    
    52   46   47 1    
    53   46   48 1    
    54   48   49 1    
    55   49   50 1    
    56   50   51 ar   
    57   50   52 ar   
    58   50   53 1    
@<TRIPOS>SUBSTRUCTURE
     1 FAD501      1 GROUP   
@<TRIPOS>SET
ATOM$ORANGE STATIC     ATOMS   COLORGROUP SYSTEM 
54 5 5 6 6 8 8 10 10 12 12 14 14 16 16 17 17 20 \
20 22 22 24 24 27 27 29 29 31 31 32 32 33 33 34 34 35 \
35 36 36 37 37 38 38 40 40 41 41 42 42 44 44 46 46 48 \
48 

