#    Name: 6rvb_8_NAD
#    Modification time : Fri May 22 19:28:59 2020

@<TRIPOS>MOLECULE
6rvb_8_NAD
   44    49     1     0     1
SMALL
NO_CHARGES


@<TRIPOS>ATOM
      1 PA        116.3780  -63.0900   27.2830 P.3       1 NAD502      0.0000 
      2 O1A       116.9240  -64.4730   27.2780 O.co2     1 NAD502      0.0000 
      3 O2A       117.4510  -62.1090   27.2440 O.co2     1 NAD502      0.0000 
      4 O5B       115.3780  -62.8080   26.0210 O.3       1 NAD502      0.0000 
      5 C5B       115.6450  -62.7570   24.5460 C.3       1 NAD502      0.0000 
      6 C4B       115.1510  -61.4040   24.0010 C.3       1 NAD502      0.0000 
      7 O4B       114.9520  -60.8300   22.7000 O.3       1 NAD502      0.0000 
      8 C3B       113.8510  -61.2990   24.7460 Du        1 NAD502      0.0000 
      9 O3B       114.1240  -61.2630   26.1280 Du        1 NAD502      0.0000 
     10 C2B       113.3490  -60.0080   24.1850 Du        1 NAD502      0.0000 
     11 O2B       113.1840  -58.8380   24.9430 Du        1 NAD502      0.0000 
     12 C1B       114.3830  -59.5340   23.2320 C.3       1 NAD502      0.0000 
     13 N9A       113.0930  -58.6980   22.9390 N.pl3     1 NAD502      0.0000 
     14 C8A       111.8660  -59.0220   22.2580 C.2       1 NAD502      0.0000 
     15 N7A       110.8910  -58.0640   22.1720 N.2       1 NAD502      0.0000 
     16 C5A       111.4540  -57.0990   22.8810 C.ar      1 NAD502      0.0000 
     17 C6A       110.9250  -55.9050   23.1000 C.ar      1 NAD502      0.0000 
     18 N6A       109.7880  -55.7990   22.5310 N.pl3     1 NAD502      0.0000 
     19 N1A       111.5300  -54.9610   23.8440 N.ar      1 NAD502      0.0000 
     20 C2A       112.7840  -55.3270   24.3290 C.ar      1 NAD502      0.0000 
     21 N3A       113.3950  -56.5760   24.1140 N.ar      1 NAD502      0.0000 
     22 C4A       112.7310  -57.4440   23.3850 C.ar      1 NAD502      0.0000 
     23 O3        115.6860  -62.8570   28.6910 O.3       1 NAD502      0.0000 
     24 PN        114.7600  -63.8640   29.5120 P.3       1 NAD502      0.0000 
     25 O1N       114.0230  -62.8220   30.3640 O.co2     1 NAD502      0.0000 
     26 O2N       113.9660  -64.8240   28.7190 O.co2     1 NAD502      0.0000 
     27 O5D       115.9580  -64.7080   30.2490 O.3       1 NAD502      0.0000 
     28 C5D       115.8490  -65.0300   31.6460 C.3       1 NAD502      0.0000 
     29 C4D       117.0900  -65.5520   32.3220 C.3       1 NAD502      0.0000 
     30 O4D       116.7930  -66.3640   33.4640 O.3       1 NAD502      0.0000 
     31 C3D       117.7660  -66.4280   31.2700 C.3       1 NAD502      0.0000 
     32 O3D       118.6600  -65.7190   30.3610 O.3       1 NAD502      0.0000 
     33 C2D       118.3680  -67.4870   32.1810 C.3       1 NAD502      0.0000 
     34 O2D       119.4650  -66.9320   32.8110 O.3       1 NAD502      0.0000 
     35 C1D       117.3650  -67.6630   33.2970 C.3       1 NAD502      0.0000 
     36 N1N       116.4780  -68.6990   32.6910 N.pl3     1 NAD502      0.0000 
     37 C2N       117.0050  -69.9080   32.2490 C.ar      1 NAD502      0.0000 
     38 C3N       116.2610  -70.9330   31.6180 C.ar      1 NAD502      0.0000 
     39 C7N       116.8630  -72.2610   31.1740 C.2       1 NAD502      0.0000 
     40 O7N       118.2570  -72.4670   31.0420 O.2       1 NAD502      0.0000 
     41 N7N       116.0100  -73.2750   30.9150 N.am      1 NAD502      0.0000 
     42 C4N       114.8930  -70.7410   31.4430 C.ar      1 NAD502      0.0000 
     43 C5N       114.3700  -69.5280   31.8940 C.ar      1 NAD502      0.0000 
     44 C6N       115.1440  -68.5080   32.4970 C.ar      1 NAD502      0.0000 
@<TRIPOS>BOND
     1    1    2 ar   
     2    1    3 ar   
     3    1    4 1    
     4    1   23 1    
     5    4    5 1    
     6    5    6 1    
     7    6    7 1    
     8    6    8 du   
     9    7   12 1    
    10    8    9 du   
    11    8   10 du   
    12   10   11 du   
    13   10   12 du   
    14   10   13 du   
    15   12   13 1    
    16   13   14 1    
    17   13   22 1    
    18   14   15 2    
    19   15   16 1    
    20   16   17 ar   
    21   16   22 ar   
    22   17   18 1    
    23   17   19 ar   
    24   19   20 ar   
    25   20   21 ar   
    26   21   22 ar   
    27   23   24 1    
    28   24   25 ar   
    29   24   26 ar   
    30   24   27 1    
    31   27   28 1    
    32   28   29 1    
    33   29   30 1    
    34   29   31 1    
    35   30   35 1    
    36   31   32 1    
    37   31   33 1    
    38   33   34 1    
    39   33   35 1    
    40   35   36 1    
    41   36   37 ar   
    42   36   44 ar   
    43   37   38 ar   
    44   38   39 1    
    45   38   42 ar   
    46   39   40 2    
    47   39   41 am   
    48   42   43 ar   
    49   43   44 ar   
@<TRIPOS>SUBSTRUCTURE
     1 NAD502      1 GROUP   
@<TRIPOS>SET
ATOM$ORANGE STATIC     ATOMS   COLORGROUP SYSTEM 
38 5 5 6 6 12 12 14 14 16 16 17 17 20 20 22 22 28 \
28 29 29 31 31 33 33 35 35 37 37 38 38 39 39 42 42 43 \
43 44 44 

