#    Name: 6rvb_11_NAD
#    Modification time : Fri May 22 19:29:17 2020

@<TRIPOS>MOLECULE
6rvb_11_NAD
   44    49     1     0     1
SMALL
NO_CHARGES


@<TRIPOS>ATOM
      1 PA         33.3070  -48.3020   28.0050 P.3       1 NAD502      0.0000 
      2 O1A        33.5860  -49.7550   28.0380 O.co2     1 NAD502      0.0000 
      3 O2A        31.9030  -47.8080   28.1120 O.co2     1 NAD502      0.0000 
      4 O5B        34.1500  -47.6230   29.2470 O.3       1 NAD502      0.0000 
      5 C5B        33.8360  -47.5490   30.6870 C.3       1 NAD502      0.0000 
      6 C4B        33.8330  -46.0630   31.2110 C.3       1 NAD502      0.0000 
      7 O4B        33.7730  -45.4200   32.5330 O.3       1 NAD502      0.0000 
      8 C3B        35.0950  -45.5210   30.6220 Du        1 NAD502      0.0000 
      9 O3B        34.9380  -45.7160   29.2340 Du        1 NAD502      0.0000 
     10 C2B        34.9180  -44.0920   31.0670 Du        1 NAD502      0.0000 
     11 O2B        34.3940  -43.0710   30.2140 Du        1 NAD502      0.0000 
     12 C1B        33.8010  -44.0360   32.0470 C.3       1 NAD502      0.0000 
     13 N9A        34.6450  -42.8030   32.3620 N.pl3     1 NAD502      0.0000 
     14 C8A        35.9230  -42.5990   33.0080 C.2       1 NAD502      0.0000 
     15 N7A        36.4370  -41.2960   33.0450 N.2       1 NAD502      0.0000 
     16 C5A        35.4720  -40.6720   32.3600 C.ar      1 NAD502      0.0000 
     17 C6A        35.4930  -39.4040   32.0890 C.ar      1 NAD502      0.0000 
     18 N6A        36.5660  -38.8430   32.5540 N.pl3     1 NAD502      0.0000 
     19 N1A        34.4970  -38.8260   31.3380 N.ar      1 NAD502      0.0000 
     20 C2A        33.4750  -39.6740   30.8780 C.ar      1 NAD502      0.0000 
     21 N3A        33.4430  -41.0550   31.1440 N.ar      1 NAD502      0.0000 
     22 C4A        34.4240  -41.5210   31.9010 C.ar      1 NAD502      0.0000 
     23 O3         33.8140  -47.7820   26.6010 O.3       1 NAD502      0.0000 
     24 PN         35.0610  -48.2660   25.7180 P.3       1 NAD502      0.0000 
     25 O1N        35.2900  -47.0090   24.8880 O.co2     1 NAD502      0.0000 
     26 O2N        36.2180  -48.8190   26.4000 O.co2     1 NAD502      0.0000 
     27 O5D        34.4870  -49.5960   25.0660 O.3       1 NAD502      0.0000 
     28 C5D        34.7090  -49.8230   23.6720 C.3       1 NAD502      0.0000 
     29 C4D        33.7810  -50.8610   23.0420 C.3       1 NAD502      0.0000 
     30 O4D        34.2950  -51.4580   21.8300 O.3       1 NAD502      0.0000 
     31 C3D        33.5250  -51.9240   24.1140 C.3       1 NAD502      0.0000 
     32 O3D        32.4490  -51.6500   25.0460 O.3       1 NAD502      0.0000 
     33 C2D        33.3310  -53.1280   23.2240 C.3       1 NAD502      0.0000 
     34 O2D        31.9810  -53.1760   22.8500 O.3       1 NAD502      0.0000 
     35 C1D        34.2230  -52.8540   22.0190 C.3       1 NAD502      0.0000 
     36 N1N        35.4670  -53.4180   22.5440 N.pl3     1 NAD502      0.0000 
     37 C2N        35.4850  -54.7220   23.0240 C.ar      1 NAD502      0.0000 
     38 C3N        36.6370  -55.3380   23.5860 C.ar      1 NAD502      0.0000 
     39 C7N        36.6470  -56.7790   24.0330 C.2       1 NAD502      0.0000 
     40 O7N        35.3880  -57.4390   24.2080 O.2       1 NAD502      0.0000 
     41 N7N        37.8590  -57.3650   24.1990 N.am      1 NAD502      0.0000 
     42 C4N        37.8160  -54.6030   23.6720 C.ar      1 NAD502      0.0000 
     43 C5N        37.7820  -53.2710   23.2150 C.ar      1 NAD502      0.0000 
     44 C6N        36.6090  -52.6830   22.6660 C.ar      1 NAD502      0.0000 
@<TRIPOS>BOND
     1    1    2 ar   
     2    1    3 ar   
     3    1    4 1    
     4    1   23 1    
     5    4    5 1    
     6    5    6 1    
     7    6    7 1    
     8    6    8 du   
     9    7   12 1    
    10    8    9 du   
    11    8   10 du   
    12   10   11 du   
    13   10   12 du   
    14   10   13 du   
    15   12   13 1    
    16   13   14 1    
    17   13   22 1    
    18   14   15 2    
    19   15   16 1    
    20   16   17 ar   
    21   16   22 ar   
    22   17   18 1    
    23   17   19 ar   
    24   19   20 ar   
    25   20   21 ar   
    26   21   22 ar   
    27   23   24 1    
    28   24   25 ar   
    29   24   26 ar   
    30   24   27 1    
    31   27   28 1    
    32   28   29 1    
    33   29   30 1    
    34   29   31 1    
    35   30   35 1    
    36   31   32 1    
    37   31   33 1    
    38   33   34 1    
    39   33   35 1    
    40   35   36 1    
    41   36   37 ar   
    42   36   44 ar   
    43   37   38 ar   
    44   38   39 1    
    45   38   42 ar   
    46   39   40 2    
    47   39   41 am   
    48   42   43 ar   
    49   43   44 ar   
@<TRIPOS>SUBSTRUCTURE
     1 NAD502      1 GROUP   
@<TRIPOS>SET
ATOM$ORANGE STATIC     ATOMS   COLORGROUP SYSTEM 
38 5 5 6 6 12 12 14 14 16 16 17 17 20 20 22 22 28 \
28 29 29 31 31 33 33 35 35 37 37 38 38 39 39 42 42 43 \
43 44 44 

