#    Name: 6dzw_1_8PR
#    Modification time : Fri May 22 19:25:48 2020

@<TRIPOS>MOLECULE
6dzw_1_8PR
   24    27     1     0     0
SMALL
NO_CHARGES


@<TRIPOS>ATOM
      1 FAA       123.1980  129.6100  106.6260 F         1 8PR701      0.0000 
      2 CAB       125.3860  128.8330  106.4860 C.ar      1 8PR701      0.0000 
      3 CAC       124.9380  131.0910  105.7880 C.ar      1 8PR701      0.0000 
      4 CAD       130.3440  133.6530  108.8900 C.ar      1 8PR701      0.0000 
      5 CAE       126.7260  129.0030  106.1770 C.ar      1 8PR701      0.0000 
      6 CAF       126.2790  131.2610  105.4790 C.ar      1 8PR701      0.0000 
      7 CAG       130.5670  134.9290  109.3870 C.ar      1 8PR701      0.0000 
      8 CAH       129.4910  134.5880  106.8430 C.ar      1 8PR701      0.0000 
      9 CAI       130.5100  128.8730  104.1770 C.3       1 8PR701      0.0000 
     10 CAJ       129.0070  129.0870  104.3950 C.3       1 8PR701      0.0000 
     11 CAK       130.9640  129.7510  106.4780 C.3       1 8PR701      0.0000 
     12 CAL       129.6960  138.1140  107.8060 C.3       1 8PR701      0.0000 
     13 CAM       129.2660  131.2070  107.6040 C.3       1 8PR701      0.0000 
     14 NAN       131.2420  128.6650  105.4790 N.4       1 8PR701      0.0000 
     15 OAO       129.4750  132.3660  106.8510 O.3       1 8PR701      0.0000 
     16 OAP       130.3600  137.4380  108.8440 O.3       1 8PR701      0.0000 
     17 OAQ       129.4930  137.1620  106.7910 O.3       1 8PR701      0.0000 
     18 CAR       124.4940  129.8770  106.2910 C.ar      1 8PR701      0.0000 
     19 CAS       129.8080  133.4850  107.6210 C.ar      1 8PR701      0.0000 
     20 CAT       127.1700  130.2180  105.6750 C.ar      1 8PR701      0.0000 
     21 CAU       130.2460  136.0480  108.6020 C.ar      1 8PR701      0.0000 
     22 CAV       129.7150  135.8790  107.3460 C.ar      1 8PR701      0.0000 
     23 CAW       129.4600  129.9620  106.7020 C.3       1 8PR701      0.0000 
     24 CAX       128.7220  130.1690  105.4000 C.3       1 8PR701      0.0000 
@<TRIPOS>BOND
     1    1   18 1    
     2    2    5 ar   
     3    2   18 ar   
     4    3    6 ar   
     5    3   18 ar   
     6    4    7 ar   
     7    4   19 ar   
     8    5   20 ar   
     9    6   20 ar   
    10    7   21 ar   
    11    8   19 ar   
    12    8   22 ar   
    13    9   10 1    
    14    9   14 1    
    15   10   24 1    
    16   11   14 1    
    17   11   23 1    
    18   12   16 1    
    19   12   17 1    
    20   13   15 1    
    21   13   23 1    
    22   15   19 1    
    23   16   21 1    
    24   17   22 1    
    25   20   24 1    
    26   21   22 ar   
    27   23   24 1    
@<TRIPOS>SUBSTRUCTURE
     1 8PR701      1 GROUP   
@<TRIPOS>SET

