#    Name: 5y4p_4_S4M
#    Modification time : Fri May 22 19:25:56 2020

@<TRIPOS>MOLECULE
5y4p_4_S4M
   24    26     1     0     0
SMALL
NO_CHARGES


@<TRIPOS>ATOM
      1 CA         -8.6750   28.9050  -28.4680 C.3       1 S4M301      0.0000 
      2 N          -9.5430   28.5650  -29.6180 N.3       1 S4M301      0.0000 
      3 CB         -8.3030   27.5800  -27.8570 C.3       1 S4M301      0.0000 
      4 CG         -6.9380   27.1280  -28.3230 C.3       1 S4M301      0.0000 
      5 SD         -7.0450   25.8930  -29.6610 S.3       1 S4M301      0.0000 
      6 CE         -8.0020   24.5750  -28.8400 C.3       1 S4M301      0.0000 
      7 C5'        -5.3740   25.2510  -29.2580 C.3       1 S4M301      0.0000 
      8 C4'        -4.8680   24.3610  -30.3830 C.3       1 S4M301      0.0000 
      9 O4'        -3.4720   24.5070  -30.6930 O.3       1 S4M301      0.0000 
     10 C1'        -3.0950   23.2290  -31.1960 C.3       1 S4M301      0.0000 
     11 C2'        -3.6880   22.3040  -30.1580 C.3       1 S4M301      0.0000 
     12 O2'        -3.8370   20.9850  -30.6440 O.3       1 S4M301      0.0000 
     13 C3'        -5.0440   22.9350  -29.9480 C.3       1 S4M301      0.0000 
     14 O3'        -6.0700   22.4320  -30.7950 O.3       1 S4M301      0.0000 
     15 N9         -1.6530   23.1720  -31.3320 N.pl3     1 S4M301      0.0000 
     16 C8         -0.7560   23.1170  -30.3010 C.ar      1 S4M301      0.0000 
     17 N7          0.4780   23.0830  -30.7560 N.ar      1 S4M301      0.0000 
     18 C5          0.3780   23.1160  -32.1260 C.ar      1 S4M301      0.0000 
     19 C6          1.3490   23.1000  -33.1210 C.ar      1 S4M301      0.0000 
     20 N6          2.7160   23.0410  -32.8100 N.pl3     1 S4M301      0.0000 
     21 C4         -0.9440   23.1730  -32.5040 C.ar      1 S4M301      0.0000 
     22 N3         -1.3900   23.2140  -33.7670 N.ar      1 S4M301      0.0000 
     23 C2         -0.3800   23.1990  -34.6450 C.ar      1 S4M301      0.0000 
     24 N1          0.9390   23.1440  -34.4010 N.ar      1 S4M301      0.0000 
@<TRIPOS>BOND
     1    1    2 1    
     2    1    3 1    
     3    3    4 1    
     4    4    5 1    
     5    5    6 1    
     6    5    7 1    
     7    7    8 1    
     8    8    9 1    
     9    8   13 1    
    10    9   10 1    
    11   10   11 1    
    12   10   15 1    
    13   11   12 1    
    14   11   13 1    
    15   13   14 1    
    16   15   16 ar   
    17   15   21 ar   
    18   16   17 ar   
    19   17   18 ar   
    20   18   19 ar   
    21   18   21 ar   
    22   19   20 1    
    23   19   24 ar   
    24   21   22 ar   
    25   22   23 ar   
    26   23   24 ar   
@<TRIPOS>SUBSTRUCTURE
     1 S4M301      1 GROUP   
@<TRIPOS>SET

