#    Name: 5y4p_1_S4M
#    Modification time : Fri May 22 19:25:50 2020

@<TRIPOS>MOLECULE
5y4p_1_S4M
   24    26     1     0     0
SMALL
NO_CHARGES


@<TRIPOS>ATOM
      1 CA         -6.4050   -0.7910  -64.2490 C.3       1 S4M301      0.0000 
      2 N          -7.0830    0.3340  -64.9360 N.3       1 S4M301      0.0000 
      3 CB         -4.9700   -0.8120  -64.7370 C.3       1 S4M301      0.0000 
      4 CG         -4.8150   -1.3990  -66.1120 C.3       1 S4M301      0.0000 
      5 SD         -4.4850   -0.0990  -67.3480 S.3       1 S4M301      0.0000 
      6 CE         -5.1840   -1.1640  -68.6470 C.3       1 S4M301      0.0000 
      7 C5'        -2.6960   -0.4820  -67.5690 C.3       1 S4M301      0.0000 
      8 C4'        -2.0690    0.3310  -68.7050 C.3       1 S4M301      0.0000 
      9 O4'        -0.7190    0.7620  -68.4740 O.3       1 S4M301      0.0000 
     10 C1'        -0.1700    0.9410  -69.7950 C.3       1 S4M301      0.0000 
     11 C2'        -0.5950   -0.3060  -70.5160 C.3       1 S4M301      0.0000 
     12 O2'        -0.5680   -0.0720  -71.9050 O.3       1 S4M301      0.0000 
     13 C3'        -1.9910   -0.5010  -69.9560 C.3       1 S4M301      0.0000 
     14 O3'        -3.0150    0.0420  -70.7620 O.3       1 S4M301      0.0000 
     15 N9          1.2820    1.1350  -69.7730 N.pl3     1 S4M301      0.0000 
     16 C8          2.2510    0.2220  -69.4520 C.ar      1 S4M301      0.0000 
     17 N7          3.4670    0.7320  -69.5260 N.ar      1 S4M301      0.0000 
     18 C5          3.2780    2.0350  -69.9170 C.ar      1 S4M301      0.0000 
     19 C6          4.1800    3.0650  -70.1750 C.ar      1 S4M301      0.0000 
     20 N6          5.5640    2.9020  -70.0540 N.pl3     1 S4M301      0.0000 
     21 C4          1.9270    2.3020  -70.0730 C.ar      1 S4M301      0.0000 
     22 N3          1.3850    3.4590  -70.4600 N.ar      1 S4M301      0.0000 
     23 C2          2.3370    4.3710  -70.6620 C.ar      1 S4M301      0.0000 
     24 N1          3.6690    4.2530  -70.5470 N.ar      1 S4M301      0.0000 
@<TRIPOS>BOND
     1    1    2 1    
     2    1    3 1    
     3    3    4 1    
     4    4    5 1    
     5    5    6 1    
     6    5    7 1    
     7    7    8 1    
     8    8    9 1    
     9    8   13 1    
    10    9   10 1    
    11   10   11 1    
    12   10   15 1    
    13   11   12 1    
    14   11   13 1    
    15   13   14 1    
    16   15   16 ar   
    17   15   21 ar   
    18   16   17 ar   
    19   17   18 ar   
    20   18   19 ar   
    21   18   21 ar   
    22   19   20 1    
    23   19   24 ar   
    24   21   22 ar   
    25   22   23 ar   
    26   23   24 ar   
@<TRIPOS>SUBSTRUCTURE
     1 S4M301      1 GROUP   
@<TRIPOS>SET

