#    Name: 5y4p_2_S4M
#    Modification time : Fri May 22 19:25:53 2020

@<TRIPOS>MOLECULE
5y4p_2_S4M
   24    26     1     0     0
SMALL
NO_CHARGES


@<TRIPOS>ATOM
      1 CA        -10.9850  -21.3550  -39.1930 C.3       1 S4M301      0.0000 
      2 N         -10.3090  -21.7070  -37.9280 N.3       1 S4M301      0.0000 
      3 CB        -11.2300  -22.6700  -39.8820 C.3       1 S4M301      0.0000 
      4 CG        -12.6880  -23.0710  -39.8180 C.3       1 S4M301      0.0000 
      5 SD        -12.9320  -24.2540  -38.4510 S.3       1 S4M301      0.0000 
      6 CE        -11.9350  -25.6410  -39.1070 C.3       1 S4M301      0.0000 
      7 C5'       -14.5870  -24.9050  -38.9390 C.3       1 S4M301      0.0000 
      8 C4'       -15.0260  -25.9410  -37.9040 C.3       1 S4M301      0.0000 
      9 O4'       -16.3890  -25.8220  -37.5330 O.3       1 S4M301      0.0000 
     10 C1'       -16.7810  -27.1440  -37.1890 C.3       1 S4M301      0.0000 
     11 C2'       -16.1940  -28.0330  -38.2500 C.3       1 S4M301      0.0000 
     12 O2'       -16.0800  -29.3670  -37.7550 O.3       1 S4M301      0.0000 
     13 C3'       -14.8540  -27.3600  -38.4210 C.3       1 S4M301      0.0000 
     14 O3'       -13.7930  -27.9720  -37.6790 O.3       1 S4M301      0.0000 
     15 N9        -18.2150  -27.2520  -37.0770 N.pl3     1 S4M301      0.0000 
     16 C8        -19.1420  -27.2540  -38.0780 C.ar      1 S4M301      0.0000 
     17 N7        -20.3650  -27.3800  -37.5920 N.ar      1 S4M301      0.0000 
     18 C5        -20.2120  -27.4530  -36.2250 C.ar      1 S4M301      0.0000 
     19 C6        -21.1250  -27.5880  -35.1880 C.ar      1 S4M301      0.0000 
     20 N6        -22.4890  -27.6770  -35.4250 N.pl3     1 S4M301      0.0000 
     21 C4        -18.8770  -27.3750  -35.8910 C.ar      1 S4M301      0.0000 
     22 N3        -18.3680  -27.4200  -34.6590 N.ar      1 S4M301      0.0000 
     23 C2        -19.3440  -27.5460  -33.7550 C.ar      1 S4M301      0.0000 
     24 N1        -20.6650  -27.6310  -33.9350 N.ar      1 S4M301      0.0000 
@<TRIPOS>BOND
     1    1    2 1    
     2    1    3 1    
     3    3    4 1    
     4    4    5 1    
     5    5    6 1    
     6    5    7 1    
     7    7    8 1    
     8    8    9 1    
     9    8   13 1    
    10    9   10 1    
    11   10   11 1    
    12   10   15 1    
    13   11   12 1    
    14   11   13 1    
    15   13   14 1    
    16   15   16 ar   
    17   15   21 ar   
    18   16   17 ar   
    19   17   18 ar   
    20   18   19 ar   
    21   18   21 ar   
    22   19   20 1    
    23   19   24 ar   
    24   21   22 ar   
    25   22   23 ar   
    26   23   24 ar   
@<TRIPOS>SUBSTRUCTURE
     1 S4M301      1 GROUP   
@<TRIPOS>SET

