#    Name: 6hlj_2_FMN
#    Modification time : Fri May 22 19:27:38 2020

@<TRIPOS>MOLECULE
6hlj_2_FMN
   31    33     1     0     1
SMALL
NO_CHARGES


@<TRIPOS>ATOM
      1 N1         21.9020   11.9410   14.9810 N.2       1 FMN502      0.0000 
      2 C2         22.0000   11.1110   16.0370 C.2       1 FMN502      0.0000 
      3 O2         21.3790   11.3500   17.0710 O.2       1 FMN502      0.0000 
      4 N3         22.7360    9.9160   15.9210 N.am      1 FMN502      0.0000 
      5 C4         23.3770    9.4610   14.7780 C.2       1 FMN502      0.0000 
      6 O4         23.9460    8.3680   14.7720 O.2       1 FMN502      0.0000 
      7 C4A        23.2430   10.3760   13.6290 C.2       1 FMN502      0.0000 
      8 N5         23.7810   10.0270   12.4880 N.2       1 FMN502      0.0000 
      9 C5A        23.6080   10.8760   11.3970 C.ar      1 FMN502      0.0000 
     10 C6         24.1220   10.4880   10.1540 C.ar      1 FMN502      0.0000 
     11 C7         23.9610   11.2890    9.0260 C.ar      1 FMN502      0.0000 
     12 C7M        24.5170   10.8220    7.7020 C.3       1 FMN502      0.0000 
     13 C8         23.2710   12.5220    9.1420 C.ar      1 FMN502      0.0000 
     14 C8M        23.1540   13.4670    7.9660 C.3       1 FMN502      0.0000 
     15 C9         22.7370   12.8970   10.3730 C.ar      1 FMN502      0.0000 
     16 C9A        22.8980   12.0910   11.5010 C.ar      1 FMN502      0.0000 
     17 N10        22.3410   12.4320   12.7610 N.pl3     1 FMN502      0.0000 
     18 C10        22.4880   11.5910   13.8380 C.2       1 FMN502      0.0000 
     19 C1'        21.5670   13.6710   12.9220 C.3       1 FMN502      0.0000 
     20 C2'        20.0620   13.4270   12.8530 C.3       1 FMN502      0.0000 
     21 O2'        19.6380   13.4420   11.4880 O.3       1 FMN502      0.0000 
     22 C3'        19.2890   14.4740   13.6630 C.3       1 FMN502      0.0000 
     23 O3'        19.8300   15.7660   13.3870 O.3       1 FMN502      0.0000 
     24 C4'        19.2250   14.2790   15.1820 C.3       1 FMN502      0.0000 
     25 O4'        19.0130   12.9130   15.5600 O.3       1 FMN502      0.0000 
     26 C5'        18.1690   15.1600   15.8150 C.3       1 FMN502      0.0000 
     27 O5'        18.3110   15.1260   17.2450 O.3       1 FMN502      0.0000 
     28 P          18.9470   16.3230   18.1040 P.3       1 FMN502      0.0000 
     29 O1P        20.4340   16.4800   17.8370 O.co2     1 FMN502      0.0000 
     30 O2P        18.1870   17.5940   17.7310 O.co2     1 FMN502      0.0000 
     31 O3P        18.6700   15.9730   19.5410 O.co2     1 FMN502      0.0000 
@<TRIPOS>BOND
     1    1    2 1    
     2    1   18 2    
     3    2    3 2    
     4    2    4 am   
     5    4    5 am   
     6    5    6 2    
     7    5    7 1    
     8    7    8 2    
     9    7   18 1    
    10    8    9 1    
    11    9   10 ar   
    12    9   16 ar   
    13   10   11 ar   
    14   11   12 1    
    15   11   13 ar   
    16   13   14 1    
    17   13   15 ar   
    18   15   16 ar   
    19   16   17 1    
    20   17   18 1    
    21   17   19 1    
    22   19   20 1    
    23   20   21 1    
    24   20   22 1    
    25   22   23 1    
    26   22   24 1    
    27   24   25 1    
    28   24   26 1    
    29   26   27 1    
    30   27   28 1    
    31   28   29 ar   
    32   28   30 ar   
    33   28   31 ar   
@<TRIPOS>SUBSTRUCTURE
     1 FMN502      1 GROUP   
@<TRIPOS>SET
ATOM$ORANGE STATIC     ATOMS   COLORGROUP SYSTEM 
34 2 2 5 5 7 7 9 9 10 10 11 11 12 12 13 13 14 \
14 15 15 16 16 18 18 19 19 20 20 22 22 24 24 26 26 

