#    Name: 6hlj_2_FMN_CAVITY_N1_4
#    Modification time : Fri May 22 19:27:40 2020

@<TRIPOS>MOLECULE
6hlj_2_FMN_CAVITY_N1_4
   80     0     7     0     0
SMALL
NO_CHARGES


@<TRIPOS>ATOM
      1 OG         24.5200   12.0500    9.2600 O.3       1 SER1        0.0000 
      2 OG         24.2600   10.7700    9.9900 O.3       1 SER1        0.0000 
      3 OG         25.9200   12.7000    7.8100 O.3       1 SER1        0.0000 
      4 OG         25.6700   11.4100    8.5400 O.3       1 SER1        0.0000 
      5 OG         25.7100   13.7700    9.6300 O.3       1 SER1        0.0000 
      6 OG         25.4500   12.4900   10.3600 O.3       1 SER1        0.0000 
      7 OG         26.8500   13.1300    8.9000 O.3       1 SER1        0.0000 
      8 OG         28.0000   12.4900    8.1800 O.3       1 SER1        0.0000 
      9 O          23.8500   12.9000    7.4400 O.2       2 ALA2        0.0000 
     10 O          23.3300   10.3300    8.9000 O.2       2 ALA2        0.0000 
     11 O          24.9900   12.2600    6.7200 O.2       2 ALA2        0.0000 
     12 O          18.2600   12.6800   14.3300 O.2       2 ALA2        0.0000 
     13 N          19.6700   13.3300   12.8800 N.am      2 ALA2        0.0000 
     14 N          20.8100   12.6900   12.1600 N.am      2 ALA2        0.0000 
     15 N          21.9600   12.0500   11.4300 N.am      2 ALA2        0.0000 
     16 O          23.1100   11.4100   10.7100 O.2       2 ALA2        0.0000 
     17 N          18.0400   13.7600   16.1400 N.am      2 ALA2        0.0000 
     18 O          19.1900   13.1200   15.4200 O.2       2 ALA2        0.0000 
     19 N          20.6000   13.7600   13.9700 N.am      2 ALA2        0.0000 
     20 O          20.3400   12.4800   14.7000 O.2       2 ALA2        0.0000 
     21 N          22.0000   14.4100   12.5200 N.am      2 ALA2        0.0000 
     22 N          21.7400   13.1200   13.2500 N.am      2 ALA2        0.0000 
     23 N          21.4900   11.8400   13.9800 N.am      2 ALA2        0.0000 
     24 N          23.1500   13.7700   11.8000 N.am      2 ALA2        0.0000 
     25 N          22.8900   12.4800   12.5300 N.am      2 ALA2        0.0000 
     26 N          22.6300   11.2000   13.2600 N.am      2 ALA2        0.0000 
     27 N          22.3800    9.9100   13.9900 N.am      2 ALA2        0.0000 
     28 N          23.7800   10.5600   12.5400 N.am      2 ALA2        0.0000 
     29 O          18.9700   14.1900   17.2400 O.2       2 ALA2        0.0000 
     30 N          21.5200   14.2000   15.0700 N.am      2 ALA2        0.0000 
     31 O          21.0100   11.6300   16.5200 O.2       2 ALA2        0.0000 
     32 N          22.4200   12.2700   15.0700 N.am      2 ALA2        0.0000 
     33 O          22.1600   10.9900   15.8000 O.2       2 ALA2        0.0000 
     34 N          23.0500    9.0600   15.8100 N.am      2 ALA2        0.0000 
     35 OD1        16.4800   16.5400   14.3100 O.co2     3 ASP3        0.0000 
     36 OD1        17.6700   18.2500   14.6800 O.co2     3 ASP3        0.0000 
     37 OD1        18.5600   16.3300   14.6900 O.co2     3 ASP3        0.0000 
     38 OD1        18.3000   15.0400   15.4100 O.co2     3 ASP3        0.0000 
     39 OD1        19.2300   15.4800   16.5100 O.co2     3 ASP3        0.0000 
     40 NZ         18.1400   18.4700   12.1300 N.4       4 LYS4        0.0000 
     41 NZ         17.8900   17.1800   12.8600 N.4       4 LYS4        0.0000 
     42 NZ         17.6300   15.8900   13.5900 N.4       4 LYS4        0.0000 
     43 NZ         17.3700   14.6100   14.3200 N.4       4 LYS4        0.0000 
     44 NZ         19.0300   16.5400   12.1400 N.4       4 LYS4        0.0000 
     45 NZ         18.7800   15.2500   12.8700 N.4       4 LYS4        0.0000 
     46 CZ         24.7400   10.9800    7.4500 C.ar      5 PHE5        0.0000 
     47 CA         21.2900   12.9000    9.6100 C.3       6 GLY6        0.0000 
     48 CA         22.7000   13.5400    8.1600 C.3       6 GLY6        0.0000 
     49 CA         22.4400   12.2600    8.8900 C.3       6 GLY6        0.0000 
     50 CA         23.5900   11.6200    8.1700 C.3       6 GLY6        0.0000 
     51 CA         19.2900   17.8200   11.4100 C.3       6 GLY6        0.0000 
     52 CA         18.5200   13.9700   13.6000 C.3       6 GLY6        0.0000 
     53 CA         22.2200   13.3300   10.7000 C.3       6 GLY6        0.0000 
     54 CA         24.1400   16.5500    7.7900 C.3       6 GLY6        0.0000 
     55 CA         23.8900   15.2600    8.5200 C.3       6 GLY6        0.0000 
     56 CA         25.0300   14.6200    7.8000 C.3       6 GLY6        0.0000 
     57 CA         26.1800   13.9800    7.0800 C.3       6 GLY6        0.0000 
     58 CA         19.0700   18.9000   13.2300 C.3       6 GLY6        0.0000 
     59 CA         18.8100   17.6100   13.9600 C.3       6 GLY6        0.0000 
     60 CA         19.9600   16.9700   13.2300 C.3       6 GLY6        0.0000 
     61 CA         21.1100   16.3300   12.5100 C.3       6 GLY6        0.0000 
     62 CA         23.5200    9.2700   13.2600 C.3       6 GLY6        0.0000 
     63 CA         20.1200   13.5500   16.5200 C.3       6 GLY6        0.0000 
     64 CA         21.2700   12.9100   15.7900 C.3       6 GLY6        0.0000 
     65 DU         19.9200   14.6100   12.1500 H         7 CUB7        0.0000 
     66 DU         21.0700   13.9700   11.4300 H         7 CUB7        0.0000 
     67 DU         22.4800   14.6200    9.9700 H         7 CUB7        0.0000 
     68 DU         23.6300   13.9800    9.2500 H         7 CUB7        0.0000 
     69 DU         23.3700   12.6900    9.9800 H         7 CUB7        0.0000 
     70 DU         24.7800   13.3400    8.5300 H         7 CUB7        0.0000 
     71 DU         19.7000   15.6900   13.9600 H         7 CUB7        0.0000 
     72 DU         19.4500   14.4000   14.6900 H         7 CUB7        0.0000 
     73 DU         20.8500   15.0500   13.2400 H         7 CUB7        0.0000 
     74 DU         24.5600   14.4100   10.3500 H         7 CUB7        0.0000 
     75 DU         24.3000   13.1300   11.0800 H         7 CUB7        0.0000 
     76 DU         24.0400   11.8400   11.8100 H         7 CUB7        0.0000 
     77 DU         25.9600   15.0600    8.9000 H         7 CUB7        0.0000 
     78 DU         23.3100   10.3500   15.0800 H         7 CUB7        0.0000 
     79 DU         25.4900   14.8500   11.4400 H         7 CUB7        0.0000 
     80 DU         24.4500    9.7100   14.3600 H         7 CUB7        0.0000 
@<TRIPOS>BOND
@<TRIPOS>SUBSTRUCTURE
     1 SER1        1 GROUP   
     2 ALA2        9 GROUP   
     3 ASP3       35 GROUP   
     4 LYS4       40 GROUP   
     5 PHE5       46 GROUP   
     6 GLY6       47 GROUP   
     7 CUB7       65 GROUP   
@<TRIPOS>SET

