#    Name: 6ix3_2_SAM
#    Modification time : Fri May 22 19:32:08 2020

@<TRIPOS>MOLECULE
6ix3_2_SAM
   27    29     1     0     0
SMALL
NO_CHARGES


@<TRIPOS>ATOM
      1 N         -59.1760   -7.5130   33.7780 N.4       1 SAM401      0.0000 
      2 CA        -58.9830   -8.8740   33.2930 C.3       1 SAM401      0.0000 
      3 C         -58.2440   -9.7080   34.3340 C.2       1 SAM401      0.0000 
      4 O         -58.4170  -10.9240   34.4150 O.co2     1 SAM401      0.0000 
      5 OXT       -57.4560   -9.1800   35.1190 O.co2     1 SAM401      0.0000 
      6 CB        -58.2220   -8.8600   31.9720 C.3       1 SAM401      0.0000 
      7 CG        -58.3730  -10.1210   31.1300 C.3       1 SAM401      0.0000 
      8 SD        -57.4510  -10.0220   29.5750 S.3       1 SAM401      0.0000 
      9 CE        -56.0000   -9.0760   30.1010 C.3       1 SAM401      0.0000 
     10 C5'       -58.3840   -8.7680   28.6570 C.3       1 SAM401      0.0000 
     11 C4'       -59.8920   -8.9800   28.7010 C.3       1 SAM401      0.0000 
     12 O4'       -60.5370   -7.9530   27.9760 O.3       1 SAM401      0.0000 
     13 C3'       -60.3060  -10.2980   28.0630 C.3       1 SAM401      0.0000 
     14 O3'       -61.1330  -10.9890   28.9680 O.3       1 SAM401      0.0000 
     15 C2'       -61.1270   -9.9260   26.8500 C.3       1 SAM401      0.0000 
     16 O2'       -62.2420  -10.7740   26.7260 O.3       1 SAM401      0.0000 
     17 C1'       -61.5690   -8.5180   27.1920 C.3       1 SAM401      0.0000 
     18 N9        -61.8550   -7.6840   26.0150 N.pl3     1 SAM401      0.0000 
     19 C8        -61.1490   -7.5620   24.8460 C.2       1 SAM401      0.0000 
     20 N7        -61.8000   -6.6670   24.0610 N.2       1 SAM401      0.0000 
     21 C5        -62.8980   -6.2280   24.7170 C.ar      1 SAM401      0.0000 
     22 C6        -63.8990   -5.3220   24.3960 C.ar      1 SAM401      0.0000 
     23 N6        -63.8870   -4.6990   23.2230 N.pl3     1 SAM401      0.0000 
     24 N1        -64.9110   -5.0790   25.3020 N.ar      1 SAM401      0.0000 
     25 C2        -64.9320   -5.7240   26.5200 C.ar      1 SAM401      0.0000 
     26 N3        -63.9310   -6.6150   26.8340 N.ar      1 SAM401      0.0000 
     27 C4        -62.9400   -6.8630   25.9450 C.ar      1 SAM401      0.0000 
@<TRIPOS>BOND
     1    1    2 1    
     2    2    3 1    
     3    2    6 1    
     4    3    4 ar   
     5    3    5 ar   
     6    6    7 1    
     7    7    8 1    
     8    8    9 1    
     9    8   10 1    
    10   10   11 1    
    11   11   12 1    
    12   11   13 1    
    13   12   17 1    
    14   13   14 1    
    15   13   15 1    
    16   15   16 1    
    17   15   17 1    
    18   17   18 1    
    19   18   19 1    
    20   18   27 1    
    21   19   20 2    
    22   20   21 1    
    23   21   22 ar   
    24   21   27 ar   
    25   22   23 1    
    26   22   24 ar   
    27   24   25 ar   
    28   25   26 ar   
    29   26   27 ar   
@<TRIPOS>SUBSTRUCTURE
     1 SAM401      1 GROUP   
@<TRIPOS>SET

