#    Name: 6ix3_1_SAM
#    Modification time : Fri May 22 19:32:03 2020

@<TRIPOS>MOLECULE
6ix3_1_SAM
   27    29     1     0     0
SMALL
NO_CHARGES


@<TRIPOS>ATOM
      1 N         -12.0790  -27.9180   12.8210 N.4       1 SAM401      0.0000 
      2 CA        -12.6490  -26.5800   12.7080 C.3       1 SAM401      0.0000 
      3 C         -12.4250  -25.7810   13.9900 C.2       1 SAM401      0.0000 
      4 O         -12.3270  -26.3500   15.0770 O.co2     1 SAM401      0.0000 
      5 OXT       -12.3420  -24.5510   13.9740 O.co2     1 SAM401      0.0000 
      6 CB        -14.1370  -26.6640   12.3840 C.3       1 SAM401      0.0000 
      7 CG        -14.6350  -25.5200   11.5100 C.3       1 SAM401      0.0000 
      8 SD        -16.3880  -25.6580   11.0730 S.3       1 SAM401      0.0000 
      9 CE        -17.0720  -26.4260   12.5610 C.3       1 SAM401      0.0000 
     10 C5'       -16.3800  -27.0490    9.9130 C.3       1 SAM401      0.0000 
     11 C4'       -15.3280  -26.8890    8.8230 C.3       1 SAM401      0.0000 
     12 O4'       -15.4040  -27.9700    7.9170 O.3       1 SAM401      0.0000 
     13 C3'       -15.5390  -25.6170    8.0140 C.3       1 SAM401      0.0000 
     14 O3'       -14.3100  -24.9350    7.9330 O.3       1 SAM401      0.0000 
     15 C2'       -15.9350  -26.0800    6.6310 C.3       1 SAM401      0.0000 
     16 O2'       -15.3580  -25.2600    5.6430 O.3       1 SAM401      0.0000 
     17 C1'       -15.3440  -27.4760    6.5940 C.3       1 SAM401      0.0000 
     18 N9        -16.0250  -28.3990    5.6730 N.pl3     1 SAM401      0.0000 
     19 C8        -17.3660  -28.5560    5.4290 C.2       1 SAM401      0.0000 
     20 N7        -17.5120  -29.5360    4.5030 N.2       1 SAM401      0.0000 
     21 C5        -16.2860  -30.0000    4.1620 C.ar      1 SAM401      0.0000 
     22 C6        -15.8480  -30.9850    3.2880 C.ar      1 SAM401      0.0000 
     23 N6        -16.7240  -31.6830    2.5720 N.pl3     1 SAM401      0.0000 
     24 N1        -14.4970  -31.2350    3.1620 N.ar      1 SAM401      0.0000 
     25 C2        -13.5830  -30.5120    3.8990 C.ar      1 SAM401      0.0000 
     26 N3        -14.0220  -29.5400    4.7700 N.ar      1 SAM401      0.0000 
     27 C4        -15.3480  -29.2920    4.8950 C.ar      1 SAM401      0.0000 
@<TRIPOS>BOND
     1    1    2 1    
     2    2    3 1    
     3    2    6 1    
     4    3    4 ar   
     5    3    5 ar   
     6    6    7 1    
     7    7    8 1    
     8    8    9 1    
     9    8   10 1    
    10   10   11 1    
    11   11   12 1    
    12   11   13 1    
    13   12   17 1    
    14   13   14 1    
    15   13   15 1    
    16   15   16 1    
    17   15   17 1    
    18   17   18 1    
    19   18   19 1    
    20   18   27 1    
    21   19   20 2    
    22   20   21 1    
    23   21   22 ar   
    24   21   27 ar   
    25   22   23 1    
    26   22   24 ar   
    27   24   25 ar   
    28   25   26 ar   
    29   26   27 ar   
@<TRIPOS>SUBSTRUCTURE
     1 SAM401      1 GROUP   
@<TRIPOS>SET

