#    Name: 5nuk_1_Z80
#    Modification time : Fri May 22 19:13:40 2020

@<TRIPOS>MOLECULE
5nuk_1_Z80
   21    23     1     0     0
SMALL
NO_CHARGES


@<TRIPOS>ATOM
      1 C1         -6.0850   -7.6200  -18.1830 C.ar      1 Z80201      0.0000 
      2 N1         -5.0980   -7.2910  -17.2400 N.pl3     1 Z80201      0.0000 
      3 S1         -7.8710   -7.7500  -16.1210 S.3       1 Z80201      0.0000 
      4 C2         -7.4080   -7.8530  -17.7800 C.ar      1 Z80201      0.0000 
      5 N2         -3.8490   -2.5330  -17.4870 N.4       1 Z80201      0.0000 
      6 C3         -6.3380   -8.1950  -15.3520 C.ar      1 Z80201      0.0000 
      7 C4         -5.1190   -7.9260  -15.9870 C.ar      1 Z80201      0.0000 
      8 C5         -6.7090   -8.0580  -20.4750 C.ar      1 Z80201      0.0000 
      9 C6         -8.0140   -8.2830  -20.0640 C.ar      1 Z80201      0.0000 
     10 C7         -8.3670   -8.1880  -18.7280 C.ar      1 Z80201      0.0000 
     11 C8         -6.3370   -8.8130  -14.1000 C.ar      1 Z80201      0.0000 
     12 C9         -5.1380   -9.1700  -13.4950 C.ar      1 Z80201      0.0000 
     13 C10        -3.9350   -8.9110  -14.1380 C.ar      1 Z80201      0.0000 
     14 C11        -3.9240   -8.2910  -15.3790 C.ar      1 Z80201      0.0000 
     15 C12        -3.9930   -6.3160  -17.6000 C.3       1 Z80201      0.0000 
     16 C13        -4.5320   -4.8830  -17.4310 C.3       1 Z80201      0.0000 
     17 C14        -3.4800   -3.9030  -17.8950 C.3       1 Z80201      0.0000 
     18 C15        -2.8540   -2.0190  -16.5270 C.3       1 Z80201      0.0000 
     19 C16        -3.9020   -1.6520  -18.6690 C.3       1 Z80201      0.0000 
     20 CL1        -2.4150   -9.3300  -13.4120 Cl        1 Z80201      0.0000 
     21 C17        -5.7460   -7.7280  -19.5340 C.ar      1 Z80201      0.0000 
@<TRIPOS>BOND
     1    1    2 1    
     2    1    4 ar   
     3    1   21 ar   
     4    2    7 1    
     5    2   15 1    
     6    3    4 1    
     7    3    6 1    
     8    4   10 ar   
     9    5   17 1    
    10    5   18 1    
    11    5   19 1    
    12    6    7 ar   
    13    6   11 ar   
    14    7   14 ar   
    15    8    9 ar   
    16    8   21 ar   
    17    9   10 ar   
    18   11   12 ar   
    19   12   13 ar   
    20   13   14 ar   
    21   13   20 1    
    22   15   16 1    
    23   16   17 1    
@<TRIPOS>SUBSTRUCTURE
     1 Z80201      1 GROUP   
@<TRIPOS>SET

