#    Name: 6d4g_1_GTP
#    Modification time : Fri May 22 19:27:40 2020

@<TRIPOS>MOLECULE
6d4g_1_GTP
   32    34     1     0     1
SMALL
NO_CHARGES


@<TRIPOS>ATOM
      1 PG         11.3420    6.4820  150.9340 P.3       1 GTP1001     0.0000 
      2 O1G        12.0350    7.0570  149.7230 O.co2     1 GTP1001     0.0000 
      3 O2G        11.9530    5.1470  151.2780 O.co2     1 GTP1001     0.0000 
      4 O3G         9.8700    6.3130  150.6450 O.co2     1 GTP1001     0.0000 
      5 O3B        11.5010    7.4910  152.1790 O.3       1 GTP1001     0.0000 
      6 PB         11.4620    6.9360  153.6870 P.3       1 GTP1001     0.0000 
      7 O1B        12.0840    5.5650  153.7800 O.co2     1 GTP1001     0.0000 
      8 O2B        10.0410    6.9080  154.1970 O.co2     1 GTP1001     0.0000 
      9 O3A        12.3050    8.0240  154.5170 O.3       1 GTP1001     0.0000 
     10 PA         13.7810    7.6980  155.0580 P.3       1 GTP1001     0.0000 
     11 O1A        14.5700    6.9550  154.0060 O.co2     1 GTP1001     0.0000 
     12 O2A        13.6930    6.9000  156.3370 O.co2     1 GTP1001     0.0000 
     13 O5'        14.4590    9.1310  155.3480 O.3       1 GTP1001     0.0000 
     14 C5'        13.8560   10.3440  154.9560 C.3       1 GTP1001     0.0000 
     15 C4'        14.7700   11.4900  155.3710 C.3       1 GTP1001     0.0000 
     16 O4'        14.2340   12.0760  156.5390 O.3       1 GTP1001     0.0000 
     17 C3'        16.1590   10.9910  155.7320 C.3       1 GTP1001     0.0000 
     18 O3'        17.0910   11.3310  154.7330 O.3       1 GTP1001     0.0000 
     19 C2'        16.5150   11.6900  157.0270 C.3       1 GTP1001     0.0000 
     20 O2'        17.4600   12.7020  156.7770 O.3       1 GTP1001     0.0000 
     21 C1'        15.2170   12.2980  157.5310 C.3       1 GTP1001     0.0000 
     22 N9         14.7960   11.6090  158.7650 N.pl3     1 GTP1001     0.0000 
     23 C8         14.3990   10.3000  158.8470 C.2       1 GTP1001     0.0000 
     24 N7         14.0810   10.0240  160.1340 N.2       1 GTP1001     0.0000 
     25 C5         14.2610   11.1420  160.8720 C.2       1 GTP1001     0.0000 
     26 C6         14.0810   11.4030  162.2240 C.2       1 GTP1001     0.0000 
     27 O6         13.6870   10.5150  162.9800 O.2       1 GTP1001     0.0000 
     28 N1         14.3490   12.6620  162.7160 N.am      1 GTP1001     0.0000 
     29 C2         14.7920   13.6520  161.8630 C.2       1 GTP1001     0.0000 
     30 N2         15.0500   14.8660  162.3410 N.pl3     1 GTP1001     0.0000 
     31 N3         14.9700   13.3860  160.5180 N.2       1 GTP1001     0.0000 
     32 C4         14.7090   12.1490  160.0260 C.2       1 GTP1001     0.0000 
@<TRIPOS>BOND
     1    1    2 ar   
     2    1    3 ar   
     3    1    4 ar   
     4    1    5 1    
     5    5    6 1    
     6    6    7 ar   
     7    6    8 ar   
     8    6    9 1    
     9    9   10 1    
    10   10   11 ar   
    11   10   12 ar   
    12   10   13 1    
    13   13   14 1    
    14   14   15 1    
    15   15   16 1    
    16   15   17 1    
    17   16   21 1    
    18   17   18 1    
    19   17   19 1    
    20   19   20 1    
    21   19   21 1    
    22   21   22 1    
    23   22   23 1    
    24   22   32 1    
    25   23   24 2    
    26   24   25 1    
    27   25   26 1    
    28   25   32 2    
    29   26   27 2    
    30   26   28 am   
    31   28   29 1    
    32   29   30 1    
    33   29   31 2    
    34   31   32 1    
@<TRIPOS>SUBSTRUCTURE
     1 GTP1001     1 GROUP   
@<TRIPOS>SET
ATOM$ORANGE STATIC     ATOMS   COLORGROUP SYSTEM 
20 14 14 15 15 17 17 19 19 21 21 23 23 25 25 26 26 29 \
29 32 32 

