#    Name: 6o4w_2_E20
#    Modification time : Fri May 22 19:32:48 2020

@<TRIPOS>MOLECULE
6o4w_2_E20
   28    31     1     0     0
SMALL
NO_CHARGES


@<TRIPOS>ATOM
      1 C1         89.6140   93.7220   14.0880 C.ar      1 E20604      0.0000 
      2 C2         90.5640   92.8240   13.6040 C.ar      1 E20604      0.0000 
      3 C3         91.8600   92.8570   14.1130 C.ar      1 E20604      0.0000 
      4 C4         92.2060   93.8030   15.1170 C.ar      1 E20604      0.0000 
      5 C5         91.2690   94.6810   15.5840 C.ar      1 E20604      0.0000 
      6 C6         89.9500   94.6480   15.0730 C.ar      1 E20604      0.0000 
      7 C7         91.8850   95.4920   16.5770 C.2       1 E20604      0.0000 
      8 C8         93.2280   95.1310   16.7040 C.3       1 E20604      0.0000 
      9 C9         93.4170   94.0680   15.8120 C.3       1 E20604      0.0000 
     10 C10        94.2810   96.2360   16.8660 C.3       1 E20604      0.0000 
     11 C11        95.5780   95.8170   17.7590 C.3       1 E20604      0.0000 
     12 C12        96.3680   94.8220   17.0700 C.3       1 E20604      0.0000 
     13 C13        97.7170   94.5500   17.7490 C.3       1 E20604      0.0000 
     14 N14        98.4690   95.7700   18.0270 N.4       1 E20604      0.0000 
     15 C15        97.6920   96.8190   18.6510 C.3       1 E20604      0.0000 
     16 C16        96.3440   97.0540   17.9740 C.3       1 E20604      0.0000 
     17 C17        99.5930   95.5940   18.4590 C.3       1 E20604      0.0000 
     18 C18        99.7670   95.3020   19.9690 C.ar      1 E20604      0.0000 
     19 C19        99.7380   93.9910   20.4350 C.ar      1 E20604      0.0000 
     20 C20        99.9010   93.7140   21.7870 C.ar      1 E20604      0.0000 
     21 C21       100.1190   94.7450   22.6920 C.ar      1 E20604      0.0000 
     22 C22       100.1670   96.0540   22.2360 C.ar      1 E20604      0.0000 
     23 C23       100.0080   96.3270   20.8830 C.ar      1 E20604      0.0000 
     24 O24        91.2440   96.5180   17.2810 O.2       1 E20604      0.0000 
     25 O25        88.3180   93.6660   13.5660 O.3       1 E20604      0.0000 
     26 C26        87.6470   94.8890   13.5700 C.3       1 E20604      0.0000 
     27 O27        90.1750   91.9050   12.6160 O.3       1 E20604      0.0000 
     28 C28        91.2170   91.2740   11.9300 C.3       1 E20604      0.0000 
@<TRIPOS>BOND
     1    1    2 ar   
     2    1    6 ar   
     3    1   25 1    
     4    2    3 ar   
     5    2   27 1    
     6    3    4 ar   
     7    4    5 ar   
     8    4    9 1    
     9    5    6 ar   
    10    5    7 1    
    11    7    8 1    
    12    7   24 2    
    13    8    9 1    
    14    8   10 1    
    15   10   11 1    
    16   11   12 1    
    17   11   16 1    
    18   12   13 1    
    19   13   14 1    
    20   14   15 1    
    21   14   17 1    
    22   15   16 1    
    23   17   18 1    
    24   18   19 ar   
    25   18   23 ar   
    26   19   20 ar   
    27   20   21 ar   
    28   21   22 ar   
    29   22   23 ar   
    30   25   26 1    
    31   27   28 1    
@<TRIPOS>SUBSTRUCTURE
     1 E20604      1 GROUP   
@<TRIPOS>SET

