#    Name: 6o4w_1_E20_CAVITY_N1_12
#    Modification time : Fri May 22 19:32:42 2020

@<TRIPOS>MOLECULE
6o4w_1_E20_CAVITY_N1_12
   84     0     6     0     0
SMALL
NO_CHARGES


@<TRIPOS>ATOM
      1 OG         90.7700   80.4900   -6.0600 O.3       1 SER1        0.0000 
      2 OG         91.6800   83.0700   -7.2900 O.3       1 SER1        0.0000 
      3 OG         90.3200   83.6600   -7.0500 O.3       1 SER1        0.0000 
      4 OG         90.3200   82.8500   -5.0900 O.3       1 SER1        0.0000 
      5 OG         89.4200   84.7400   -5.4600 O.3       1 SER1        0.0000 
      6 OG         89.8700   85.2200   -4.1100 O.3       1 SER1        0.0000 
      7 OG         88.9600   87.1000   -4.4800 O.3       1 SER1        0.0000 
      8 OG         90.3200   88.5500   -0.4400 O.3       1 SER1        0.0000 
      9 OG         89.4200   89.6200    1.1500 O.3       1 SER1        0.0000 
     10 N          89.8700   79.5200   -8.7500 N.am      2 ALA2        0.0000 
     11 O          86.2500   88.2800   -3.9900 O.2       2 ALA2        0.0000 
     12 N          85.3400   89.3500   -2.4000 N.am      2 ALA2        0.0000 
     13 N          87.1500   89.2500   -1.3000 N.am      2 ALA2        0.0000 
     14 N          85.8000   89.8400   -1.0500 N.am      2 ALA2        0.0000 
     15 N          86.2500   91.1300   -1.6700 N.am      2 ALA2        0.0000 
     16 N          84.4400   90.4300   -0.8100 N.am      2 ALA2        0.0000 
     17 N          84.8900   91.7200   -1.4200 N.am      2 ALA2        0.0000 
     18 N          87.1600   88.4400    0.6600 N.am      2 ALA2        0.0000 
     19 N          86.2500   90.3200    0.2900 N.am      2 ALA2        0.0000 
     20 N          84.8900   90.9100    0.5400 N.am      2 ALA2        0.0000 
     21 N          85.3400   92.2000   -0.0800 N.am      2 ALA2        0.0000 
     22 N          83.5400   91.5000    0.7800 N.am      2 ALA2        0.0000 
     23 NZ         91.2200   79.7400  -10.9600 N.4       3 LYS4        0.0000 
     24 NZ         90.3200   85.7000   -2.7600 N.4       3 LYS4        0.0000 
     25 CZ         93.0300   79.6400   -9.8600 C.ar      4 PHE5        0.0000 
     26 CZ         91.2300   78.9300   -9.0000 C.ar      4 PHE5        0.0000 
     27 CZ         91.6800   80.2300   -9.6100 C.ar      4 PHE5        0.0000 
     28 CZ         90.3200   80.8200   -9.3700 C.ar      4 PHE5        0.0000 
     29 CZ         91.6800   79.4200   -7.6500 C.ar      4 PHE5        0.0000 
     30 CZ         92.1300   80.7100   -8.2700 C.ar      4 PHE5        0.0000 
     31 CZ         90.3200   80.0100   -7.4100 C.ar      4 PHE5        0.0000 
     32 CZ         88.9600   80.6000   -7.1600 C.ar      4 PHE5        0.0000 
     33 CZ         87.6100   81.1900   -6.9200 C.ar      4 PHE5        0.0000 
     34 CZ         88.0600   82.4800   -7.5300 C.ar      4 PHE5        0.0000 
     35 CZ         92.5800   81.1900   -6.9200 C.ar      4 PHE5        0.0000 
     36 CZ         89.4200   81.0800   -5.8200 C.ar      4 PHE5        0.0000 
     37 CZ         88.0600   81.6700   -5.5700 C.ar      4 PHE5        0.0000 
     38 CZ         88.5100   82.9600   -6.1900 C.ar      4 PHE5        0.0000 
     39 CZ         88.9600   84.2500   -6.8000 C.ar      4 PHE5        0.0000 
     40 CZ         86.7000   82.2600   -5.3300 C.ar      4 PHE5        0.0000 
     41 CZ         87.1500   83.5500   -5.9400 C.ar      4 PHE5        0.0000 
     42 CZ         87.6100   84.8400   -6.5600 C.ar      4 PHE5        0.0000 
     43 CZ         88.5100   82.1500   -4.2300 C.ar      4 PHE5        0.0000 
     44 CZ         88.9600   83.4400   -4.8400 C.ar      4 PHE5        0.0000 
     45 CZ         87.1600   82.7400   -3.9800 C.ar      4 PHE5        0.0000 
     46 CZ         87.6100   84.0300   -4.6000 C.ar      4 PHE5        0.0000 
     47 CZ         88.0600   85.3300   -5.2100 C.ar      4 PHE5        0.0000 
     48 CZ         88.5100   86.6200   -5.8300 C.ar      4 PHE5        0.0000 
     49 CZ         86.2500   84.6200   -4.3500 C.ar      4 PHE5        0.0000 
     50 CZ         86.7000   85.9200   -4.9700 C.ar      4 PHE5        0.0000 
     51 CZ         87.1500   87.2100   -5.5800 C.ar      4 PHE5        0.0000 
     52 CZ         85.3400   86.5100   -4.7200 C.ar      4 PHE5        0.0000 
     53 CZ         89.4200   83.9300   -3.4900 C.ar      4 PHE5        0.0000 
     54 CZ         88.0600   84.5200   -3.2500 C.ar      4 PHE5        0.0000 
     55 CZ         88.5100   85.8100   -3.8600 C.ar      4 PHE5        0.0000 
     56 CZ         87.1500   86.4000   -3.6200 C.ar      4 PHE5        0.0000 
     57 CZ         87.6100   87.6900   -4.2300 C.ar      4 PHE5        0.0000 
     58 CZ         88.0600   88.9800   -4.8500 C.ar      4 PHE5        0.0000 
     59 CZ         86.7000   89.5700   -4.6000 C.ar      4 PHE5        0.0000 
     60 CZ         88.9600   86.2900   -2.5200 C.ar      4 PHE5        0.0000 
     61 CZ         89.4100   87.5800   -3.1300 C.ar      4 PHE5        0.0000 
     62 CZ         88.0600   88.1700   -2.8900 C.ar      4 PHE5        0.0000 
     63 CZ         87.1500   90.0600   -3.2600 C.ar      4 PHE5        0.0000 
     64 CZ         89.8700   88.0700   -1.7900 C.ar      4 PHE5        0.0000 
     65 CZ         88.5100   88.6600   -1.5400 C.ar      4 PHE5        0.0000 
     66 CZ         88.9600   89.9500   -2.1600 C.ar      4 PHE5        0.0000 
     67 CZ         87.6000   90.5400   -1.9100 C.ar      4 PHE5        0.0000 
     68 CZ         90.7700   89.8400   -1.0600 C.ar      4 PHE5        0.0000 
     69 CZ         88.5100   87.8500    0.4200 C.ar      4 PHE5        0.0000 
     70 CZ         89.4100   90.4300   -0.8100 C.ar      4 PHE5        0.0000 
     71 CZ         89.8700   90.9100    0.5400 C.ar      4 PHE5        0.0000 
     72 CA         92.5800   82.0000   -8.8800 C.3       5 GLY6        0.0000 
     73 CA         85.8000   86.9900   -3.3700 C.3       5 GLY6        0.0000 
     74 CA         86.7000   88.7600   -2.6400 C.3       5 GLY6        0.0000 
     75 CA         86.7000   87.9500   -0.6800 C.3       5 GLY6        0.0000 
     76 DU         90.7700   81.3000   -8.0200 H         6 CUB7        0.0000 
     77 DU         91.2300   81.7800   -6.6800 H         6 CUB7        0.0000 
     78 DU         89.8700   82.3700   -6.4300 H         6 CUB7        0.0000 
     79 DU         91.6800   82.2600   -5.3300 H         6 CUB7        0.0000 
     80 DU         88.9600   89.1400   -0.2000 H         6 CUB7        0.0000 
     81 DU         87.6100   89.7300    0.0500 H         6 CUB7        0.0000 
     82 DU         87.6100   88.9200    2.0100 H         6 CUB7        0.0000 
     83 DU         88.0600   90.2100    1.4000 H         6 CUB7        0.0000 
     84 DU         86.7000   90.8000    1.6400 H         6 CUB7        0.0000 
@<TRIPOS>BOND
@<TRIPOS>SUBSTRUCTURE
     1 SER1        1 GROUP   
     2 ALA2       10 GROUP   
     3 LYS4       23 GROUP   
     4 PHE5       25 GROUP   
     5 GLY6       72 GROUP   
     6 CUB7       76 GROUP   
@<TRIPOS>SET

