#    Name: 6o4w_2_E20_CAVITY_N1_12
#    Modification time : Fri May 22 19:32:49 2020

@<TRIPOS>MOLECULE
6o4w_2_E20_CAVITY_N1_12
   74     0     6     0     0
SMALL
NO_CHARGES


@<TRIPOS>ATOM
      1 OG         92.5900   92.1900   12.5300 O.3       1 SER1        0.0000 
      2 OG         93.4900   93.1500   15.2300 O.3       1 SER1        0.0000 
      3 OG         92.5900   94.2200   16.8200 O.3       1 SER1        0.0000 
      4 OG         96.2100   94.8200   17.0600 O.3       1 SER1        0.0000 
      5 OG         94.8500   95.4100   17.3000 O.3       1 SER1        0.0000 
      6 OG         94.8500   94.6000   19.2700 O.3       1 SER1        0.0000 
      7 OG         97.1200   94.9700   21.7100 O.3       1 SER1        0.0000 
      8 OG         95.7600   95.5600   21.9600 O.3       1 SER1        0.0000 
      9 N          89.8700   94.1800   11.0600 N.am      2 ALA2        0.0000 
     10 N          90.3200   95.4700   10.4500 N.am      2 ALA2        0.0000 
     11 N          90.3300   94.6600   12.4100 N.am      2 ALA2        0.0000 
     12 N          88.9700   95.2500   12.6500 N.am      2 ALA2        0.0000 
     13 N          89.4200   95.7300   14.0000 N.am      2 ALA2        0.0000 
     14 O          89.8800   95.4100   17.3100 O.2       2 ALA2        0.0000 
     15 O          90.3300   96.7000   16.6900 O.2       2 ALA2        0.0000 
     16 N          99.3700   96.9700   20.2400 N.am      2 ALA2        0.0000 
     17 NZ         98.9300   94.8700   22.8100 N.4       3 LYS4        0.0000 
     18 CZ         90.3300   91.0000   12.0500 C.ar      4 PHE5        0.0000 
     19 CZ         91.2300   93.5900   10.8200 C.ar      4 PHE5        0.0000 
     20 CZ         91.6800   94.8800   10.2000 C.ar      4 PHE5        0.0000 
     21 CZ         90.7800   91.4900   13.3900 C.ar      4 PHE5        0.0000 
     22 CZ         91.2300   92.7800   12.7800 C.ar      4 PHE5        0.0000 
     23 CZ         91.6800   94.0700   12.1600 C.ar      4 PHE5        0.0000 
     24 CZ         89.4200   92.0800   13.6400 C.ar      4 PHE5        0.0000 
     25 CZ         88.0700   92.6700   13.8800 C.ar      4 PHE5        0.0000 
     26 CZ         93.0400   92.6700   13.8800 C.ar      4 PHE5        0.0000 
     27 CZ         91.6800   93.2600   14.1300 C.ar      4 PHE5        0.0000 
     28 CZ         90.3300   93.8500   14.3700 C.ar      4 PHE5        0.0000 
     29 CZ         88.9700   94.4400   14.6200 C.ar      4 PHE5        0.0000 
     30 CZ         92.1400   93.7400   15.4700 C.ar      4 PHE5        0.0000 
     31 CZ         92.5900   95.0300   14.8600 C.ar      4 PHE5        0.0000 
     32 CZ         90.7800   94.3300   15.7200 C.ar      4 PHE5        0.0000 
     33 CZ         89.4200   94.9200   15.9600 C.ar      4 PHE5        0.0000 
     34 CZ         94.4000   94.9300   15.9600 C.ar      4 PHE5        0.0000 
     35 CZ         93.0400   95.5200   16.2000 C.ar      4 PHE5        0.0000 
     36 CZ         91.2300   94.8200   17.0600 C.ar      4 PHE5        0.0000 
     37 CZ         96.6600   96.1100   16.4500 C.ar      4 PHE5        0.0000 
     38 CZ         95.3000   96.7000   16.6900 C.ar      4 PHE5        0.0000 
     39 CZ         93.0400   94.7100   18.1600 C.ar      4 PHE5        0.0000 
     40 CZ         93.4900   96.0000   17.5500 C.ar      4 PHE5        0.0000 
     41 CZ         93.9500   97.2900   16.9400 C.ar      4 PHE5        0.0000 
     42 CZ         92.1400   96.5900   17.7900 C.ar      4 PHE5        0.0000 
     43 CZ         97.1100   96.5900   17.7900 C.ar      4 PHE5        0.0000 
     44 CZ         95.3000   95.8900   18.6500 C.ar      4 PHE5        0.0000 
     45 CZ         95.7500   97.1800   18.0400 C.ar      4 PHE5        0.0000 
     46 CZ         93.5000   95.1900   19.5100 C.ar      4 PHE5        0.0000 
     47 CZ         99.8300   94.6000   19.2600 C.ar      4 PHE5        0.0000 
     48 CZ         98.9200   96.4800   18.8900 C.ar      4 PHE5        0.0000 
     49 CZ         97.5600   97.0800   19.1400 C.ar      4 PHE5        0.0000 
     50 CZ         95.3100   95.0800   20.6100 C.ar      4 PHE5        0.0000 
     51 CZ         95.7600   96.3700   20.0000 C.ar      4 PHE5        0.0000 
     52 CZ         96.2100   97.6700   19.3800 C.ar      4 PHE5        0.0000 
     53 CZ         93.9500   95.6700   20.8600 C.ar      4 PHE5        0.0000 
     54 CZ         99.8300   93.7900   21.2200 C.ar      4 PHE5        0.0000 
     55 CZ        100.2800   95.0900   20.6100 C.ar      4 PHE5        0.0000 
     56 CZ        100.7300   96.3800   19.9900 C.ar      4 PHE5        0.0000 
     57 CZ         98.9200   95.6800   20.8500 C.ar      4 PHE5        0.0000 
     58 CZ         97.5700   96.2700   21.1000 C.ar      4 PHE5        0.0000 
     59 CZ         98.0200   97.5600   20.4800 C.ar      4 PHE5        0.0000 
     60 CZ         96.2100   96.8600   21.3400 C.ar      4 PHE5        0.0000 
     61 CZ        100.7300   95.5700   21.9500 C.ar      4 PHE5        0.0000 
     62 CA         90.7800   95.1400   13.7600 C.3       5 GLY6        0.0000 
     63 CA         91.2300   95.6200   15.1000 C.3       5 GLY6        0.0000 
     64 CA         89.8700   96.2200   15.3500 C.3       5 GLY6        0.0000 
     65 CA         91.6800   96.1100   16.4500 C.3       5 GLY6        0.0000 
     66 CA         92.1400   97.4000   15.8300 C.3       5 GLY6        0.0000 
     67 CA         98.4700   94.3800   21.4700 C.3       5 GLY6        0.0000 
     68 DU         90.7800   92.3000   11.4300 H         6 CUB7        0.0000 
     69 DU         89.4200   92.8900   11.6800 H         6 CUB7        0.0000 
     70 DU         89.8700   93.3700   13.0200 H         6 CUB7        0.0000 
     71 DU         88.5200   93.9600   13.2700 H         6 CUB7        0.0000 
     72 DU         98.0200   94.7100   18.1600 H         6 CUB7        0.0000 
     73 DU         98.4700   95.1900   19.5100 H         6 CUB7        0.0000 
     74 DU         97.1100   95.7800   19.7500 H         6 CUB7        0.0000 
@<TRIPOS>BOND
@<TRIPOS>SUBSTRUCTURE
     1 SER1        1 GROUP   
     2 ALA2        9 GROUP   
     3 LYS4       17 GROUP   
     4 PHE5       18 GROUP   
     5 GLY6       62 GROUP   
     6 CUB7       68 GROUP   
@<TRIPOS>SET

