#    Name: 6o4w_1_E20
#    Modification time : Fri May 22 19:32:41 2020

@<TRIPOS>MOLECULE
6o4w_1_E20
   28    31     1     0     0
SMALL
NO_CHARGES


@<TRIPOS>ATOM
      1 C1         87.4180   89.9710   -1.9140 C.ar      1 E20604      0.0000 
      2 C2         88.6640   89.5910   -1.4210 C.ar      1 E20604      0.0000 
      3 C3         89.2820   88.4480   -1.9200 C.ar      1 E20604      0.0000 
      4 C4         88.6410   87.6790   -2.9300 C.ar      1 E20604      0.0000 
      5 C5         87.4170   88.0580   -3.4120 C.ar      1 E20604      0.0000 
      6 C6         86.7860   89.2210   -2.9050 C.ar      1 E20604      0.0000 
      7 C7         87.0300   87.1190   -4.4070 C.2       1 E20604      0.0000 
      8 C8         88.0120   86.1330   -4.5200 C.3       1 E20604      0.0000 
      9 C9         89.0210   86.4970   -3.6200 C.3       1 E20604      0.0000 
     10 C10        87.5750   84.6700   -4.6770 C.3       1 E20604      0.0000 
     11 C11        88.5290   83.7570   -5.6310 C.3       1 E20604      0.0000 
     12 C12        89.8530   83.6620   -5.0650 C.3       1 E20604      0.0000 
     13 C13        90.7310   82.6480   -5.8080 C.3       1 E20604      0.0000 
     14 N14        90.0940   81.3380   -5.8820 N.4       1 E20604      0.0000 
     15 C15        88.7370   81.3650   -6.3810 C.3       1 E20604      0.0000 
     16 C16        87.8780   82.4390   -5.7160 C.3       1 E20604      0.0000 
     17 C17        90.8010   80.4360   -6.2860 C.3       1 E20604      0.0000 
     18 C18        91.1180   80.3750   -7.8000 C.ar      1 E20604      0.0000 
     19 C19        92.2520   81.0030   -8.3070 C.ar      1 E20604      0.0000 
     20 C20        92.5520   80.9480   -9.6620 C.ar      1 E20604      0.0000 
     21 C21        91.7300   80.2430  -10.5310 C.ar      1 E20604      0.0000 
     22 C22        90.6060   79.5970  -10.0350 C.ar      1 E20604      0.0000 
     23 C23        90.3120   79.6530   -8.6780 C.ar      1 E20604      0.0000 
     24 O24        85.8300   87.1630   -5.1240 O.2       1 E20604      0.0000 
     25 O25        86.8240   91.1250   -1.3950 O.3       1 E20604      0.0000 
     26 C26        85.4290   91.1070   -1.4080 C.3       1 E20604      0.0000 
     27 O27        89.2600   90.3800   -0.4260 O.3       1 E20604      0.0000 
     28 C28        90.5540   90.0090   -0.0500 C.3       1 E20604      0.0000 
@<TRIPOS>BOND
     1    1    2 ar   
     2    1    6 ar   
     3    1   25 1    
     4    2    3 ar   
     5    2   27 1    
     6    3    4 ar   
     7    4    5 ar   
     8    4    9 1    
     9    5    6 ar   
    10    5    7 1    
    11    7    8 1    
    12    7   24 2    
    13    8    9 1    
    14    8   10 1    
    15   10   11 1    
    16   11   12 1    
    17   11   16 1    
    18   12   13 1    
    19   13   14 1    
    20   14   15 1    
    21   14   17 1    
    22   15   16 1    
    23   17   18 1    
    24   18   19 ar   
    25   18   23 ar   
    26   19   20 ar   
    27   20   21 ar   
    28   21   22 ar   
    29   22   23 ar   
    30   25   26 1    
    31   27   28 1    
@<TRIPOS>SUBSTRUCTURE
     1 E20604      1 GROUP   
@<TRIPOS>SET

