#    Name: 6jl2_6_1PS_CAVITY_N1_4
#    Modification time : Fri May 22 19:27:17 2020

@<TRIPOS>MOLECULE
6jl2_6_1PS_CAVITY_N1_4
   59     0     4     0     0
SMALL
NO_CHARGES


@<TRIPOS>ATOM
      1 OG        194.3000   52.5800   54.6300 O.3       1 SER1        0.0000 
      2 OG        195.2100   51.3800   54.6700 O.3       1 SER1        0.0000 
      3 OG        194.0100   52.4700   57.9700 O.3       1 SER1        0.0000 
      4 OG        194.6600   52.9200   56.6900 O.3       1 SER1        0.0000 
      5 OG        196.2200   52.1800   55.4600 O.3       1 SER1        0.0000 
      6 OG        197.1200   50.9800   55.5000 O.3       1 SER1        0.0000 
      7 OG        197.7700   51.4300   54.2300 O.3       1 SER1        0.0000 
      8 OG        198.1300   51.7800   56.2900 O.3       1 SER1        0.0000 
      9 N         191.1000   52.0800   56.3500 N.am      2 ALA2        0.0000 
     10 N         191.7500   52.5300   55.0800 N.am      2 ALA2        0.0000 
     11 O         192.3900   52.9800   53.8000 O.2       2 ALA2        0.0000 
     12 O         193.0400   53.4200   52.5200 O.2       2 ALA2        0.0000 
     13 N         191.4500   52.4300   58.4200 N.am      2 ALA2        0.0000 
     14 N         191.1900   54.0700   57.1000 N.am      2 ALA2        0.0000 
     15 N         192.1000   52.8700   57.1400 N.am      2 ALA2        0.0000 
     16 N         192.7500   53.3200   55.8600 N.am      2 ALA2        0.0000 
     17 O         193.6600   52.1300   55.9100 O.2       2 ALA2        0.0000 
     18 N         193.4000   53.7700   54.5900 N.am      2 ALA2        0.0000 
     19 N         193.1000   53.6700   57.9300 N.am      2 ALA2        0.0000 
     20 N         192.8400   55.3100   56.6100 N.am      2 ALA2        0.0000 
     21 N         193.7500   54.1100   56.6500 N.am      2 ALA2        0.0000 
     22 N         193.4900   55.7500   55.3300 N.am      2 ALA2        0.0000 
     23 N         194.7800   56.6500   52.7800 N.am      2 ALA2        0.0000 
     24 O         197.2500   54.7100   51.5900 O.2       2 ALA2        0.0000 
     25 N         194.1000   54.4600   58.7100 N.am      2 ALA2        0.0000 
     26 N         194.2300   58.1900   54.8000 N.am      2 ALA2        0.0000 
     27 CZ        190.4500   51.6300   57.6300 C.ar      3 PHE5        0.0000 
     28 CZ        193.3000   51.7800   53.8400 C.ar      3 PHE5        0.0000 
     29 CZ        193.0100   51.6800   57.1800 C.ar      3 PHE5        0.0000 
     30 CZ        194.5700   50.9400   55.9500 C.ar      3 PHE5        0.0000 
     31 CA        194.0400   54.2200   53.3100 C.3       4 GLY6        0.0000 
     32 CA        194.9500   53.0200   53.3500 C.3       4 GLY6        0.0000 
     33 CA        195.8600   51.8300   53.4000 C.3       4 GLY6        0.0000 
     34 CA        194.6900   54.6600   52.0300 C.3       4 GLY6        0.0000 
     35 CA        195.6000   53.4700   52.0800 C.3       4 GLY6        0.0000 
     36 CA        194.4000   54.5600   55.3700 C.3       4 GLY6        0.0000 
     37 CA        195.3100   53.3700   55.4200 C.3       4 GLY6        0.0000 
     38 CA        194.1400   56.2000   54.0500 C.3       4 GLY6        0.0000 
     39 CA        195.0400   55.0100   54.1000 C.3       4 GLY6        0.0000 
     40 CA        195.9500   53.8200   54.1400 C.3       4 GLY6        0.0000 
     41 CA        196.8600   52.6200   54.1800 C.3       4 GLY6        0.0000 
     42 CA        195.6900   55.4600   52.8200 C.3       4 GLY6        0.0000 
     43 CA        196.6000   54.2600   52.8600 C.3       4 GLY6        0.0000 
     44 CA        197.5100   53.0700   52.9100 C.3       4 GLY6        0.0000 
     45 CA        198.4200   51.8800   52.9500 C.3       4 GLY6        0.0000 
     46 CA        198.1600   53.5200   51.6300 C.3       4 GLY6        0.0000 
     47 CA        193.8400   56.1000   57.3900 C.3       4 GLY6        0.0000 
     48 CA        194.7500   54.9100   57.4400 C.3       4 GLY6        0.0000 
     49 CA        193.5800   57.7400   56.0700 C.3       4 GLY6        0.0000 
     50 CA        194.4900   56.5500   56.1200 C.3       4 GLY6        0.0000 
     51 CA        195.4000   55.3500   56.1600 C.3       4 GLY6        0.0000 
     52 CA        197.2200   52.9700   56.2500 C.3       4 GLY6        0.0000 
     53 CA        195.1400   56.9900   54.8400 C.3       4 GLY6        0.0000 
     54 CA        197.8600   53.4200   54.9700 C.3       4 GLY6        0.0000 
     55 CA        198.7700   52.2200   55.0100 C.3       4 GLY6        0.0000 
     56 CA        198.5100   53.8600   53.6900 C.3       4 GLY6        0.0000 
     57 CA        199.4200   52.6700   53.7400 C.3       4 GLY6        0.0000 
     58 CA        199.1600   54.3100   52.4200 C.3       4 GLY6        0.0000 
     59 CA        195.4900   57.3400   56.9000 C.3       4 GLY6        0.0000 
@<TRIPOS>BOND
@<TRIPOS>SUBSTRUCTURE
     1 SER1        1 GROUP   
     2 ALA2        9 GROUP   
     3 PHE5       27 GROUP   
     4 GLY6       31 GROUP   
@<TRIPOS>SET

