#    Name: 6jl2_6_1PS
#    Modification time : Fri May 22 19:27:16 2020

@<TRIPOS>MOLECULE
6jl2_6_1PS
   13    13     1     0     0
SMALL
NO_CHARGES


@<TRIPOS>ATOM
      1 N1        192.9290   52.4620   56.8230 N.pl3     1 1PS502      0.0000 
      2 C1        193.0370   51.9300   58.0610 C.ar      1 1PS502      0.0000 
      3 C2        191.9070   51.5650   58.7690 C.ar      1 1PS502      0.0000 
      4 C3        191.7170   52.6320   56.2480 C.ar      1 1PS502      0.0000 
      5 C4        190.5630   52.2800   56.9270 C.ar      1 1PS502      0.0000 
      6 C5        190.6630   51.7450   58.1960 C.ar      1 1PS502      0.0000 
      7 C6        194.1470   52.9600   56.1330 C.3       1 1PS502      0.0000 
      8 C7        194.4760   52.1720   54.8790 C.3       1 1PS502      0.0000 
      9 C8        195.4870   52.9070   53.9950 C.3       1 1PS502      0.0000 
     10 S1        194.7690   54.2390   53.0580 S.o2      1 1PS502      0.0000 
     11 O1        194.4920   55.3030   54.0080 O.co2     1 1PS502      0.0000 
     12 O2        195.7700   54.6270   52.0720 O.co2     1 1PS502      0.0000 
     13 O3        193.5630   53.7010   52.4450 O.co2     1 1PS502      0.0000 
@<TRIPOS>BOND
     1    1    2 ar   
     2    1    4 ar   
     3    1    7 1    
     4    2    3 ar   
     5    3    6 ar   
     6    4    5 ar   
     7    5    6 ar   
     8    7    8 1    
     9    8    9 1    
    10    9   10 1    
    11   10   11 ar   
    12   10   12 ar   
    13   10   13 ar   
@<TRIPOS>SUBSTRUCTURE
     1 1PS502      1 GROUP   
@<TRIPOS>SET

