#    Name: 6ijy_2_8DG
#    Modification time : Fri May 22 19:30:31 2020

@<TRIPOS>MOLECULE
6ijy_2_8DG
   32    34     1     0     0
SMALL
NO_CHARGES


@<TRIPOS>ATOM
      1 PG         14.4390   21.0660  -18.7940 P.3       1 8DG201      0.0000 
      2 O1G        13.1810   21.3730  -19.5740 O.co2     1 8DG201      0.0000 
      3 O2G        14.2700   21.0730  -17.2930 O.co2     1 8DG201      0.0000 
      4 O3G        15.6690   21.7930  -19.2890 O.co2     1 8DG201      0.0000 
      5 O3B        14.7720   19.5200  -19.1010 O.3       1 8DG201      0.0000 
      6 PB         13.6320   18.3840  -19.0920 P.3       1 8DG201      0.0000 
      7 O1B        12.4870   18.8630  -19.9550 O.co2     1 8DG201      0.0000 
      8 O2B        14.2920   17.0700  -19.4340 O.co2     1 8DG201      0.0000 
      9 O3A        13.1700   18.3220  -17.5530 O.3       1 8DG201      0.0000 
     10 PA         11.6300   17.9900  -17.2270 P.3       1 8DG201      0.0000 
     11 O1A        11.2950   16.5980  -17.6870 O.co2     1 8DG201      0.0000 
     12 O2A        10.7940   19.1560  -17.6900 O.co2     1 8DG201      0.0000 
     13 O5'        11.6130   18.0340  -15.6360 O.3       1 8DG201      0.0000 
     14 C5'        12.2800   17.0600  -14.8580 C.3       1 8DG201      0.0000 
     15 C4'        12.5320   17.7640  -13.5450 C.3       1 8DG201      0.0000 
     16 O4'        13.1120   16.8420  -12.6310 O.3       1 8DG201      0.0000 
     17 C3'        13.5020   18.9230  -13.7300 C.3       1 8DG201      0.0000 
     18 O3'        12.8680   20.1990  -13.9480 O.3       1 8DG201      0.0000 
     19 C2'        14.3020   18.8940  -12.4440 C.3       1 8DG201      0.0000 
     20 C1'        14.1570   17.4760  -11.9000 C.3       1 8DG201      0.0000 
     21 N9         15.3840   16.6590  -12.0730 N.am      1 8DG201      0.0000 
     22 C8         16.0910   16.4040  -13.1700 C.2       1 8DG201      0.0000 
     23 N7         17.1380   15.5850  -12.9580 N.am      1 8DG201      0.0000 
     24 C5         17.0780   15.2950  -11.6310 C.2       1 8DG201      0.0000 
     25 C6         17.9050   14.4640  -10.7180 C.2       1 8DG201      0.0000 
     26 O6         18.9060   13.8440  -11.1380 O.2       1 8DG201      0.0000 
     27 N1         17.5420   14.3950   -9.4250 N.am      1 8DG201      0.0000 
     28 C2         16.4640   15.0680   -8.9780 C.2       1 8DG201      0.0000 
     29 N2         16.1470   14.9690   -7.6680 N.pl3     1 8DG201      0.0000 
     30 N3         15.6910   15.8340   -9.7810 N.2       1 8DG201      0.0000 
     31 C4         15.9760   15.9570  -11.0940 C.2       1 8DG201      0.0000 
     32 O8         15.8030   16.9090  -14.3180 O.2       1 8DG201      0.0000 
@<TRIPOS>BOND
     1    1    2 ar   
     2    1    3 ar   
     3    1    4 ar   
     4    1    5 1    
     5    5    6 1    
     6    6    7 ar   
     7    6    8 ar   
     8    6    9 1    
     9    9   10 1    
    10   10   11 ar   
    11   10   12 ar   
    12   10   13 1    
    13   13   14 1    
    14   14   15 1    
    15   15   16 1    
    16   15   17 1    
    17   16   20 1    
    18   17   18 1    
    19   17   19 1    
    20   19   20 1    
    21   20   21 1    
    22   21   22 am   
    23   21   31 1    
    24   22   23 am   
    25   22   32 2    
    26   23   24 1    
    27   24   25 1    
    28   24   31 2    
    29   25   26 2    
    30   25   27 am   
    31   27   28 1    
    32   28   29 1    
    33   28   30 2    
    34   30   31 1    
@<TRIPOS>SUBSTRUCTURE
     1 8DG201      1 GROUP   
@<TRIPOS>SET

