#    Name: 6ijy_2_8DG_CAVITY_N1_8
#    Modification time : Fri May 22 19:30:32 2020

@<TRIPOS>MOLECULE
6ijy_2_8DG_CAVITY_N1_8
   87     0     6     0     0
SMALL
NO_CHARGES


@<TRIPOS>ATOM
      1 N          17.0000   12.4400  -15.8400 N.am      1 ALA2        0.0000 
      2 N          16.6300   15.4200  -17.3400 N.am      1 ALA2        0.0000 
      3 O          17.9500   13.5300  -15.4200 O.2       1 ALA2        0.0000 
      4 O          17.6400   13.0000  -13.3900 O.2       1 ALA2        0.0000 
      5 O          18.2300   15.5600  -15.9500 O.2       1 ALA2        0.0000 
      6 O          17.2700   15.9800  -14.8800 O.2       1 ALA2        0.0000 
      7 O          18.8900   14.6100  -14.9900 O.2       1 ALA2        0.0000 
      8 O          17.9300   15.0300  -13.9200 O.2       1 ALA2        0.0000 
      9 O          16.9700   15.4500  -12.8500 O.2       1 ALA2        0.0000 
     10 O          18.5900   14.0800  -12.9600 O.2       1 ALA2        0.0000 
     11 O          17.6200   14.5000  -11.8900 O.2       1 ALA2        0.0000 
     12 O          19.2400   13.1300  -12.0000 O.2       1 ALA2        0.0000 
     13 O          18.2800   13.5500  -10.9300 O.2       1 ALA2        0.0000 
     14 O          17.9100   16.5300  -12.4200 O.2       1 ALA2        0.0000 
     15 O          14.9600   21.2900  -12.7300 O.2       1 ALA2        0.0000 
     16 O          13.0300   22.1300  -10.5900 O.2       1 ALA2        0.0000 
     17 OD1        16.2600   18.4000  -18.8300 O.co2     2 ASP3        0.0000 
     18 OD1        17.5800   16.5100  -16.9100 O.co2     2 ASP3        0.0000 
     19 NZ         17.3200   13.9700   -9.8600 N.4       3 LYS4        0.0000 
     20 CZ         14.0700   15.7000  -17.6500 C.ar      4 PHE5        0.0000 
     21 CZ         13.1100   16.1200  -16.5800 C.ar      4 PHE5        0.0000 
     22 CZ         15.6900   14.3400  -17.7600 C.ar      4 PHE5        0.0000 
     23 CZ         14.7300   14.7500  -16.6900 C.ar      4 PHE5        0.0000 
     24 CZ         13.7600   15.1700  -15.6200 C.ar      4 PHE5        0.0000 
     25 CZ         16.3500   13.3900  -16.8000 C.ar      4 PHE5        0.0000 
     26 CZ         15.3800   13.8100  -15.7300 C.ar      4 PHE5        0.0000 
     27 CZ         12.4800   16.5600  -11.0200 C.ar      4 PHE5        0.0000 
     28 CZ         15.7200   13.8300  -11.2500 C.ar      4 PHE5        0.0000 
     29 CZ         14.7500   14.2500  -10.1700 C.ar      4 PHE5        0.0000 
     30 CZ         17.3400   12.4700  -11.3600 C.ar      4 PHE5        0.0000 
     31 CZ         16.3700   12.8800  -10.2900 C.ar      4 PHE5        0.0000 
     32 CZ         15.3500   16.8100  -12.7400 C.ar      4 PHE5        0.0000 
     33 CZ         14.3800   17.2300  -11.6700 C.ar      4 PHE5        0.0000 
     34 CZ         13.4200   17.6400  -10.5900 C.ar      4 PHE5        0.0000 
     35 CZ         16.0000   15.8600  -11.7800 C.ar      4 PHE5        0.0000 
     36 CZ         15.0400   16.2800  -10.7100 C.ar      4 PHE5        0.0000 
     37 CZ         16.6600   14.9200  -10.8200 C.ar      4 PHE5        0.0000 
     38 CZ         15.7000   15.3300   -9.7500 C.ar      4 PHE5        0.0000 
     39 CZ         15.6300   18.8400  -13.2700 C.ar      4 PHE5        0.0000 
     40 CZ         14.6700   19.2600  -12.2000 C.ar      4 PHE5        0.0000 
     41 CZ         13.7100   19.6800  -11.1300 C.ar      4 PHE5        0.0000 
     42 CZ         16.2900   17.9000  -12.3100 C.ar      4 PHE5        0.0000 
     43 CZ         18.5700   15.5800  -11.4700 C.ar      4 PHE5        0.0000 
     44 CA         14.3800   16.2300  -19.6800 C.3       5 GLY6        0.0000 
     45 CA         15.0300   15.2800  -18.7200 C.3       5 GLY6        0.0000 
     46 CA         11.8400   16.0000  -13.4800 C.3       5 GLY6        0.0000 
     47 CA         16.0400   12.8600  -14.7700 C.3       5 GLY6        0.0000 
     48 CA         17.6600   11.4900  -14.8900 C.3       5 GLY6        0.0000 
     49 CA         16.7000   11.9100  -13.8100 C.3       5 GLY6        0.0000 
     50 CA         15.7400   12.3300  -12.7400 C.3       5 GLY6        0.0000 
     51 CA         17.3600   10.9600  -12.8500 C.3       5 GLY6        0.0000 
     52 CA         15.9800   16.3700  -18.3000 C.3       5 GLY6        0.0000 
     53 CA         14.7100   16.2600  -15.1900 C.3       5 GLY6        0.0000 
     54 CA         13.7400   16.6700  -14.1200 C.3       5 GLY6        0.0000 
     55 CA         12.7800   17.0900  -13.0500 C.3       5 GLY6        0.0000 
     56 CA         18.2500   14.0600  -17.4500 C.3       5 GLY6        0.0000 
     57 CA         15.3600   15.3100  -14.2400 C.3       5 GLY6        0.0000 
     58 CA         14.4000   15.7300  -13.1600 C.3       5 GLY6        0.0000 
     59 CA         13.4400   16.1400  -12.0900 C.3       5 GLY6        0.0000 
     60 CA         18.9100   13.1100  -16.4900 C.3       5 GLY6        0.0000 
     61 CA         16.0200   14.3600  -13.2800 C.3       5 GLY6        0.0000 
     62 CA         15.0600   14.7800  -12.2000 C.3       5 GLY6        0.0000 
     63 CA         14.1000   15.1900  -11.1300 C.3       5 GLY6        0.0000 
     64 CA         18.6100   12.5800  -14.4600 C.3       5 GLY6        0.0000 
     65 CA         19.2600   11.6300  -13.5000 C.3       5 GLY6        0.0000 
     66 CA         18.3000   12.0500  -12.4300 C.3       5 GLY6        0.0000 
     67 CA         18.9600   11.1000  -11.4700 C.3       5 GLY6        0.0000 
     68 CA         13.0500   20.6300  -12.0900 C.3       5 GLY6        0.0000 
     69 CA         13.9900   21.7100  -11.6600 C.3       5 GLY6        0.0000 
     70 DU         15.3200   17.3200  -19.2600 H         6 CUB7        0.0000 
     71 DU         14.3600   17.7300  -18.1900 H         6 CUB7        0.0000 
     72 DU         15.0100   16.7900  -17.2300 H         6 CUB7        0.0000 
     73 DU         14.0500   17.2000  -16.1500 H         6 CUB7        0.0000 
     74 DU         13.0900   17.6200  -15.0800 H         6 CUB7        0.0000 
     75 DU         15.6700   15.8400  -16.2700 H         6 CUB7        0.0000 
     76 DU         17.2900   14.4700  -16.3800 H         6 CUB7        0.0000 
     77 DU         16.3300   14.8900  -15.3100 H         6 CUB7        0.0000 
     78 DU         16.9800   13.9400  -14.3500 H         6 CUB7        0.0000 
     79 DU         16.6800   13.4100  -12.3200 H         6 CUB7        0.0000 
     80 DU         15.3000   18.8200  -17.7600 H         6 CUB7        0.0000 
     81 DU         15.9600   17.8700  -16.8000 H         6 CUB7        0.0000 
     82 DU         14.6900   17.7600  -13.7000 H         6 CUB7        0.0000 
     83 DU         13.7300   18.1800  -12.6300 H         6 CUB7        0.0000 
     84 DU         12.7600   18.5900  -11.5500 H         6 CUB7        0.0000 
     85 DU         16.3100   16.3900  -13.8100 H         6 CUB7        0.0000 
     86 DU         14.9700   19.7900  -14.2300 H         6 CUB7        0.0000 
     87 DU         14.0100   20.2100  -13.1600 H         6 CUB7        0.0000 
@<TRIPOS>BOND
@<TRIPOS>SUBSTRUCTURE
     1 ALA2        1 GROUP   
     2 ASP3       17 GROUP   
     3 LYS4       19 GROUP   
     4 PHE5       20 GROUP   
     5 GLY6       44 GROUP   
     6 CUB7       70 GROUP   
@<TRIPOS>SET

