#    Name: 6bwc_3_UD1
#    Modification time : Fri May 22 19:28:04 2020

@<TRIPOS>MOLECULE
6bwc_3_UD1
   39    41     1     0     0
SMALL
NO_CHARGES


@<TRIPOS>ATOM
      1 C1'        76.5730   26.0960  140.2490 C.3       1 UD1401      0.0000 
      2 C2'        75.9290   26.5560  138.9520 C.3       1 UD1401      0.0000 
      3 C3'        76.9070   27.3510  138.0890 C.3       1 UD1401      0.0000 
      4 C4'        77.6150   28.4440  138.8850 C.3       1 UD1401      0.0000 
      5 C5'        78.0390   27.9820  140.2930 C.3       1 UD1401      0.0000 
      6 C6'        78.4090   29.1980  141.1520 C.3       1 UD1401      0.0000 
      7 C7'        74.2530   24.8310  138.4260 C.2       1 UD1401      0.0000 
      8 C8'        74.0210   23.5060  137.7280 C.3       1 UD1401      0.0000 
      9 N2'        75.4320   25.4190  138.1990 N.am      1 UD1401      0.0000 
     10 O1'        77.7210   25.3120  139.9640 O.3       1 UD1401      0.0000 
     11 O3'        76.1870   27.9100  136.9720 O.3       1 UD1401      0.0000 
     12 O4'        78.7580   28.9070  138.1900 O.3       1 UD1401      0.0000 
     13 O5'        77.0090   27.2200  140.9580 O.3       1 UD1401      0.0000 
     14 O6'        79.5220   28.9220  142.0070 O.3       1 UD1401      0.0000 
     15 O7'        73.4050   25.2790  139.1960 O.2       1 UD1401      0.0000 
     16 N1         79.0950   17.6510  143.4280 N.am      1 UD1401      0.0000 
     17 C2         79.2040   16.3370  143.9750 C.2       1 UD1401      0.0000 
     18 N3         78.5660   15.3150  143.3820 N.am      1 UD1401      0.0000 
     19 C4         77.8190   15.4940  142.2740 C.2       1 UD1401      0.0000 
     20 C5         77.6750   16.7440  141.7260 C.2       1 UD1401      0.0000 
     21 C6         78.3100   17.8190  142.3290 C.2       1 UD1401      0.0000 
     22 O2         79.8940   16.1050  144.9840 O.2       1 UD1401      0.0000 
     23 O4         77.2250   14.5470  141.7350 O.2       1 UD1401      0.0000 
     24 C1B        79.8010   18.7990  144.0360 C.3       1 UD1401      0.0000 
     25 C2B        80.5630   19.6960  143.0580 C.3       1 UD1401      0.0000 
     26 O2'        81.8880   19.2380  142.8240 O.3       1 UD1401      0.0000 
     27 C3B        80.5000   21.0710  143.6930 C.3       1 UD1401      0.0000 
     28 C4B        79.1880   21.0170  144.4460 C.3       1 UD1401      0.0000 
     29 O4B        78.8370   19.6440  144.6130 O.3       1 UD1401      0.0000 
     30 O3B        81.5370   21.3460  144.6410 O.3       1 UD1401      0.0000 
     31 C5B        78.0540   21.7380  143.7350 C.3       1 UD1401      0.0000 
     32 O5B        77.7130   21.1810  142.4560 O.3       1 UD1401      0.0000 
     33 PA         76.4530   21.8690  141.7360 P.3       1 UD1401      0.0000 
     34 O1A        75.9390   21.0690  140.5640 O.co2     1 UD1401      0.0000 
     35 O2A        75.4140   22.3310  142.7630 O.co2     1 UD1401      0.0000 
     36 O3A        76.9340   23.3480  141.3020 O.3       1 UD1401      0.0000 
     37 PB         78.3140   24.0250  140.7930 P.3       1 UD1401      0.0000 
     38 O1B        78.9530   23.1530  139.7320 O.co2     1 UD1401      0.0000 
     39 O2B        79.2240   24.5350  141.9040 O.co2     1 UD1401      0.0000 
@<TRIPOS>BOND
     1    1    2 1    
     2    1   10 1    
     3    1   13 1    
     4    2    3 1    
     5    2    9 1    
     6    3    4 1    
     7    3   11 1    
     8    4    5 1    
     9    4   12 1    
    10    5    6 1    
    11    5   13 1    
    12    6   14 1    
    13    7    8 1    
    14    7    9 am   
    15    7   15 2    
    16   10   37 1    
    17   16   17 1    
    18   16   21 1    
    19   16   24 1    
    20   17   18 1    
    21   17   22 2    
    22   18   19 1    
    23   19   20 1    
    24   19   23 2    
    25   20   21 2    
    26   24   25 1    
    27   24   29 1    
    28   25   26 1    
    29   25   27 1    
    30   27   28 1    
    31   27   30 1    
    32   28   29 1    
    33   28   31 1    
    34   31   32 1    
    35   32   33 1    
    36   33   34 ar   
    37   33   35 ar   
    38   33   36 1    
    39   36   37 1    
    40   37   38 ar   
    41   37   39 ar   
@<TRIPOS>SUBSTRUCTURE
     1 UD1401      1 GROUP   
@<TRIPOS>SET

