#    Name: 6bwc_4_NAP
#    Modification time : Fri May 22 19:28:50 2020

@<TRIPOS>MOLECULE
6bwc_4_NAP
   48    52     1     0     1
SMALL
NO_CHARGES


@<TRIPOS>ATOM
      1 PA         99.3010   37.8920  113.6060 P.3       1 NAP400      0.0000 
      2 O1A       100.6780   38.3130  113.2290 O.co2     1 NAP400      0.0000 
      3 O2A        98.3090   38.9810  113.8280 O.co2     1 NAP400      0.0000 
      4 O5B        98.7520   36.8170  112.5490 O.3       1 NAP400      0.0000 
      5 C5B        97.3560   36.6410  112.3080 C.3       1 NAP400      0.0000 
      6 C4B        97.1290   35.9750  110.9550 C.3       1 NAP400      0.0000 
      7 O4B        95.7610   35.6030  110.7670 O.3       1 NAP400      0.0000 
      8 C3B        97.3960   36.9330  109.8340 C.3       1 NAP400      0.0000 
      9 O3B        97.8280   36.1420  108.7450 O.3       1 NAP400      0.0000 
     10 C2B        96.0460   37.5460  109.5510 C.3       1 NAP400      0.0000 
     11 O2B        96.0580   38.0150  108.2290 O.3       1 NAP400      0.0000 
     12 C1B        95.1080   36.3750  109.7530 C.3       1 NAP400      0.0000 
     13 N9A        93.6790   36.6080  110.1540 N.pl3     1 NAP400      0.0000 
     14 C8A        93.1650   37.3910  111.1310 C.2       1 NAP400      0.0000 
     15 N7A        91.7940   37.2890  111.2100 N.2       1 NAP400      0.0000 
     16 C5A        91.4130   36.4100  110.2830 C.ar      1 NAP400      0.0000 
     17 C6A        90.1310   35.8220  109.8240 C.ar      1 NAP400      0.0000 
     18 N6A        88.9670   36.1990  110.3850 N.pl3     1 NAP400      0.0000 
     19 N1A        90.1510   34.9210  108.8160 N.ar      1 NAP400      0.0000 
     20 C2A        91.3120   34.5520  108.2230 C.ar      1 NAP400      0.0000 
     21 N3A        92.5240   35.0450  108.5810 N.ar      1 NAP400      0.0000 
     22 C4A        92.6430   35.9630  109.5890 C.ar      1 NAP400      0.0000 
     23 O3         99.4310   37.0180  114.9590 O.3       1 NAP400      0.0000 
     24 PN        100.6400   36.0510  115.4440 P.3       1 NAP400      0.0000 
     25 O1N       101.2220   35.4450  114.1880 O.co2     1 NAP400      0.0000 
     26 O2N       101.4680   36.7830  116.4840 O.co2     1 NAP400      0.0000 
     27 O5D        99.9560   34.9230  116.3170 O.3       1 NAP400      0.0000 
     28 C5D        99.0170   34.1170  115.6730 C.3       1 NAP400      0.0000 
     29 C4D        98.4080   33.1310  116.6490 C.3       1 NAP400      0.0000 
     30 O4D        99.2460   32.9340  117.8020 O.3       1 NAP400      0.0000 
     31 C3D        97.0290   33.4950  117.1950 C.3       1 NAP400      0.0000 
     32 O3D        96.2030   32.3200  117.2020 O.3       1 NAP400      0.0000 
     33 C2D        97.3080   34.0050  118.5950 C.3       1 NAP400      0.0000 
     34 O2D        96.1830   33.9030  119.4680 O.3       1 NAP400      0.0000 
     35 C1D        98.4640   33.1170  118.9950 C.3       1 NAP400      0.0000 
     36 N1N        99.3500   33.6720  120.0050 N.pl3     1 NAP400      0.0000 
     37 C2N       100.2350   34.6530  119.6850 C.ar      1 NAP400      0.0000 
     38 C3N       101.1430   35.2040  120.6020 C.ar      1 NAP400      0.0000 
     39 C7N       102.1180   36.2920  120.2600 C.2       1 NAP400      0.0000 
     40 O7N       102.6490   36.9620  121.1690 O.2       1 NAP400      0.0000 
     41 N7N       102.4280   36.5130  118.9740 N.am      1 NAP400      0.0000 
     42 C4N       101.1780   34.6810  122.0020 C.ar      1 NAP400      0.0000 
     43 C5N       100.1770   33.6220  122.2320 C.ar      1 NAP400      0.0000 
     44 C6N        99.3220   33.1430  121.2310 C.ar      1 NAP400      0.0000 
     45 P2B        95.2260   39.3060  107.7500 P.3       1 NAP400      0.0000 
     46 O1X        95.7800   39.3940  106.3330 O.co2     1 NAP400      0.0000 
     47 O2X        93.7690   38.9380  107.8530 O.co2     1 NAP400      0.0000 
     48 O3X        95.6450   40.4690  108.6490 O.co2     1 NAP400      0.0000 
@<TRIPOS>BOND
     1    1    2 ar   
     2    1    3 ar   
     3    1    4 1    
     4    1   23 1    
     5    4    5 1    
     6    5    6 1    
     7    6    7 1    
     8    6    8 1    
     9    7   12 1    
    10    8    9 1    
    11    8   10 1    
    12   10   11 1    
    13   10   12 1    
    14   11   45 1    
    15   12   13 1    
    16   13   14 1    
    17   13   22 1    
    18   14   15 2    
    19   15   16 1    
    20   16   17 ar   
    21   16   22 ar   
    22   17   18 1    
    23   17   19 ar   
    24   19   20 ar   
    25   20   21 ar   
    26   21   22 ar   
    27   23   24 1    
    28   24   25 ar   
    29   24   26 ar   
    30   24   27 1    
    31   27   28 1    
    32   28   29 1    
    33   29   30 1    
    34   29   31 1    
    35   30   35 1    
    36   31   32 1    
    37   31   33 1    
    38   33   34 1    
    39   33   35 1    
    40   35   36 1    
    41   36   37 ar   
    42   36   44 ar   
    43   37   38 ar   
    44   38   39 1    
    45   38   42 ar   
    46   39   40 2    
    47   39   41 am   
    48   42   43 ar   
    49   43   44 ar   
    50   45   46 ar   
    51   45   47 ar   
    52   45   48 ar   
@<TRIPOS>SUBSTRUCTURE
     1 NAP400      1 GROUP   
@<TRIPOS>SET
ATOM$ORANGE STATIC     ATOMS   COLORGROUP SYSTEM 
42 5 5 6 6 8 8 10 10 12 12 14 14 16 16 17 17 20 \
20 22 22 28 28 29 29 31 31 33 33 35 35 37 37 38 38 39 \
39 42 42 43 43 44 44 

