#    Name: 6bwc_6_UD1
#    Modification time : Fri May 22 19:28:38 2020

@<TRIPOS>MOLECULE
6bwc_6_UD1
   39    41     1     0     0
SMALL
NO_CHARGES


@<TRIPOS>ATOM
      1 C1'        69.3960   39.9190   74.5750 C.3       1 UD1402      0.0000 
      2 C2'        69.3560   38.9870   75.7660 C.3       1 UD1402      0.0000 
      3 C3'        70.5850   39.1620   76.6480 C.3       1 UD1402      0.0000 
      4 C4'        71.9160   39.3820   75.9000 C.3       1 UD1402      0.0000 
      5 C5'        71.7710   39.9230   74.4570 C.3       1 UD1402      0.0000 
      6 C6'        72.8550   39.4550   73.4750 C.3       1 UD1402      0.0000 
      7 C7'        66.9450   38.5780   76.0560 C.2       1 UD1402      0.0000 
      8 C8'        65.6520   39.0630   76.6950 C.3       1 UD1402      0.0000 
      9 N2'        68.0860   39.2060   76.4230 N.am      1 UD1402      0.0000 
     10 O1'        69.4420   41.3210   74.9100 O.3       1 UD1402      0.0000 
     11 O3'        70.7100   37.9630   77.4160 O.3       1 UD1402      0.0000 
     12 O4'        72.7460   40.2950   76.6560 O.3       1 UD1402      0.0000 
     13 O5'        70.5530   39.5050   73.8750 O.3       1 UD1402      0.0000 
     14 O6'        73.0800   40.4400   72.4480 O.3       1 UD1402      0.0000 
     15 O7'        66.9200   37.6770   75.2160 O.2       1 UD1402      0.0000 
     16 N1         64.3580   46.9790   71.2780 N.am      1 UD1402      0.0000 
     17 C2         63.6070   48.0980   70.8580 C.2       1 UD1402      0.0000 
     18 N3         62.4420   48.3520   71.4430 N.am      1 UD1402      0.0000 
     19 C4         61.9830   47.5510   72.4080 C.2       1 UD1402      0.0000 
     20 C5         62.7110   46.4440   72.8420 C.2       1 UD1402      0.0000 
     21 C6         63.9270   46.1690   72.2560 C.2       1 UD1402      0.0000 
     22 O2         64.0030   48.8630   69.9550 O.2       1 UD1402      0.0000 
     23 O4         60.8830   47.8100   72.9180 O.2       1 UD1402      0.0000 
     24 C1B        65.6570   46.7680   70.6790 C.3       1 UD1402      0.0000 
     25 C2B        66.7330   46.8920   71.7760 C.3       1 UD1402      0.0000 
     26 O2'        67.1710   48.2330   72.0630 O.3       1 UD1402      0.0000 
     27 C3B        67.8220   46.0410   71.1980 C.3       1 UD1402      0.0000 
     28 C4B        67.0760   45.0210   70.3280 C.3       1 UD1402      0.0000 
     29 O4B        65.7500   45.4980   70.0780 O.3       1 UD1402      0.0000 
     30 O3B        68.7030   46.8620   70.4140 O.3       1 UD1402      0.0000 
     31 C5B        66.9660   43.6480   70.9780 C.3       1 UD1402      0.0000 
     32 O5B        66.5590   43.6970   72.3630 O.3       1 UD1402      0.0000 
     33 PA         65.9900   42.3430   73.0530 P.3       1 UD1402      0.0000 
     34 O1A        64.9790   42.7410   74.0960 O.co2     1 UD1402      0.0000 
     35 O2A        65.6200   41.2580   72.0250 O.co2     1 UD1402      0.0000 
     36 O3A        67.3120   41.7460   73.7570 O.3       1 UD1402      0.0000 
     37 PB         68.7330   42.4630   73.9880 P.3       1 UD1402      0.0000 
     38 O1B        68.5350   43.6840   74.8580 O.co2     1 UD1402      0.0000 
     39 O2B        69.4150   42.6050   72.6560 O.co2     1 UD1402      0.0000 
@<TRIPOS>BOND
     1    1    2 1    
     2    1   10 1    
     3    1   13 1    
     4    2    3 1    
     5    2    9 1    
     6    3    4 1    
     7    3   11 1    
     8    4    5 1    
     9    4   12 1    
    10    5    6 1    
    11    5   13 1    
    12    6   14 1    
    13    7    8 1    
    14    7    9 am   
    15    7   15 2    
    16   10   37 1    
    17   16   17 1    
    18   16   21 1    
    19   16   24 1    
    20   17   18 1    
    21   17   22 2    
    22   18   19 1    
    23   19   20 1    
    24   19   23 2    
    25   20   21 2    
    26   24   25 1    
    27   24   29 1    
    28   25   26 1    
    29   25   27 1    
    30   27   28 1    
    31   27   30 1    
    32   28   29 1    
    33   28   31 1    
    34   31   32 1    
    35   32   33 1    
    36   33   34 ar   
    37   33   35 ar   
    38   33   36 1    
    39   36   37 1    
    40   37   38 ar   
    41   37   39 ar   
@<TRIPOS>SUBSTRUCTURE
     1 UD1402      1 GROUP   
@<TRIPOS>SET

