#    Name: 6bwc_1_UD1
#    Modification time : Fri May 22 19:27:42 2020

@<TRIPOS>MOLECULE
6bwc_1_UD1
   39    41     1     0     0
SMALL
NO_CHARGES


@<TRIPOS>ATOM
      1 C1'        42.4830   24.9580   92.6160 C.3       1 UD1402      0.0000 
      2 C2'        43.5880   25.9030   93.0380 C.3       1 UD1402      0.0000 
      3 C3'        44.0200   25.6620   94.4760 C.3       1 UD1402      0.0000 
      4 C4'        42.8080   25.6910   95.4090 C.3       1 UD1402      0.0000 
      5 C5'        41.5640   24.9540   94.8500 C.3       1 UD1402      0.0000 
      6 C6'        40.2610   25.3960   95.5280 C.3       1 UD1402      0.0000 
      7 C7'        44.7970   26.3080   90.9360 C.2       1 UD1402      0.0000 
      8 C8'        45.9360   25.8050   90.0930 C.3       1 UD1402      0.0000 
      9 N2'        44.6840   25.7030   92.1240 N.am      1 UD1402      0.0000 
     10 O1'        42.9030   23.5810   92.7060 O.3       1 UD1402      0.0000 
     11 O3'        44.9500   26.6820   94.8490 O.3       1 UD1402      0.0000 
     12 O4'        43.1840   25.1330   96.6690 O.3       1 UD1402      0.0000 
     13 O5'        41.3710   25.2030   93.4580 O.3       1 UD1402      0.0000 
     14 O6'        39.1790   24.4610   95.3750 O.3       1 UD1402      0.0000 
     15 O7'        44.0330   27.1790   90.5360 O.2       1 UD1402      0.0000 
     16 N1         41.4970   17.7820   86.8710 N.am      1 UD1402      0.0000 
     17 C2         41.3670   16.6630   86.0240 C.2       1 UD1402      0.0000 
     18 N3         42.3240   16.4220   85.1220 N.am      1 UD1402      0.0000 
     19 C4         43.3740   17.2340   85.0040 C.2       1 UD1402      0.0000 
     20 C5         43.5220   18.3370   85.8260 C.2       1 UD1402      0.0000 
     21 C6         42.5520   18.5950   86.7680 C.2       1 UD1402      0.0000 
     22 O2         40.3890   15.8820   86.1100 O.2       1 UD1402      0.0000 
     23 O4         44.2280   16.9870   84.1530 O.2       1 UD1402      0.0000 
     24 C1B        40.4840   18.0100   87.8900 C.3       1 UD1402      0.0000 
     25 C2B        41.0990   17.9410   89.2980 C.3       1 UD1402      0.0000 
     26 O2'        41.2970   16.6080   89.8010 O.3       1 UD1402      0.0000 
     27 C3B        40.0860   18.7590   90.0590 C.3       1 UD1402      0.0000 
     28 C4B        39.5870   19.7850   89.0520 C.3       1 UD1402      0.0000 
     29 O4B        39.8950   19.2920   87.7480 O.3       1 UD1402      0.0000 
     30 O3B        38.9860   17.9380   90.4540 O.3       1 UD1402      0.0000 
     31 C5B        40.2380   21.1480   89.2250 C.3       1 UD1402      0.0000 
     32 O5B        41.6680   21.0950   89.1190 O.3       1 UD1402      0.0000 
     33 PA         42.4670   22.4820   88.9940 P.3       1 UD1402      0.0000 
     34 O1A        43.9350   22.1850   88.8820 O.co2     1 UD1402      0.0000 
     35 O2A        41.8250   23.4360   87.9850 O.co2     1 UD1402      0.0000 
     36 O3A        42.1130   23.1070   90.4310 O.3       1 UD1402      0.0000 
     37 PB         42.2430   22.3740   91.8470 P.3       1 UD1402      0.0000 
     38 O1B        43.2580   21.2710   91.7730 O.co2     1 UD1402      0.0000 
     39 O2B        40.8880   22.0640   92.4170 O.co2     1 UD1402      0.0000 
@<TRIPOS>BOND
     1    1    2 1    
     2    1   10 1    
     3    1   13 1    
     4    2    3 1    
     5    2    9 1    
     6    3    4 1    
     7    3   11 1    
     8    4    5 1    
     9    4   12 1    
    10    5    6 1    
    11    5   13 1    
    12    6   14 1    
    13    7    8 1    
    14    7    9 am   
    15    7   15 2    
    16   10   37 1    
    17   16   17 1    
    18   16   21 1    
    19   16   24 1    
    20   17   18 1    
    21   17   22 2    
    22   18   19 1    
    23   19   20 1    
    24   19   23 2    
    25   20   21 2    
    26   24   25 1    
    27   24   29 1    
    28   25   26 1    
    29   25   27 1    
    30   27   28 1    
    31   27   30 1    
    32   28   29 1    
    33   28   31 1    
    34   31   32 1    
    35   32   33 1    
    36   33   34 ar   
    37   33   35 ar   
    38   33   36 1    
    39   36   37 1    
    40   37   38 ar   
    41   37   39 ar   
@<TRIPOS>SUBSTRUCTURE
     1 UD1402      1 GROUP   
@<TRIPOS>SET

