#    Name: 6bwc_5_UD1
#    Modification time : Fri May 22 19:28:26 2020

@<TRIPOS>MOLECULE
6bwc_5_UD1
   39    41     1     0     0
SMALL
NO_CHARGES


@<TRIPOS>ATOM
      1 C1'        95.0720   50.6490   90.3390 C.3       1 UD1401      0.0000 
      2 C2'        94.1940   50.1800   91.4980 C.3       1 UD1401      0.0000 
      3 C3'        92.8080   49.7360   91.0000 C.3       1 UD1401      0.0000 
      4 C4'        92.1890   50.7410   89.9810 C.3       1 UD1401      0.0000 
      5 C5'        93.2160   51.3370   88.9900 C.3       1 UD1401      0.0000 
      6 C6'        92.6950   52.5630   88.2400 C.3       1 UD1401      0.0000 
      7 C7'        95.5500   49.3510   93.3640 C.2       1 UD1401      0.0000 
      8 C8'        96.4270   48.2250   93.8350 C.3       1 UD1401      0.0000 
      9 N2'        94.9250   49.1370   92.2000 N.am      1 UD1401      0.0000 
     10 O1'        95.3110   49.5400   89.4500 O.3       1 UD1401      0.0000 
     11 O3'        91.9490   49.5250   92.1410 O.3       1 UD1401      0.0000 
     12 O4'        91.1330   50.1340   89.2230 O.3       1 UD1401      0.0000 
     13 O5'        94.4080   51.7300   89.6790 O.3       1 UD1401      0.0000 
     14 O6'        93.2190   52.6780   86.9090 O.3       1 UD1401      0.0000 
     15 O7'        95.4770   50.3830   94.0180 O.2       1 UD1401      0.0000 
     16 N1        102.8750   47.1020   87.2080 N.am      1 UD1401      0.0000 
     17 C2        104.1990   46.6200   86.8670 C.2       1 UD1401      0.0000 
     18 N3        104.8010   45.7150   87.6890 N.am      1 UD1401      0.0000 
     19 C4        104.1790   45.2510   88.8110 C.2       1 UD1401      0.0000 
     20 C5        102.9050   45.7040   89.1590 C.2       1 UD1401      0.0000 
     21 C6        102.2740   46.6270   88.3390 C.2       1 UD1401      0.0000 
     22 O2        104.8280   47.0070   85.8390 O.2       1 UD1401      0.0000 
     23 O4        104.7370   44.4230   89.5600 O.2       1 UD1401      0.0000 
     24 C1B       102.1590   48.0490   86.3130 C.3       1 UD1401      0.0000 
     25 C2B       100.6930   47.6470   86.0020 C.3       1 UD1401      0.0000 
     26 O2'       100.4790   46.6840   84.9730 O.3       1 UD1401      0.0000 
     27 C3B       100.1080   48.9660   85.6170 C.3       1 UD1401      0.0000 
     28 C4B       100.8620   49.9490   86.4980 C.3       1 UD1401      0.0000 
     29 O4B       102.1190   49.3740   86.8310 O.3       1 UD1401      0.0000 
     30 O3B       100.3640   49.2040   84.2400 O.3       1 UD1401      0.0000 
     31 C5B       100.1310   50.2250   87.7990 C.3       1 UD1401      0.0000 
     32 O5B       100.0180   49.0500   88.6090 O.3       1 UD1401      0.0000 
     33 PA         99.3190   49.1510   90.0590 P.3       1 UD1401      0.0000 
     34 O1A        99.2000   47.7600   90.6270 O.co2     1 UD1401      0.0000 
     35 O2A       100.0010   50.2800   90.8080 O.co2     1 UD1401      0.0000 
     36 O3A        97.8500   49.7810   89.7650 O.3       1 UD1401      0.0000 
     37 PB         96.7210   49.1780   88.7600 P.3       1 UD1401      0.0000 
     38 O1B        96.8400   47.6700   88.7910 O.co2     1 UD1401      0.0000 
     39 O2B        96.7390   49.9390   87.4530 O.co2     1 UD1401      0.0000 
@<TRIPOS>BOND
     1    1    2 1    
     2    1   10 1    
     3    1   13 1    
     4    2    3 1    
     5    2    9 1    
     6    3    4 1    
     7    3   11 1    
     8    4    5 1    
     9    4   12 1    
    10    5    6 1    
    11    5   13 1    
    12    6   14 1    
    13    7    8 1    
    14    7    9 am   
    15    7   15 2    
    16   10   37 1    
    17   16   17 1    
    18   16   21 1    
    19   16   24 1    
    20   17   18 1    
    21   17   22 2    
    22   18   19 1    
    23   19   20 1    
    24   19   23 2    
    25   20   21 2    
    26   24   25 1    
    27   24   29 1    
    28   25   26 1    
    29   25   27 1    
    30   27   28 1    
    31   27   30 1    
    32   28   29 1    
    33   28   31 1    
    34   31   32 1    
    35   32   33 1    
    36   33   34 ar   
    37   33   35 ar   
    38   33   36 1    
    39   36   37 1    
    40   37   38 ar   
    41   37   39 ar   
@<TRIPOS>SUBSTRUCTURE
     1 UD1401      1 GROUP   
@<TRIPOS>SET

