#    Name: 6bwc_2_UD1
#    Modification time : Fri May 22 19:27:54 2020

@<TRIPOS>MOLECULE
6bwc_2_UD1
   39    41     1     0     0
SMALL
NO_CHARGES


@<TRIPOS>ATOM
      1 C1'        47.7330   14.2820  122.4320 C.3       1 UD1402      0.0000 
      2 C2'        49.1420   14.7450  122.0550 C.3       1 UD1402      0.0000 
      3 C3'        49.2040   15.2160  120.6000 C.3       1 UD1402      0.0000 
      4 C4'        48.3550   14.3280  119.6410 C.3       1 UD1402      0.0000 
      5 C5'        47.0980   13.6660  120.2530 C.3       1 UD1402      0.0000 
      6 C6'        46.5650   12.5490  119.3460 C.3       1 UD1402      0.0000 
      7 C7'        50.2450   15.5790  124.0860 C.2       1 UD1402      0.0000 
      8 C8'        50.4160   16.7740  124.9740 C.3       1 UD1402      0.0000 
      9 N2'        49.5670   15.8080  122.9630 N.am      1 UD1402      0.0000 
     10 O1'        46.8060   15.3900  122.2980 O.3       1 UD1402      0.0000 
     11 O3'        50.6160   15.2910  120.2670 O.3       1 UD1402      0.0000 
     12 O4'        47.8360   15.0860  118.5420 O.3       1 UD1402      0.0000 
     13 O5'        47.3710   13.2000  121.5800 O.3       1 UD1402      0.0000 
     14 O6'        45.2970   11.9940  119.7420 O.3       1 UD1402      0.0000 
     15 O7'        50.6850   14.4800  124.4130 O.2       1 UD1402      0.0000 
     16 N1         41.8610   17.9340  128.6220 N.am      1 UD1402      0.0000 
     17 C2         40.9910   18.4850  129.6290 C.2       1 UD1402      0.0000 
     18 N3         41.4820   19.3900  130.5130 N.am      1 UD1402      0.0000 
     19 C4         42.7710   19.8040  130.4860 C.2       1 UD1402      0.0000 
     20 C5         43.6420   19.2930  129.5250 C.2       1 UD1402      0.0000 
     21 C6         43.1540   18.3590  128.6010 C.2       1 UD1402      0.0000 
     22 O2         39.7780   18.1640  129.7200 O.2       1 UD1402      0.0000 
     23 O4         43.1890   20.6370  131.3190 O.2       1 UD1402      0.0000 
     24 C1B        41.3450   16.9750  127.6070 C.3       1 UD1402      0.0000 
     25 C2B        41.6920   17.3410  126.1560 C.3       1 UD1402      0.0000 
     26 O2'        40.8660   18.3380  125.5510 O.3       1 UD1402      0.0000 
     27 C3B        41.4880   16.0190  125.4900 C.3       1 UD1402      0.0000 
     28 C4B        41.9530   14.9980  126.5040 C.3       1 UD1402      0.0000 
     29 O4B        41.8400   15.6500  127.7690 O.3       1 UD1402      0.0000 
     30 O3B        40.0970   15.8780  125.2740 O.3       1 UD1402      0.0000 
     31 C5B        43.3980   14.5590  126.2910 C.3       1 UD1402      0.0000 
     32 O5B        44.3070   15.6610  126.5260 O.3       1 UD1402      0.0000 
     33 PA         45.9070   15.5970  126.2330 P.3       1 UD1402      0.0000 
     34 O1A        46.4430   16.9970  126.3250 O.co2     1 UD1402      0.0000 
     35 O2A        46.4790   14.4290  127.0030 O.co2     1 UD1402      0.0000 
     36 O3A        46.0590   15.0610  124.7100 O.3       1 UD1402      0.0000 
     37 PB         45.5770   15.7020  123.3000 P.3       1 UD1402      0.0000 
     38 O1B        45.4990   17.2030  123.4090 O.co2     1 UD1402      0.0000 
     39 O2B        44.3960   14.8700  122.8760 O.co2     1 UD1402      0.0000 
@<TRIPOS>BOND
     1    1    2 1    
     2    1   10 1    
     3    1   13 1    
     4    2    3 1    
     5    2    9 1    
     6    3    4 1    
     7    3   11 1    
     8    4    5 1    
     9    4   12 1    
    10    5    6 1    
    11    5   13 1    
    12    6   14 1    
    13    7    8 1    
    14    7    9 am   
    15    7   15 2    
    16   10   37 1    
    17   16   17 1    
    18   16   21 1    
    19   16   24 1    
    20   17   18 1    
    21   17   22 2    
    22   18   19 1    
    23   19   20 1    
    24   19   23 2    
    25   20   21 2    
    26   24   25 1    
    27   24   29 1    
    28   25   26 1    
    29   25   27 1    
    30   27   28 1    
    31   27   30 1    
    32   28   29 1    
    33   28   31 1    
    34   31   32 1    
    35   32   33 1    
    36   33   34 ar   
    37   33   35 ar   
    38   33   36 1    
    39   36   37 1    
    40   37   38 ar   
    41   37   39 ar   
@<TRIPOS>SUBSTRUCTURE
     1 UD1402      1 GROUP   
@<TRIPOS>SET

