#    Name: 6bwc_4_UD1
#    Modification time : Fri May 22 19:28:15 2020

@<TRIPOS>MOLECULE
6bwc_4_UD1
   39    41     1     0     0
SMALL
NO_CHARGES


@<TRIPOS>ATOM
      1 C1'       100.8340   38.7520  123.9500 C.3       1 UD1401      0.0000 
      2 C2'        99.8670   38.4260  122.7990 C.3       1 UD1401      0.0000 
      3 C3'        98.6190   37.7260  123.3580 C.3       1 UD1401      0.0000 
      4 C4'        98.9850   36.5730  124.3000 C.3       1 UD1401      0.0000 
      5 C5'       100.1170   36.9140  125.2930 C.3       1 UD1401      0.0000 
      6 C6'       100.5960   35.6830  126.0470 C.3       1 UD1401      0.0000 
      7 C7'       100.0860   40.1270  120.9390 C.2       1 UD1401      0.0000 
      8 C8'        99.6850   41.5230  120.5470 C.3       1 UD1401      0.0000 
      9 N2'        99.5060   39.6430  122.0660 N.am      1 UD1401      0.0000 
     10 O1'       100.1730   39.6150  124.8880 O.3       1 UD1401      0.0000 
     11 O3'        97.7700   37.2600  122.3030 O.3       1 UD1401      0.0000 
     12 O4'        97.8510   36.2210  125.0680 O.3       1 UD1401      0.0000 
     13 O5'       101.2190   37.5440  124.6240 O.3       1 UD1401      0.0000 
     14 O6'       101.5620   36.0760  127.0190 O.3       1 UD1401      0.0000 
     15 O7'       100.9270   39.5530  120.2600 O.2       1 UD1401      0.0000 
     16 N1        102.6720   47.3160  127.3870 N.am      1 UD1401      0.0000 
     17 C2        103.1770   48.6050  127.6890 C.2       1 UD1401      0.0000 
     18 N3        102.8880   49.6540  126.9070 N.am      1 UD1401      0.0000 
     19 C4        102.1140   49.4980  125.8090 C.2       1 UD1401      0.0000 
     20 C5        101.6120   48.2470  125.4770 C.2       1 UD1401      0.0000 
     21 C6        101.9150   47.1510  126.2750 C.2       1 UD1401      0.0000 
     22 O2        103.8850   48.7720  128.6820 O.2       1 UD1401      0.0000 
     23 O4        101.8370   50.4600  125.0610 O.2       1 UD1401      0.0000 
     24 C1B       102.9930   46.1710  128.2570 C.3       1 UD1401      0.0000 
     25 C2B       101.8200   45.2940  128.7210 C.3       1 UD1401      0.0000 
     26 O2'       101.2270   45.7520  129.9360 O.3       1 UD1401      0.0000 
     27 C3B       102.4570   43.9100  128.8540 C.3       1 UD1401      0.0000 
     28 C4B       103.6610   43.9660  127.9390 C.3       1 UD1401      0.0000 
     29 O4B       103.8670   45.3160  127.5280 O.3       1 UD1401      0.0000 
     30 O3B       102.9100   43.6150  130.1740 O.3       1 UD1401      0.0000 
     31 C5B       103.4720   43.1950  126.6650 C.3       1 UD1401      0.0000 
     32 O5B       102.4500   43.7410  125.8140 O.3       1 UD1401      0.0000 
     33 PA        102.3240   43.1020  124.3270 P.3       1 UD1401      0.0000 
     34 O1A       101.8550   44.1930  123.3820 O.co2     1 UD1401      0.0000 
     35 O2A       103.6180   42.3620  123.9430 O.co2     1 UD1401      0.0000 
     36 O3A       101.2690   41.8670  124.4160 O.3       1 UD1401      0.0000 
     37 PB        100.7590   40.9280  125.6580 P.3       1 UD1401      0.0000 
     38 O1B        99.5120   41.5760  126.2280 O.co2     1 UD1401      0.0000 
     39 O2B       101.7830   40.4270  126.6450 O.co2     1 UD1401      0.0000 
@<TRIPOS>BOND
     1    1    2 1    
     2    1   10 1    
     3    1   13 1    
     4    2    3 1    
     5    2    9 1    
     6    3    4 1    
     7    3   11 1    
     8    4    5 1    
     9    4   12 1    
    10    5    6 1    
    11    5   13 1    
    12    6   14 1    
    13    7    8 1    
    14    7    9 am   
    15    7   15 2    
    16   10   37 1    
    17   16   17 1    
    18   16   21 1    
    19   16   24 1    
    20   17   18 1    
    21   17   22 2    
    22   18   19 1    
    23   19   20 1    
    24   19   23 2    
    25   20   21 2    
    26   24   25 1    
    27   24   29 1    
    28   25   26 1    
    29   25   27 1    
    30   27   28 1    
    31   27   30 1    
    32   28   29 1    
    33   28   31 1    
    34   31   32 1    
    35   32   33 1    
    36   33   34 ar   
    37   33   35 ar   
    38   33   36 1    
    39   36   37 1    
    40   37   38 ar   
    41   37   39 ar   
@<TRIPOS>SUBSTRUCTURE
     1 UD1401      1 GROUP   
@<TRIPOS>SET

