#    Name: 5mxb_2_ML1
#    Modification time : Fri May 22 19:12:15 2020

@<TRIPOS>MOLECULE
5mxb_2_ML1
   17    18     1     0     0
SMALL
NO_CHARGES


@<TRIPOS>ATOM
      1 C1         24.9020  -17.9820    2.1390 C.3       1 ML1222      0.0000 
      2 C2         24.4350  -18.4020    5.8740 C.2       1 ML1222      0.0000 
      3 C3         19.3600  -20.5000    1.7030 C.3       1 ML1222      0.0000 
      4 C4         26.3160  -17.5950    0.1620 C.2       1 ML1222      0.0000 
      5 C5         27.2560  -16.6840   -0.6040 C.3       1 ML1222      0.0000 
      6 C6         24.8180  -17.3610    3.5170 C.3       1 ML1222      0.0000 
      7 C8         22.7740  -18.7080    4.4290 C.ar      1 ML1222      0.0000 
      8 C9         21.9070  -18.7560    3.3190 C.ar      1 ML1222      0.0000 
      9 C12        21.1130  -19.9340    5.7590 C.ar      1 ML1222      0.0000 
     10 C13        22.3600  -19.2960    5.6420 C.ar      1 ML1222      0.0000 
     11 C7         24.0850  -18.1350    4.5720 C.2       1 ML1222      0.0000 
     12 C10        20.7010  -19.3800    3.4190 C.ar      1 ML1222      0.0000 
     13 C11        20.2890  -19.9420    4.6440 C.ar      1 ML1222      0.0000 
     14 N1         25.6060  -17.1090    1.1880 N.am      1 ML1222      0.0000 
     15 N2         23.4000  -19.0900    6.5320 N.pl3     1 ML1222      0.0000 
     16 O1         19.8140  -19.3640    2.3120 O.3       1 ML1222      0.0000 
     17 O2         26.2660  -18.8090   -0.0820 O.2       1 ML1222      0.0000 
@<TRIPOS>BOND
     1    1    6 1    
     2    1   14 1    
     3    2   11 2    
     4    2   15 1    
     5    3   16 1    
     6    4    5 1    
     7    4   14 am   
     8    4   17 2    
     9    6   11 1    
    10    7    8 ar   
    11    7   10 ar   
    12    7   11 1    
    13    8   12 ar   
    14    9   10 ar   
    15    9   13 ar   
    16   10   15 1    
    17   12   13 ar   
    18   12   16 1    
@<TRIPOS>SUBSTRUCTURE
     1 ML1222      1 GROUP   
@<TRIPOS>SET

