#    Name: 5mxb_1_ML1
#    Modification time : Fri May 22 19:12:12 2020

@<TRIPOS>MOLECULE
5mxb_1_ML1
   17    18     1     0     0
SMALL
NO_CHARGES


@<TRIPOS>ATOM
      1 C1         26.9590  -12.3100   -0.0920 C.3       1 ML1220      0.0000 
      2 C2         26.8830  -10.5700   -3.0280 C.2       1 ML1220      0.0000 
      3 C3         24.6000  -16.5400   -3.4190 C.3       1 ML1220      0.0000 
      4 C4         26.3060  -13.3290    1.9940 C.2       1 ML1220      0.0000 
      5 C5         25.7340  -13.1660    3.3620 C.3       1 ML1220      0.0000 
      6 C6         25.9460  -11.6930   -0.9470 C.3       1 ML1220      0.0000 
      7 C8         26.1460  -12.6320   -3.3930 C.ar      1 ML1220      0.0000 
      8 C9         25.5160  -13.9100   -3.3510 C.ar      1 ML1220      0.0000 
      9 C12        26.5100  -12.7440   -5.7960 C.ar      1 ML1220      0.0000 
     10 C13        26.5680  -12.0860   -4.6060 C.ar      1 ML1220      0.0000 
     11 C7         26.3230  -11.6520   -2.4050 C.2       1 ML1220      0.0000 
     12 C10        25.4660  -14.5640   -4.5310 C.ar      1 ML1220      0.0000 
     13 C11        25.9240  -13.9710   -5.7270 C.ar      1 ML1220      0.0000 
     14 N1         26.3950  -12.2550    1.2630 N.am      1 ML1220      0.0000 
     15 N2         26.9850  -10.8620   -4.3340 N.pl3     1 ML1220      0.0000 
     16 O1         24.8660  -15.8020   -4.6150 O.3       1 ML1220      0.0000 
     17 O2         26.7150  -14.3860    1.5310 O.2       1 ML1220      0.0000 
@<TRIPOS>BOND
     1    1    6 1    
     2    1   14 1    
     3    2   11 2    
     4    2   15 1    
     5    3   16 1    
     6    4    5 1    
     7    4   14 am   
     8    4   17 2    
     9    6   11 1    
    10    7    8 ar   
    11    7   10 ar   
    12    7   11 1    
    13    8   12 ar   
    14    9   10 ar   
    15    9   13 ar   
    16   10   15 1    
    17   12   13 ar   
    18   12   16 1    
@<TRIPOS>SUBSTRUCTURE
     1 ML1220      1 GROUP   
@<TRIPOS>SET

