#    Name: 5mxb_2_ML1_CAVITY_N1_4
#    Modification time : Fri May 22 19:12:16 2020

@<TRIPOS>MOLECULE
5mxb_2_ML1_CAVITY_N1_4
   55     0     5     0     0
SMALL
NO_CHARGES


@<TRIPOS>ATOM
      1 OG         20.5300  -19.8100    3.6400 O.3       1 SER1        0.0000 
      2 OG         26.0800  -18.0300    1.5500 O.3       1 SER1        0.0000 
      3 OG         26.6200  -17.3900    0.3100 O.3       1 SER1        0.0000 
      4 OG         27.1600  -16.7500   -0.9300 O.3       1 SER1        0.0000 
      5 OG         28.0000  -15.8300   -0.1000 O.3       1 SER1        0.0000 
      6 OG         25.7800  -16.1100    2.4100 O.3       1 SER1        0.0000 
      7 OG         26.3300  -15.4700    1.1700 O.3       1 SER1        0.0000 
      8 OG         26.8700  -14.8300   -0.0800 O.3       1 SER1        0.0000 
      9 OG         26.6100  -15.1800    3.2500 O.3       1 SER1        0.0000 
     10 OG         26.0300  -13.5500    2.0200 O.3       1 SER1        0.0000 
     11 OD1        23.6100  -20.8700    4.4400 O.co2     2 ASP3        0.0000 
     12 OD1        24.1600  -20.2300    3.2000 O.co2     2 ASP3        0.0000 
     13 CZ         23.5800  -18.6000    1.9700 C.ar      3 PHE5        0.0000 
     14 CZ         24.1200  -17.9600    0.7300 C.ar      3 PHE5        0.0000 
     15 CZ         24.6700  -17.3200   -0.5100 C.ar      3 PHE5        0.0000 
     16 CZ         25.2100  -16.6800   -1.7600 C.ar      3 PHE5        0.0000 
     17 CZ         21.9100  -18.2500    3.2300 C.ar      3 PHE5        0.0000 
     18 CZ         24.6300  -15.0500   -2.9800 C.ar      3 PHE5        0.0000 
     19 CZ         24.4100  -17.6700    2.8100 C.ar      3 PHE5        0.0000 
     20 CZ         24.9500  -17.0400    1.5700 C.ar      3 PHE5        0.0000 
     21 CZ         25.5000  -16.4000    0.3300 C.ar      3 PHE5        0.0000 
     22 CZ         24.9200  -14.7700   -0.9000 C.ar      3 PHE5        0.0000 
     23 CZ         25.4600  -14.1300   -2.1400 C.ar      3 PHE5        0.0000 
     24 CZ         24.1100  -15.7600    3.6700 C.ar      3 PHE5        0.0000 
     25 CZ         24.6600  -15.1200    2.4300 C.ar      3 PHE5        0.0000 
     26 CZ         25.2000  -14.4800    1.1800 C.ar      3 PHE5        0.0000 
     27 CZ         25.7500  -13.8400   -0.0600 C.ar      3 PHE5        0.0000 
     28 CZ         26.0700  -15.8200    4.4900 C.ar      3 PHE5        0.0000 
     29 CZ         27.7000  -13.9100    0.7600 C.ar      3 PHE5        0.0000 
     30 CZ         28.2500  -13.2700   -0.4800 C.ar      3 PHE5        0.0000 
     31 CA         21.6600  -20.8000    3.6200 C.3       4 GLY6        0.0000 
     32 CA         22.2000  -20.1600    2.3800 C.3       4 GLY6        0.0000 
     33 CA         21.0800  -19.1700    2.3900 C.3       4 GLY6        0.0000 
     34 CA         25.7900  -18.3200   -0.5300 C.3       4 GLY6        0.0000 
     35 CA         21.9400  -20.5200    5.7000 C.3       4 GLY6        0.0000 
     36 CA         22.4900  -19.8800    4.4600 C.3       4 GLY6        0.0000 
     37 CA         23.0300  -19.2400    3.2200 C.3       4 GLY6        0.0000 
     38 CA         25.7600  -16.0400   -3.0000 C.3       4 GLY6        0.0000 
     39 CA         26.3000  -15.4100   -4.2400 C.3       4 GLY6        0.0000 
     40 CA         21.3600  -18.8800    4.4800 C.3       4 GLY6        0.0000 
     41 CA         27.7100  -16.1100   -2.1800 C.3       4 GLY6        0.0000 
     42 CA         26.5900  -15.1200   -2.1600 C.3       4 GLY6        0.0000 
     43 CA         27.1300  -14.4800   -3.4000 C.3       4 GLY6        0.0000 
     44 CA         22.1900  -17.9600    5.3200 C.3       4 GLY6        0.0000 
     45 CA         22.7400  -17.3200    4.0700 C.3       4 GLY6        0.0000 
     46 CA         28.5400  -15.1900   -1.3400 C.3       4 GLY6        0.0000 
     47 CA         24.6900  -17.3900    4.8900 C.3       4 GLY6        0.0000 
     48 CA         27.4200  -14.1900   -1.3200 C.3       4 GLY6        0.0000 
     49 CA         25.4900  -14.1900    3.2600 C.3       4 GLY6        0.0000 
     50 DU         24.9900  -19.3100    4.0400 H         5 CUB7        0.0000 
     51 DU         25.5300  -18.6700    2.7900 H         5 CUB7        0.0000 
     52 DU         23.8600  -18.3100    4.0600 H         5 CUB7        0.0000 
     53 DU         26.0400  -15.7600   -0.9200 H         5 CUB7        0.0000 
     54 DU         25.2400  -16.7500    3.6500 H         5 CUB7        0.0000 
     55 DU         26.2900  -13.2000   -1.3000 H         5 CUB7        0.0000 
@<TRIPOS>BOND
@<TRIPOS>SUBSTRUCTURE
     1 SER1        1 GROUP   
     2 ASP3       11 GROUP   
     3 PHE5       13 GROUP   
     4 GLY6       31 GROUP   
     5 CUB7       50 GROUP   
@<TRIPOS>SET

