#    Name: 6ujx_1_1RY
#    Modification time : Fri May 22 19:25:05 2020

@<TRIPOS>MOLECULE
6ujx_1_1RY
   28    29     1     0     0
SMALL
NO_CHARGES


@<TRIPOS>ATOM
      1 OAC         4.0260  -35.0400    2.3610           1 1RY604      0.0000 
      2 PAZ         2.7470  -35.4060    1.6420           1 1RY604      0.0000 
      3 OAF         2.3900  -34.5970    0.4220           1 1RY604      0.0000 
      4 OAG         1.6430  -35.4670    2.6700           1 1RY604      0.0000 
      5 OAQ         3.0120  -36.8950    1.0910           1 1RY604      0.0000 
      6 PBB         1.9600  -38.0720    1.2950           1 1RY604      0.0000 
      7 OAI         2.4370  -39.2730    0.5220           1 1RY604      0.0000 
      8 OAE         1.5870  -38.2440    2.7170           1 1RY604      0.0000 
      9 OAR         0.6780  -37.6670    0.4000           1 1RY604      0.0000 
     10 PBA        -0.8450  -37.3330    0.8890           1 1RY604      0.0000 
     11 OAH        -0.8230  -36.3600    2.1000           1 1RY604      0.0000 
     12 OAD        -1.5530  -36.9670   -0.4040           1 1RY604      0.0000 
     13 OAO        -1.2750  -38.8780    1.1560           1 1RY604      0.0000 
     14 CAL        -0.4790  -39.8960    1.7740           1 1RY604      0.0000 
     15 CAW        -1.2440  -41.2170    1.6780           1 1RY604      0.0000 
     16 OAP        -1.0230  -41.6510    0.3430           1 1RY604      0.0000 
     17 SAS        -3.0110  -41.0240    1.8690           1 1RY604      0.0000 
     18 CAM        -3.1420  -42.4710    0.9230           1 1RY604      0.0000 
     19 CAX        -1.9720  -42.5510   -0.0410           1 1RY604      0.0000 
     20 NAY        -2.4440  -42.1910   -1.3250           1 1RY604      0.0000 
     21 CAK        -2.8010  -40.9450   -1.5640           1 1RY604      0.0000 
     22 CAU        -3.2710  -40.6330   -2.8170           1 1RY604      0.0000 
     23 FAJ        -3.6640  -39.3870   -3.1390           1 1RY604      0.0000 
     24 CAV        -2.5280  -43.1190   -2.2840           1 1RY604      0.0000 
     25 OAB        -2.1750  -44.3620   -2.0790           1 1RY604      0.0000 
     26 NAN        -2.9640  -42.8790   -3.4870           1 1RY604      0.0000 
     27 CAT        -3.3410  -41.6260   -3.7760           1 1RY604      0.0000 
     28 NAA        -3.8000  -41.2890   -5.0030           1 1RY604      0.0000 
@<TRIPOS>BOND
     1    1    2 du   
     2    2    3 du   
     3    2    4 du   
     4    2    5 du   
     5    5    6 du   
     6    6    7 du   
     7    6    8 du   
     8    6    9 du   
     9    9   10 du   
    10   10   11 du   
    11   10   12 du   
    12   10   13 du   
    13   13   14 du   
    14   14   15 du   
    15   15   16 du   
    16   15   17 du   
    17   16   19 du   
    18   17   18 du   
    19   18   19 du   
    20   19   20 du   
    21   20   21 du   
    22   20   24 du   
    23   21   22 du   
    24   22   23 du   
    25   22   27 du   
    26   24   25 du   
    27   24   26 du   
    28   26   27 du   
    29   27   28 du   
@<TRIPOS>SUBSTRUCTURE
     1 1RY604      1 GROUP   
@<TRIPOS>SET

