#    Name: 6ujx_1_1RY_CAVITY_N1_6
#    Modification time : Fri May 22 19:25:07 2020

@<TRIPOS>MOLECULE
6ujx_1_1RY_CAVITY_N1_6
  111     0     6     0     0
SMALL
NO_CHARGES


@<TRIPOS>ATOM
      1 N          -2.3700  -41.8600   -0.6800 N.am      1 ALA2        0.0000 
      2 O          -1.7600  -35.0800   -4.1800 O.2       1 ALA2        0.0000 
      3 O           2.2800  -42.0300    1.0700 O.2       1 ALA2        0.0000 
      4 O           2.1600  -40.7900    0.2400 O.2       1 ALA2        0.0000 
      5 O           1.4200  -41.4000    2.1300 O.2       1 ALA2        0.0000 
      6 O           0.5600  -32.7100   -3.6900 O.2       1 ALA2        0.0000 
      7 O           4.2400  -40.8500   -0.1600 O.2       1 ALA2        0.0000 
      8 O           2.5200  -39.6000    1.9600 O.2       1 ALA2        0.0000 
      9 O           1.6600  -38.9700    3.0200 O.2       1 ALA2        0.0000 
     10 O           4.7200  -35.9900    1.6200 O.2       1 ALA2        0.0000 
     11 O           3.8600  -35.3600    2.6800 O.2       1 ALA2        0.0000 
     12 OD1        -2.4900  -40.6100   -1.5100 O.co2     2 ASP3        0.0000 
     13 OD1        -1.1400  -41.2900   -0.0200 O.co2     2 ASP3        0.0000 
     14 OD1        -1.6400  -36.3200   -3.3500 O.co2     2 ASP3        0.0000 
     15 OD1        -2.1300  -39.4300    0.2100 O.co2     2 ASP3        0.0000 
     16 OD1        -2.2500  -38.1800   -0.6200 O.co2     2 ASP3        0.0000 
     17 OD1         0.0800  -40.7300    0.6400 O.co2     2 ASP3        0.0000 
     18 OD1        -0.4200  -35.7600   -2.6900 O.co2     2 ASP3        0.0000 
     19 OD1        -0.9100  -38.8600    0.8700 O.co2     2 ASP3        0.0000 
     20 OD1        -1.0300  -37.6200    0.0400 O.co2     2 ASP3        0.0000 
     21 OD1        -1.1500  -36.3800   -0.8000 O.co2     2 ASP3        0.0000 
     22 OD1        -2.0100  -35.7500    0.2600 O.co2     2 ASP3        0.0000 
     23 OD1        -2.1400  -34.5100   -0.5700 O.co2     2 ASP3        0.0000 
     24 OD1         2.0400  -39.5400   -0.5900 O.co2     2 ASP3        0.0000 
     25 OD1         1.9100  -38.3000   -1.4200 O.co2     2 ASP3        0.0000 
     26 OD1         1.1800  -38.9200    0.4700 O.co2     2 ASP3        0.0000 
     27 OD1         1.0500  -37.6800   -0.3600 O.co2     2 ASP3        0.0000 
     28 OD1         0.9300  -36.4400   -1.1900 O.co2     2 ASP3        0.0000 
     29 OD1         0.3200  -38.3000    1.5300 O.co2     2 ASP3        0.0000 
     30 OD1         0.1900  -37.0600    0.7000 O.co2     2 ASP3        0.0000 
     31 OD1         0.0700  -35.8100   -0.1300 O.co2     2 ASP3        0.0000 
     32 OD1        -0.0500  -34.5700   -0.9700 O.co2     2 ASP3        0.0000 
     33 OD1        -0.1800  -33.3300   -1.8000 O.co2     2 ASP3        0.0000 
     34 OD1        -0.7900  -35.1900    0.9200 O.co2     2 ASP3        0.0000 
     35 OD1         2.2800  -37.1100    0.3000 O.co2     2 ASP3        0.0000 
     36 OD1         2.1500  -35.8700   -0.5300 O.co2     2 ASP3        0.0000 
     37 OD1         2.0300  -34.6300   -1.3600 O.co2     2 ASP3        0.0000 
     38 OD1         1.2900  -35.2500    0.5300 O.co2     2 ASP3        0.0000 
     39 OD1         1.1700  -34.0100   -0.3100 O.co2     2 ASP3        0.0000 
     40 OD1         3.5000  -36.5500    0.9600 O.co2     2 ASP3        0.0000 
     41 OD1         3.3700  -35.3100    0.1300 O.co2     2 ASP3        0.0000 
     42 OD1         3.2500  -34.0700   -0.7000 O.co2     2 ASP3        0.0000 
     43 OD1         2.6400  -35.9300    2.0200 O.co2     2 ASP3        0.0000 
     44 OD1         2.5100  -34.6800    1.1900 O.co2     2 ASP3        0.0000 
     45 OD1         5.4600  -35.3700   -0.2700 O.co2     2 ASP3        0.0000 
     46 OD1         5.3300  -34.1200   -1.1000 O.co2     2 ASP3        0.0000 
     47 OD1         5.0900  -31.6400   -2.7700 O.co2     2 ASP3        0.0000 
     48 OD1         4.6000  -34.7400    0.7900 O.co2     2 ASP3        0.0000 
     49 OD1         4.4700  -33.5000   -0.0400 O.co2     2 ASP3        0.0000 
     50 OD1         4.3500  -32.2600   -0.8700 O.co2     2 ASP3        0.0000 
     51 OD1         2.8800  -33.5000    2.9100 O.co2     2 ASP3        0.0000 
     52 OD1         6.3100  -31.0800   -2.1000 O.co2     2 ASP3        0.0000 
     53 OD1         5.5700  -31.6900   -0.2100 O.co2     2 ASP3        0.0000 
     54 OD1         4.7100  -31.0700    0.8500 O.co2     2 ASP3        0.0000 
     55 NZ         -0.7800  -40.1000    1.7000 N.4       3 LYS4        0.0000 
     56 NZ         -1.8900  -37.0000    1.1000 N.4       3 LYS4        0.0000 
     57 NZ          0.4400  -39.5400    2.3600 N.4       3 LYS4        0.0000 
     58 NZ         -0.3000  -32.0900   -2.6300 N.4       3 LYS4        0.0000 
     59 NZ          3.3800  -40.2200    0.9000 N.4       3 LYS4        0.0000 
     60 NZ          3.2600  -38.9800    0.0700 N.4       3 LYS4        0.0000 
     61 NZ          1.7800  -32.1500   -3.0300 N.4       3 LYS4        0.0000 
     62 NZ          3.0000  -31.5800   -2.3700 N.4       3 LYS4        0.0000 
     63 NZ          6.6800  -34.8000    0.3900 N.4       3 LYS4        0.0000 
     64 NZ          5.9400  -35.4200    2.2800 N.4       3 LYS4        0.0000 
     65 NZ          7.1700  -34.8600    2.9400 N.4       3 LYS4        0.0000 
     66 CZ         -2.2400  -43.1000    0.1500 C.ar      4 PHE5        0.0000 
     67 CZ         -3.1000  -42.4700    1.2100 C.ar      4 PHE5        0.0000 
     68 CZ         -1.0200  -42.5300    0.8100 C.ar      4 PHE5        0.0000 
     69 CZ         -1.8800  -41.9100    1.8700 C.ar      4 PHE5        0.0000 
     70 CZ         -2.7400  -41.2900    2.9300 C.ar      4 PHE5        0.0000 
     71 CZ          0.2000  -41.9700    1.4700 C.ar      4 PHE5        0.0000 
     72 CZ         -0.6600  -41.3500    2.5300 C.ar      4 PHE5        0.0000 
     73 CA         -2.9900  -35.6500   -4.8400 C.3       5 GLY6        0.0000 
     74 CA         -3.2300  -41.2300    0.3800 C.3       5 GLY6        0.0000 
     75 CA         -2.0000  -40.6700    1.0400 C.3       5 GLY6        0.0000 
     76 CA         -2.6200  -34.4600   -3.1200 C.3       5 GLY6        0.0000 
     77 CA         -2.8600  -40.0400    2.1000 C.3       5 GLY6        0.0000 
     78 CA         -0.5400  -34.5200   -3.5200 C.3       5 GLY6        0.0000 
     79 CA         -1.5200  -32.6500   -3.2900 C.3       5 GLY6        0.0000 
     80 CA          0.8100  -35.1900   -2.0300 C.3       5 GLY6        0.0000 
     81 CA          0.6800  -33.9500   -2.8600 C.3       5 GLY6        0.0000 
     82 CA          0.5600  -40.7800    3.1900 C.3       5 GLY6        0.0000 
     83 CA          2.6400  -32.7700   -4.0900 C.3       5 GLY6        0.0000 
     84 CA          2.4000  -38.3600    1.1300 C.3       5 GLY6        0.0000 
     85 CA          1.9000  -33.3900   -2.2000 C.3       5 GLY6        0.0000 
     86 CA          1.0400  -32.7600   -1.1400 C.3       5 GLY6        0.0000 
     87 CA          3.9900  -33.4500   -2.5900 C.3       5 GLY6        0.0000 
     88 CA          3.8600  -32.2000   -3.4300 C.3       5 GLY6        0.0000 
     89 CA          3.6200  -37.7900    1.7900 C.3       5 GLY6        0.0000 
     90 CA          3.1300  -32.8200   -1.5400 C.3       5 GLY6        0.0000 
     91 CA          2.3900  -33.4400    0.3600 C.3       5 GLY6        0.0000 
     92 CA          5.2100  -32.8800   -1.9300 C.3       5 GLY6        0.0000 
     93 CA          3.6100  -32.8800    1.0200 C.3       5 GLY6        0.0000 
     94 CA          3.4900  -31.6400    0.1800 C.3       5 GLY6        0.0000 
     95 CA          3.0000  -34.7400    3.7400 C.3       5 GLY6        0.0000 
     96 CA          5.0800  -34.8000    3.3400 C.3       5 GLY6        0.0000 
     97 CA          4.1000  -32.9300    3.5700 C.3       5 GLY6        0.0000 
     98 CA          6.4300  -35.4800    4.8300 C.3       5 GLY6        0.0000 
     99 CA          6.3100  -34.2300    4.0000 C.3       5 GLY6        0.0000 
    100 CA          6.1800  -32.9900    3.1700 C.3       5 GLY6        0.0000 
    101 CA          5.9300  -30.5100    1.5100 C.3       5 GLY6        0.0000 
    102 DU         -2.5000  -35.7000   -2.2900 H         6 CUB7        0.0000 
    103 DU         -1.2800  -35.1400   -1.6300 H         6 CUB7        0.0000 
    104 DU         -1.4000  -33.8900   -2.4600 H         6 CUB7        0.0000 
    105 DU          1.3000  -40.1600    1.3000 H         6 CUB7        0.0000 
    106 DU          3.7400  -34.1200    1.8500 H         6 CUB7        0.0000 
    107 DU          5.8200  -34.1800    1.4500 H         6 CUB7        0.0000 
    108 DU          5.7000  -32.9400    0.6200 H         6 CUB7        0.0000 
    109 DU          4.9600  -33.5600    2.5100 H         6 CUB7        0.0000 
    110 DU          4.8400  -32.3100    1.6800 H         6 CUB7        0.0000 
    111 DU          6.0600  -31.7500    2.3400 H         6 CUB7        0.0000 
@<TRIPOS>BOND
@<TRIPOS>SUBSTRUCTURE
     1 ALA2        1 GROUP   
     2 ASP3       12 GROUP   
     3 LYS4       55 GROUP   
     4 PHE5       66 GROUP   
     5 GLY6       73 GROUP   
     6 CUB7      102 GROUP   
@<TRIPOS>SET

