#    Name: 6l18_1_TMP
#    Modification time : Fri May 22 19:31:47 2020

@<TRIPOS>MOLECULE
6l18_1_TMP
   21    22     1     0     0
SMALL
NO_CHARGES


@<TRIPOS>ATOM
      1 P          -3.4570   14.8930   27.9720 P.3       1 TMP301      0.0000 
      2 O1P        -3.3750   13.9500   26.7650 O.co2     1 TMP301      0.0000 
      3 O2P        -3.0530   14.2850   29.2930 O.co2     1 TMP301      0.0000 
      4 O3P        -4.6390   15.8330   27.9390 O.co2     1 TMP301      0.0000 
      5 O5'        -2.1010   16.0450   27.5970 O.3       1 TMP301      0.0000 
      6 C5'        -0.7990   15.5780   27.8450 C.3       1 TMP301      0.0000 
      7 C4'         0.0800   16.3630   26.7330 C.3       1 TMP301      0.0000 
      8 O4'         1.5540   16.3130   26.9590 O.3       1 TMP301      0.0000 
      9 C3'        -0.1390   15.7530   25.3170 C.3       1 TMP301      0.0000 
     10 O3'        -0.0790   16.8430   24.3730 O.3       1 TMP301      0.0000 
     11 C2'         1.0760   14.7840   25.1740 C.3       1 TMP301      0.0000 
     12 C1'         2.1680   15.7200   25.8720 C.3       1 TMP301      0.0000 
     13 N1          3.2860   14.9150   26.4190 N.am      1 TMP301      0.0000 
     14 C2          4.0600   14.1230   25.4930 C.2       1 TMP301      0.0000 
     15 O2          3.8470   14.0790   24.2800 O.2       1 TMP301      0.0000 
     16 N3          5.1260   13.3870   26.0580 N.am      1 TMP301      0.0000 
     17 C4          5.4520   13.3710   27.4420 C.2       1 TMP301      0.0000 
     18 O4          6.4040   12.6490   27.8020 O.2       1 TMP301      0.0000 
     19 C5          4.6240   14.2180   28.3080 C.2       1 TMP301      0.0000 
     20 C5M         4.9430   14.2630   29.7760 C.3       1 TMP301      0.0000 
     21 C6          3.5940   14.9560   27.7870 C.2       1 TMP301      0.0000 
@<TRIPOS>BOND
     1    1    2 ar   
     2    1    3 ar   
     3    1    4 ar   
     4    1    5 1    
     5    5    6 1    
     6    6    7 1    
     7    7    8 1    
     8    7    9 1    
     9    8   12 1    
    10    9   10 1    
    11    9   11 1    
    12   11   12 1    
    13   12   13 1    
    14   13   14 1    
    15   13   21 1    
    16   14   15 2    
    17   14   16 1    
    18   16   17 1    
    19   17   18 2    
    20   17   19 1    
    21   19   20 1    
    22   19   21 2    
@<TRIPOS>SUBSTRUCTURE
     1 TMP301      1 GROUP   
@<TRIPOS>SET

