#    Name: 6e47_1_CHO
#    Modification time : Fri May 22 19:23:48 2020

@<TRIPOS>MOLECULE
6e47_1_CHO
   74    77     1     0     0
SMALL
NO_CHARGES


@<TRIPOS>ATOM
      1 C1         -7.0370    9.6430  -30.8380 C.3       1 CHO601      0.0000 
      2 C2         -5.7220    8.9390  -31.3050 C.3       1 CHO601      0.0000 
      3 C3         -4.6670    9.9550  -31.7740 C.3       1 CHO601      0.0000 
      4 O3         -3.5590    9.2670  -32.2890 O.3       1 CHO601      0.0000 
      5 C4         -5.2360   10.8580  -32.8650 C.3       1 CHO601      0.0000 
      6 C5         -6.5710   11.5500  -32.4170 C.3       1 CHO601      0.0000 
      7 C6         -7.0430   12.4110  -33.5400 C.3       1 CHO601      0.0000 
      8 C7         -7.6820   11.5810  -34.7390 C.3       1 CHO601      0.0000 
      9 O7         -6.6900   11.0130  -35.4800 O.3       1 CHO601      0.0000 
     10 C8         -8.6790   10.4550  -34.2470 C.3       1 CHO601      0.0000 
     11 C9         -8.2020    9.6360  -33.1900 C.3       1 CHO601      0.0000 
     12 C10        -7.6290   10.5330  -31.9360 C.3       1 CHO601      0.0000 
     13 C11        -9.1100    8.7600  -32.8750 C.3       1 CHO601      0.0000 
     14 C12        -9.6100    7.8840  -34.0830 C.3       1 CHO601      0.0000 
     15 C13        -9.9980    8.4750  -35.0840 C.3       1 CHO601      0.0000 
     16 C14        -9.1080    9.4890  -35.4560 C.3       1 CHO601      0.0000 
     17 C15        -9.6560   10.0670  -36.7360 C.3       1 CHO601      0.0000 
     18 C16       -10.3830    9.1300  -37.2040 C.3       1 CHO601      0.0000 
     19 C17       -10.2100    7.9340  -36.1700 C.3       1 CHO601      0.0000 
     20 C18       -11.3330    9.1950  -34.6380 C.3       1 CHO601      0.0000 
     21 C19        -8.7990   11.3390  -31.2820 C.3       1 CHO601      0.0000 
     22 C20       -11.4500    6.8110  -36.1990 C.3       1 CHO601      0.0000 
     23 C21       -10.9110    5.5780  -36.7130 C.3       1 CHO601      0.0000 
     24 C22       -12.6420    7.2180  -37.0800 C.3       1 CHO601      0.0000 
     25 C23       -13.9170    6.3800  -36.7460 C.3       1 CHO601      0.0000 
     26 C24       -14.2920    6.5270  -35.2300 C.2       1 CHO601      0.0000 
     27 O24       -13.8640    5.7420  -34.4530 O.2       1 CHO601      0.0000 
     28 N25       -15.1680    7.6260  -34.7350 N.am      1 CHO601      0.0000 
     29 C26       -15.7320    8.6450  -35.6480 C.3       1 CHO601      0.0000 
     30 C27       -16.9730    9.2930  -34.9900 C.2       1 CHO601      0.0000 
     31 OT1       -16.8410   10.0040  -33.9580 O.co2     1 CHO601      0.0000 
     32 OT2       -18.1200    9.1010  -35.4880 O.co2     1 CHO601      0.0000 
     33 H11        -7.6870    8.9650  -30.5960 H         1 CHO601      0.0000 
     34 H12        -6.8410   10.1910  -30.0620 H         1 CHO601      0.0000 
     35 H21        -5.9300    8.3390  -32.0380 H         1 CHO601      0.0000 
     36 H22        -5.3590    8.4280  -30.5650 H         1 CHO601      0.0000 
     37 H3         -4.3910   10.5000  -31.0200 H         1 CHO601      0.0000 
     38 HO3        -3.0190    9.0870  -31.6580 H         1 CHO601      0.0000 
     39 H41        -4.5830   11.5440  -33.0770 H         1 CHO601      0.0000 
     40 H42        -5.4080   10.3250  -33.6560 H         1 CHO601      0.0000 
     41 H5         -6.3630   12.1320  -31.6690 H         1 CHO601      0.0000 
     42 H61        -7.7110   13.0260  -33.2000 H         1 CHO601      0.0000 
     43 H62        -6.2900   12.9190  -33.8810 H         1 CHO601      0.0000 
     44 H7         -8.1750   12.1970  -35.3040 H         1 CHO601      0.0000 
     45 HO7        -6.2910   11.6140  -35.9290 H         1 CHO601      0.0000 
     46 H8         -9.4820   10.8980  -33.9310 H         1 CHO601      0.0000 
     47 H9         -7.4470    9.1400  -33.5420 H         1 CHO601      0.0000 
     48 H111       -9.8730    9.2280  -32.5000 H         1 CHO601      0.0000 
     49 H112       -8.7440    8.1680  -32.1990 H         1 CHO601      0.0000 
     50 H121       -8.8810    7.3010  -34.3480 H         1 CHO601      0.0000 
     51 H122      -10.3410    7.3310  -33.7650 H         1 CHO601      0.0000 
     52 H14        -8.2910    9.0340  -35.7120 H         1 CHO601      0.0000 
     53 H151       -8.9340   10.2770  -37.3490 H         1 CHO601      0.0000 
     54 H152      -10.1940   10.8530  -36.5520 H         1 CHO601      0.0000 
     55 H161      -10.0660    8.8660  -38.0820 H         1 CHO601      0.0000 
     56 H162      -11.3110    9.4100  -37.2430 H         1 CHO601      0.0000 
     57 H17        -9.3960    7.4660  -36.4150 H         1 CHO601      0.0000 
     58 H181      -12.0490    8.9580  -35.2480 H         1 CHO601      0.0000 
     59 H182      -11.5680    8.9150  -33.7390 H         1 CHO601      0.0000 
     60 H183      -11.2020   10.1560  -34.6520 H         1 CHO601      0.0000 
     61 H191       -8.4450   11.9200  -30.5910 H         1 CHO601      0.0000 
     62 H192       -9.4370   10.7230  -30.8910 H         1 CHO601      0.0000 
     63 H193       -9.2410   11.8750  -31.9600 H         1 CHO601      0.0000 
     64 H20       -11.7640    6.6640  -35.2920 H         1 CHO601      0.0000 
     65 H211      -10.5280    5.7350  -37.5900 H         1 CHO601      0.0000 
     66 H212      -11.6180    4.9180  -36.7820 H         1 CHO601      0.0000 
     67 H213      -10.2220    5.2520  -36.1130 H         1 CHO601      0.0000 
     68 H221      -12.4100    7.0810  -38.0120 H         1 CHO601      0.0000 
     69 H222      -12.8350    8.1580  -36.9370 H         1 CHO601      0.0000 
     70 H231      -13.7460    5.4460  -36.9440 H         1 CHO601      0.0000 
     71 H232      -14.6570    6.6930  -37.2900 H         1 CHO601      0.0000 
     72 HN        -15.3480    7.6720  -33.8950 H         1 CHO601      0.0000 
     73 H261      -15.9910    8.2240  -36.4830 H         1 CHO601      0.0000 
     74 H262      -15.0660    9.3280  -35.8240 H         1 CHO601      0.0000 
@<TRIPOS>BOND
     1    1   33 1    
     2    1    2 1    
     3    1   12 1    
     4    1   34 1    
     5    2    3 1    
     6    2   35 1    
     7    2   36 1    
     8    3    4 1    
     9    3    5 1    
    10    3   37 1    
    11    4   38 1    
    12    5    6 1    
    13    5   39 1    
    14    5   40 1    
    15    6    7 1    
    16    6   12 1    
    17    6   41 1    
    18    7    8 1    
    19    7   42 1    
    20    7   43 1    
    21    8    9 1    
    22    8   10 1    
    23    8   44 1    
    24    9   45 1    
    25   10   16 1    
    26   10   11 1    
    27   10   46 1    
    28   11   12 1    
    29   11   13 1    
    30   11   47 1    
    31   13   48 1    
    32   13   49 1    
    33   12   21 1    
    34   13   14 1    
    35   14   15 1    
    36   14   50 1    
    37   14   51 1    
    38   15   16 1    
    39   15   19 1    
    40   15   20 1    
    41   19   57 1    
    42   16   17 1    
    43   16   52 1    
    44   17   18 1    
    45   17   53 1    
    46   17   54 1    
    47   18   55 1    
    48   18   56 1    
    49   18   19 1    
    50   19   22 1    
    51   20   58 1    
    52   20   59 1    
    53   20   60 1    
    54   21   61 1    
    55   21   62 1    
    56   21   63 1    
    57   22   23 1    
    58   22   24 1    
    59   22   64 1    
    60   23   66 1    
    61   23   65 1    
    62   23   67 1    
    63   24   25 1    
    64   24   68 1    
    65   24   69 1    
    66   25   26 1    
    67   25   70 1    
    68   25   71 1    
    69   26   27 2    
    70   26   28 am   
    71   28   29 1    
    72   29   30 1    
    73   28   72 1    
    74   29   73 1    
    75   29   74 1    
    76   30   31 ar   
    77   30   32 ar   
@<TRIPOS>SUBSTRUCTURE
     1 CHO601      1 GROUP   
@<TRIPOS>SET

