#    Name: 6e47_2_CHO
#    Modification time : Fri May 22 19:23:54 2020

@<TRIPOS>MOLECULE
6e47_2_CHO
   74    77     1     0     0
SMALL
NO_CHARGES


@<TRIPOS>ATOM
      1 C1        -39.6240   14.5920  -29.2650 C.3       1 CHO602      0.0000 
      2 C2        -41.1080   14.5040  -28.7910 C.3       1 CHO602      0.0000 
      3 C3        -41.6660   15.8760  -28.3930 C.3       1 CHO602      0.0000 
      4 O3        -42.9720   15.7130  -27.9050 O.3       1 CHO602      0.0000 
      5 C4        -40.7970   16.5060  -27.3110 C.3       1 CHO602      0.0000 
      6 C5        -39.2790   16.5610  -27.7080 C.3       1 CHO602      0.0000 
      7 C6        -38.5450   17.1450  -26.5460 C.3       1 CHO602      0.0000 
      8 C7        -38.2750   16.0990  -25.3780 C.3       1 CHO602      0.0000 
      9 O7        -39.4260   15.8390  -24.6970 O.3       1 CHO602      0.0000 
     10 C8        -37.6740   14.7460  -25.9250 C.3       1 CHO602      0.0000 
     11 C9        -38.4010   14.1470  -26.9850 C.3       1 CHO602      0.0000 
     12 C10       -38.6990   15.2120  -28.2080 C.3       1 CHO602      0.0000 
     13 C11       -37.7940   13.0500  -27.3460 C.3       1 CHO602      0.0000 
     14 C12       -37.5140   12.0280  -26.1850 C.3       1 CHO602      0.0000 
     15 C13       -36.9380   12.4500  -25.1890 C.3       1 CHO602      0.0000 
     16 C14       -37.5040   13.6520  -24.7580 C.3       1 CHO602      0.0000 
     17 C15       -36.7870   14.0070  -23.4820 C.3       1 CHO602      0.0000 
     18 C16       -36.3540   12.8870  -23.0530 C.3       1 CHO602      0.0000 
     19 C17       -36.8390   11.8230  -24.1340 C.3       1 CHO602      0.0000 
     20 C18       -35.4700   12.7980  -25.6660 C.3       1 CHO602      0.0000 
     21 C19       -37.3600   15.5490  -28.9430 C.3       1 CHO602      0.0000 
     22 C20       -35.9160   10.4250  -24.2120 C.3       1 CHO602      0.0000 
     23 C21       -36.7300    9.3210  -23.7750 C.3       1 CHO602      0.0000 
     24 C22       -34.6470   10.4610  -23.3430 C.3       1 CHO602      0.0000 
     25 C23       -33.6010    9.3960  -23.8000 C.3       1 CHO602      0.0000 
     26 C24       -33.2260    9.5890  -25.3110 C.2       1 CHO602      0.0000 
     27 O24       -33.8200    8.9700  -26.1280 O.2       1 CHO602      0.0000 
     28 N25       -32.1530   10.5240  -25.7640 N.am      1 CHO602      0.0000 
     29 C26       -31.3570   11.3430  -24.8180 C.3       1 CHO602      0.0000 
     30 C27       -29.8780   11.3270  -25.2650 C.2       1 CHO602      0.0000 
     31 OT1       -29.0330   10.6870  -24.5880 O.co2     1 CHO602      0.0000 
     32 OT2       -29.5210   11.9490  -26.3090 O.co2     1 CHO602      0.0000 
     33 H11       -39.5860   15.1330  -30.0700 H         1 CHO602      0.0000 
     34 H12       -39.3090   13.6970  -29.4680 H         1 CHO602      0.0000 
     35 H21       -41.6470   14.1430  -29.5120 H         1 CHO602      0.0000 
     36 H22       -41.1580   13.9110  -28.0250 H         1 CHO602      0.0000 
     37 H3        -41.6780   16.4550  -29.1710 H         1 CHO602      0.0000 
     38 HO3       -43.5200   15.7290  -28.5540 H         1 CHO602      0.0000 
     39 H41       -40.8870   15.9860  -26.4970 H         1 CHO602      0.0000 
     40 H42       -41.1100   17.4090  -27.1470 H         1 CHO602      0.0000 
     41 H5        -39.2000   17.1920  -28.4410 H         1 CHO602      0.0000 
     42 H61       -39.0670   17.8800  -26.1870 H         1 CHO602      0.0000 
     43 H62       -37.6930   17.4870  -26.8580 H         1 CHO602      0.0000 
     44 H7        -37.6340   16.4890  -24.7640 H         1 CHO602      0.0000 
     45 HO7       -39.2630   15.8170  -23.8630 H         1 CHO602      0.0000 
     46 H8        -36.7870   14.9440  -26.2630 H         1 CHO602      0.0000 
     47 H9        -39.2630   13.8860  -26.6240 H         1 CHO602      0.0000 
     48 H111      -36.9450   13.2910  -27.7490 H         1 CHO602      0.0000 
     49 H112      -38.3400   12.6070  -28.0140 H         1 CHO602      0.0000 
     50 H121      -38.3670   11.6630  -25.9000 H         1 CHO602      0.0000 
     51 H122      -36.9810   11.3040  -26.5500 H         1 CHO602      0.0000 
     52 H14       -38.4090   13.4310  -24.4880 H         1 CHO602      0.0000 
     53 H151      -36.0490   14.6090  -23.6650 H         1 CHO602      0.0000 
     54 H152      -37.4030   14.3980  -22.8430 H         1 CHO602      0.0000 
     55 H161      -36.7420   12.6880  -22.1870 H         1 CHO602      0.0000 
     56 H162      -35.3860   12.8970  -23.0020 H         1 CHO602      0.0000 
     57 H17       -37.7370   11.5560  -23.8800 H         1 CHO602      0.0000 
     58 H181      -35.3500   13.7600  -25.6650 H         1 CHO602      0.0000 
     59 H182      -34.8290   12.3900  -25.0630 H         1 CHO602      0.0000 
     60 H183      -35.3330   12.4560  -26.5630 H         1 CHO602      0.0000 
     61 H191      -36.7090   15.8680  -28.2990 H         1 CHO602      0.0000 
     62 H192      -37.5200   16.2370  -29.6080 H         1 CHO602      0.0000 
     63 H193      -37.0200   14.7510  -29.3790 H         1 CHO602      0.0000 
     64 H20       -35.6570   10.2750  -25.1350 H         1 CHO602      0.0000 
     65 H211      -37.3830    9.1110  -24.4610 H         1 CHO602      0.0000 
     66 H212      -37.1880    9.5610  -22.9540 H         1 CHO602      0.0000 
     67 H213      -36.1670    8.5470  -23.6180 H         1 CHO602      0.0000 
     68 H221      -34.8910   10.2900  -22.4200 H         1 CHO602      0.0000 
     69 H222      -34.2480   11.3430  -23.4060 H         1 CHO602      0.0000 
     70 H231      -32.8010    9.4840  -23.2590 H         1 CHO602      0.0000 
     71 H232      -33.9740    8.5090  -23.6760 H         1 CHO602      0.0000 
     72 HN        -31.9900   10.5910  -26.6060 H         1 CHO602      0.0000 
     73 H261      -31.6870   12.2550  -24.8200 H         1 CHO602      0.0000 
     74 H262      -31.4310   10.9720  -23.9240 H         1 CHO602      0.0000 
@<TRIPOS>BOND
     1    1    2 1    
     2    1   12 1    
     3    1   33 1    
     4    1   34 1    
     5    2    3 1    
     6    2   35 1    
     7    2   36 1    
     8    3    4 1    
     9    3    5 1    
    10    3   37 1    
    11    4   38 1    
    12    5    6 1    
    13    5   39 1    
    14    5   40 1    
    15    6    7 1    
    16    6   12 1    
    17    6   41 1    
    18    7    8 1    
    19    7   42 1    
    20    7   43 1    
    21    8    9 1    
    22    8   10 1    
    23    8   44 1    
    24    9   45 1    
    25   10   11 1    
    26   10   16 1    
    27   10   46 1    
    28   11   12 1    
    29   11   13 1    
    30   11   47 1    
    31   13   48 1    
    32   13   49 1    
    33   12   21 1    
    34   13   14 1    
    35   14   15 1    
    36   14   50 1    
    37   14   51 1    
    38   15   16 1    
    39   15   19 1    
    40   15   20 1    
    41   19   57 1    
    42   16   17 1    
    43   16   52 1    
    44   17   18 1    
    45   17   53 1    
    46   17   54 1    
    47   18   55 1    
    48   18   56 1    
    49   18   19 1    
    50   19   22 1    
    51   20   58 1    
    52   20   59 1    
    53   20   60 1    
    54   21   61 1    
    55   21   62 1    
    56   21   63 1    
    57   22   23 1    
    58   22   24 1    
    59   22   64 1    
    60   23   66 1    
    61   23   65 1    
    62   23   67 1    
    63   24   25 1    
    64   24   68 1    
    65   24   69 1    
    66   25   26 1    
    67   25   70 1    
    68   25   71 1    
    69   26   27 2    
    70   26   28 am   
    71   28   29 1    
    72   29   30 1    
    73   28   72 1    
    74   29   73 1    
    75   29   74 1    
    76   30   31 ar   
    77   30   32 ar   
@<TRIPOS>SUBSTRUCTURE
     1 CHO602      1 GROUP   
@<TRIPOS>SET

