#    Name: 6cvl_1_AGS
#    Modification time : Fri May 22 19:30:37 2020

@<TRIPOS>MOLECULE
6cvl_1_AGS
   44    46     1     0     0
SMALL
NO_CHARGES


@<TRIPOS>ATOM
      1 PG          8.7040  -59.4390   47.3600 P.3       1 AGS403      0.0000 
      2 S1G         8.7500  -58.0650   45.8090 S.2       1 AGS403      0.0000 
      3 O2G         9.5280  -60.7430   46.9150 O.3       1 AGS403      0.0000 
      4 O3G         9.2870  -58.8740   48.5980 O.3       1 AGS403      0.0000 
      5 PB          6.0340  -59.6390   46.5370 P.3       1 AGS403      0.0000 
      6 O1B         4.7110  -60.0120   47.1400 O.co2     1 AGS403      0.0000 
      7 O2B         5.9850  -58.2020   46.0930 O.co2     1 AGS403      0.0000 
      8 O3B         7.1780  -59.8560   47.6480 O.3       1 AGS403      0.0000 
      9 PA          5.5810  -60.2540   43.8650 P.3       1 AGS403      0.0000 
     10 O1A         4.2730  -59.5440   44.1040 O.co2     1 AGS403      0.0000 
     11 O2A         6.4770  -59.4030   43.0050 O.co2     1 AGS403      0.0000 
     12 O3A         6.3140  -60.5670   45.2590 O.3       1 AGS403      0.0000 
     13 O5'         5.3220  -61.6440   43.1100 O.3       1 AGS403      0.0000 
     14 C5'         4.7660  -62.7240   43.8480 C.3       1 AGS403      0.0000 
     15 C4'         4.9710  -64.0260   43.0950 C.3       1 AGS403      0.0000 
     16 O4'         4.4410  -63.8900   41.7750 O.3       1 AGS403      0.0000 
     17 C3'         6.4370  -64.4060   42.9470 C.3       1 AGS403      0.0000 
     18 O3'         6.6160  -65.7940   43.2240 O.3       1 AGS403      0.0000 
     19 C2'         6.7800  -64.1280   41.4950 C.3       1 AGS403      0.0000 
     20 O2'         7.6770  -65.1120   40.9880 O.3       1 AGS403      0.0000 
     21 C1'         5.4350  -64.2100   40.7930 C.3       1 AGS403      0.0000 
     22 N9          5.2590  -63.2680   39.6690 N.pl3     1 AGS403      0.0000 
     23 C8          4.9710  -61.9600   39.7790 C.2       1 AGS403      0.0000 
     24 N7          4.8520  -61.3970   38.5490 N.2       1 AGS403      0.0000 
     25 C5          5.0510  -62.3620   37.6340 C.ar      1 AGS403      0.0000 
     26 C6          5.0660  -62.4500   36.1580 C.ar      1 AGS403      0.0000 
     27 N6          4.8360  -61.3540   35.4000 N.pl3     1 AGS403      0.0000 
     28 N1          5.3170  -63.6540   35.5990 N.ar      1 AGS403      0.0000 
     29 C2          5.5460  -64.7530   36.3420 C.ar      1 AGS403      0.0000 
     30 N3          5.5460  -64.7380   37.6870 N.ar      1 AGS403      0.0000 
     31 C4          5.3110  -63.5970   38.3780 C.ar      1 AGS403      0.0000 
     32 HOG2       10.4920  -60.7100   46.8600 H         1 AGS403      0.0000 
     33 H5'1        5.2450  -62.7850   44.8280 H         1 AGS403      0.0000 
     34 H5'2        3.6990  -62.5530   44.0050 H         1 AGS403      0.0000 
     35 H4'         4.4600  -64.8070   43.6740 H         1 AGS403      0.0000 
     36 H3'         7.0780  -63.8470   43.6430 H         1 AGS403      0.0000 
     37 HO3'        6.2450  -66.0000   44.0930 H         1 AGS403      0.0000 
     38 H2'         7.2850  -63.1630   41.3490 H         1 AGS403      0.0000 
     39 HO2'        8.4030  -65.2400   41.6130 H         1 AGS403      0.0000 
     40 H1'         5.3690  -65.2220   40.3710 H         1 AGS403      0.0000 
     41 H8          4.8510  -61.4300   40.7150 H         1 AGS403      0.0000 
     42 HN61        4.8500  -61.4250   34.3920 H         1 AGS403      0.0000 
     43 HN62        4.6500  -60.4640   35.8410 H         1 AGS403      0.0000 
     44 H2          5.7390  -65.6900   35.8350 H         1 AGS403      0.0000 
@<TRIPOS>BOND
     1    1    2 2    
     2    1    3 1    
     3    1    4 1    
     4    1    8 1    
     5    3   32 1    
     6    5    6 ar   
     7    5    7 ar   
     8    5    8 1    
     9    5   12 1    
    10    9   10 ar   
    11    9   11 ar   
    12    9   12 1    
    13    9   13 1    
    14   13   14 1    
    15   14   15 1    
    16   14   33 1    
    17   14   34 1    
    18   15   16 1    
    19   15   17 1    
    20   15   35 1    
    21   16   21 1    
    22   17   18 1    
    23   17   19 1    
    24   17   36 1    
    25   18   37 1    
    26   19   20 1    
    27   19   21 1    
    28   19   38 1    
    29   20   39 1    
    30   21   22 1    
    31   21   40 1    
    32   22   23 1    
    33   22   31 1    
    34   23   24 2    
    35   23   41 1    
    36   24   25 1    
    37   25   26 ar   
    38   25   31 ar   
    39   26   27 1    
    40   26   28 ar   
    41   27   42 1    
    42   27   43 1    
    43   28   29 ar   
    44   29   30 ar   
    45   29   44 1    
    46   30   31 ar   
@<TRIPOS>SUBSTRUCTURE
     1 AGS403      1 GROUP   
@<TRIPOS>SET

