#    Name: 6cvl_2_AGS
#    Modification time : Fri May 22 19:30:49 2020

@<TRIPOS>MOLECULE
6cvl_2_AGS
   43    45     1     0     0
SMALL
NO_CHARGES


@<TRIPOS>ATOM
      1 PG         23.8250  -43.6900   47.5220 P.3       1 AGS404      0.0000 
      2 S1G        22.4930  -44.0010   49.0510 S.2       1 AGS404      0.0000 
      3 O2G        23.4970  -44.7120   46.3260 O.3       1 AGS404      0.0000 
      4 O3G        23.7910  -42.2640   47.1270 O.3       1 AGS404      0.0000 
      5 PB         26.6150  -43.6100   47.5800 P.3       1 AGS404      0.0000 
      6 O1B        26.7690  -42.1390   47.8260 O.co2     1 AGS404      0.0000 
      7 O2B        27.7530  -44.3290   48.2340 O.co2     1 AGS404      0.0000 
      8 O3B        25.2230  -44.1060   48.1800 O.3       1 AGS404      0.0000 
      9 PA         27.8260  -43.2310   45.1790 P.3       1 AGS404      0.0000 
     10 O1A        29.1320  -43.5520   45.8610 O.co2     1 AGS404      0.0000 
     11 O2A        27.7860  -43.7790   43.7770 O.co2     1 AGS404      0.0000 
     12 O3A        26.6510  -43.9150   46.0150 O.3       1 AGS404      0.0000 
     13 O5'        27.5720  -41.6460   45.1360 O.3       1 AGS404      0.0000 
     14 C5'        28.6630  -40.7470   45.2410 C.3       1 AGS404      0.0000 
     15 C4'        28.6980  -39.7840   44.0660 C.3       1 AGS404      0.0000 
     16 O4'        29.3640  -40.3940   42.9550 O.3       1 AGS404      0.0000 
     17 C3'        27.3310  -39.3380   43.5570 C.3       1 AGS404      0.0000 
     18 O3'        27.1480  -37.9450   43.8010 O.3       1 AGS404      0.0000 
     19 C2'        27.3420  -39.6030   42.0600 C.3       1 AGS404      0.0000 
     20 O2'        26.8940  -38.4610   41.3380 O.3       1 AGS404      0.0000 
     21 C1'        28.7970  -39.9100   41.7390 C.3       1 AGS404      0.0000 
     22 N9         28.9320  -40.9310   40.6840 N.pl3     1 AGS404      0.0000 
     23 C8         28.8600  -42.2580   40.8790 C.2       1 AGS404      0.0000 
     24 N7         29.0330  -42.9170   39.7050 N.2       1 AGS404      0.0000 
     25 C5         29.2260  -42.0010   38.7350 C.ar      1 AGS404      0.0000 
     26 C6         29.4690  -42.0210   37.2700 C.ar      1 AGS404      0.0000 
     27 N6         29.5470  -43.1770   36.5670 N.pl3     1 AGS404      0.0000 
     28 N1         29.6110  -40.8370   36.6420 N.ar      1 AGS404      0.0000 
     29 C2         29.5430  -39.6680   37.3040 C.ar      1 AGS404      0.0000 
     30 N3         29.3270  -39.5800   38.6320 N.ar      1 AGS404      0.0000 
     31 C4         29.1620  -40.6890   39.3910 C.ar      1 AGS404      0.0000 
     32 HOG2       22.6410  -45.1610   46.2950 H         1 AGS404      0.0000 
     33 H5'1       28.5780  -40.1810   46.1710 H         1 AGS404      0.0000 
     34 H5'2       29.5970  -41.3120   45.2760 H         1 AGS404      0.0000 
     35 H4'        29.2260  -38.9000   44.4500 H         1 AGS404      0.0000 
     36 H3'        26.5140  -39.8710   44.0630 H         1 AGS404      0.0000 
     37 H2'        26.6660  -40.4220   41.7760 H         1 AGS404      0.0000 
     38 HO2'       25.9760  -38.2700   41.5730 H         1 AGS404      0.0000 
     39 H1'        29.2900  -39.0030   41.3630 H         1 AGS404      0.0000 
     40 H8         28.6880  -42.7350   41.8360 H         1 AGS404      0.0000 
     41 HN61       29.7140  -43.1530   35.5710 H         1 AGS404      0.0000 
     42 HN62       29.4380  -44.0640   37.0390 H         1 AGS404      0.0000 
     43 H2         29.6670  -38.7510   36.7420 H         1 AGS404      0.0000 
@<TRIPOS>BOND
     1    1    2 2    
     2    1    3 1    
     3    1    4 1    
     4    1    8 1    
     5    3   32 1    
     6    5    6 ar   
     7    5    7 ar   
     8    5    8 1    
     9    5   12 1    
    10    9   10 ar   
    11    9   11 ar   
    12    9   12 1    
    13    9   13 1    
    14   13   14 1    
    15   14   15 1    
    16   14   33 1    
    17   14   34 1    
    18   15   16 1    
    19   15   17 1    
    20   15   35 1    
    21   16   21 1    
    22   17   18 1    
    23   17   19 1    
    24   17   36 1    
    25   19   20 1    
    26   19   21 1    
    27   19   37 1    
    28   20   38 1    
    29   21   22 1    
    30   21   39 1    
    31   22   23 1    
    32   22   31 1    
    33   23   24 2    
    34   23   40 1    
    35   24   25 1    
    36   25   26 ar   
    37   25   31 ar   
    38   26   27 1    
    39   26   28 ar   
    40   27   41 1    
    41   27   42 1    
    42   28   29 ar   
    43   29   30 ar   
    44   29   43 1    
    45   30   31 ar   
@<TRIPOS>SUBSTRUCTURE
     1 AGS404      1 GROUP   
@<TRIPOS>SET

