#    Name: 6qcn_1_AR6_CAVITY_N1_8
#    Modification time : Fri May 22 19:34:36 2020

@<TRIPOS>MOLECULE
6qcn_1_AR6_CAVITY_N1_8
   27     0     5     0     0
SMALL
NO_CHARGES


@<TRIPOS>ATOM
      1 N           8.2800  -31.2500    4.8600 N.am      1 ALA2        0.0000 
      2 N           7.4300  -32.2900    5.5300 N.am      1 ALA2        0.0000 
      3 N          12.5400  -33.1300    3.9800 N.am      1 ALA2        0.0000 
      4 N           9.9000  -31.7500    6.1300 N.am      1 ALA2        0.0000 
      5 N          11.0400  -32.7300    6.0600 N.am      1 ALA2        0.0000 
      6 NZ          7.9200  -31.8200    6.8700 N.4       2 LYS4        0.0000 
      7 CZ          8.0900  -33.7300    4.1200 C.ar      3 PHE5        0.0000 
      8 CZ          9.2200  -34.7100    4.0500 C.ar      3 PHE5        0.0000 
      9 CZ         11.2100  -34.6400    3.3100 C.ar      3 PHE5        0.0000 
     10 CZ         10.3600  -35.6800    3.9800 C.ar      3 PHE5        0.0000 
     11 CZ          9.4200  -32.2200    4.7900 C.ar      3 PHE5        0.0000 
     12 CZ          8.5700  -33.2600    5.4600 C.ar      3 PHE5        0.0000 
     13 CZ         11.4000  -32.1600    4.0500 C.ar      3 PHE5        0.0000 
     14 CZ         10.5600  -33.2000    4.7200 C.ar      3 PHE5        0.0000 
     15 CZ          9.7100  -34.2400    5.3900 C.ar      3 PHE5        0.0000 
     16 CZ         11.6900  -34.1700    4.6500 C.ar      3 PHE5        0.0000 
     17 CA          8.3800  -35.7500    4.7200 C.3       4 GLY6        0.0000 
     18 CA          9.5100  -36.7200    4.6500 C.3       4 GLY6        0.0000 
     19 CA         11.5000  -36.6500    3.9100 C.3       4 GLY6        0.0000 
     20 CA          7.7200  -34.3000    6.1300 C.3       4 GLY6        0.0000 
     21 CA          8.8600  -35.2800    6.0600 C.3       4 GLY6        0.0000 
     22 CA         13.6800  -34.1000    3.9100 C.3       4 GLY6        0.0000 
     23 CA          8.7600  -30.7800    6.2000 C.3       4 GLY6        0.0000 
     24 CA         10.7500  -30.7100    5.4600 C.3       4 GLY6        0.0000 
     25 CA          8.2100  -33.8300    7.4700 C.3       4 GLY6        0.0000 
     26 DU         10.8500  -35.2100    5.3200 H         5 CUB7        0.0000 
     27 DU          9.0500  -32.7900    6.8000 H         5 CUB7        0.0000 
@<TRIPOS>BOND
@<TRIPOS>SUBSTRUCTURE
     1 ALA2        1 GROUP   
     2 LYS4        6 GROUP   
     3 PHE5        7 GROUP   
     4 GLY6       17 GROUP   
     5 CUB7       26 GROUP   
@<TRIPOS>SET

