#    Name: 6qcn_3_AR6
#    Modification time : Fri May 22 19:34:51 2020

@<TRIPOS>MOLECULE
6qcn_3_AR6
   36    39     1     0     0
SMALL
NO_CHARGES


@<TRIPOS>ATOM
      1 N1         -1.7570  -37.2970  -34.7470 N.ar      1 AR6402      0.0000 
      2 C2         -2.3390  -36.9140  -33.6040 C.ar      1 AR6402      0.0000 
      3 N3         -1.8020  -36.7460  -32.4000 N.ar      1 AR6402      0.0000 
      4 C4         -0.4750  -36.9780  -32.4510 C.ar      1 AR6402      0.0000 
      5 C5          0.2740  -37.3690  -33.5330 C.ar      1 AR6402      0.0000 
      6 C6         -0.4120  -37.5180  -34.7480 C.ar      1 AR6402      0.0000 
      7 N6          0.2090  -37.8500  -35.8820 N.pl3     1 AR6402      0.0000 
      8 N7          1.6290  -37.5180  -33.1880 N.2       1 AR6402      0.0000 
      9 C8          1.6780  -37.2410  -31.9220 C.2       1 AR6402      0.0000 
     10 N9          0.4130  -36.9460  -31.4180 N.pl3     1 AR6402      0.0000 
     11 PA          4.4670  -34.0060  -27.0330 P.3       1 AR6402      0.0000 
     12 PB          4.3160  -30.9710  -27.2600 P.3       1 AR6402      0.0000 
     13 C1'         0.1410  -36.5340  -30.1030 C.3       1 AR6402      0.0000 
     14 O1A         4.2650  -33.8380  -25.5720 O.co2     1 AR6402      0.0000 
     15 O1B         4.2840  -30.1130  -28.4390 O.co2     1 AR6402      0.0000 
     16 C1D         9.1110  -29.9630  -25.1870 C.3       1 AR6402      0.0000 
     17 O1D         9.7660  -30.0960  -23.9380 O.3       1 AR6402      0.0000 
     18 C2'         0.7640  -37.3670  -28.9880 C.3       1 AR6402      0.0000 
     19 O2'        -0.1810  -38.3120  -28.5010 O.3       1 AR6402      0.0000 
     20 O2A         5.5420  -34.7310  -27.7790 O.co2     1 AR6402      0.0000 
     21 O2B         3.0200  -30.8230  -26.5290 O.co2     1 AR6402      0.0000 
     22 C2D         9.3300  -28.7890  -26.1560 C.3       1 AR6402      0.0000 
     23 O2D         9.7350  -27.5450  -25.6640 O.3       1 AR6402      0.0000 
     24 C3'         1.0110  -36.2960  -27.9120 C.3       1 AR6402      0.0000 
     25 O3'        -0.1250  -36.2140  -27.0600 O.3       1 AR6402      0.0000 
     26 O3A         4.6140  -32.5190  -27.6110 O.3       1 AR6402      0.0000 
     27 C3D         7.9890  -28.6170  -26.8800 C.3       1 AR6402      0.0000 
     28 O3D         7.5530  -27.3200  -27.3480 O.3       1 AR6402      0.0000 
     29 C4'         1.1740  -35.0060  -28.7010 C.3       1 AR6402      0.0000 
     30 O4'         0.7470  -35.2650  -30.0450 O.3       1 AR6402      0.0000 
     31 C4D         7.0800  -28.8800  -25.7080 C.3       1 AR6402      0.0000 
     32 O4D         7.6710  -29.9520  -24.9620 O.3       1 AR6402      0.0000 
     33 C5'         2.5370  -34.3940  -28.7730 C.3       1 AR6402      0.0000 
     34 O5'         3.0640  -34.6000  -27.4890 O.3       1 AR6402      0.0000 
     35 C5D         5.6640  -29.2300  -26.0660 C.3       1 AR6402      0.0000 
     36 O5D         5.5970  -30.6410  -26.3400 O.3       1 AR6402      0.0000 
@<TRIPOS>BOND
     1    1    2 ar   
     2    1    6 ar   
     3    2    3 ar   
     4    3    4 ar   
     5    4    5 ar   
     6    4   10 1    
     7    5    6 ar   
     8    5    8 1    
     9    6    7 1    
    10    8    9 2    
    11    9   10 1    
    12   10   13 1    
    13   11   14 ar   
    14   11   20 ar   
    15   11   26 1    
    16   11   34 1    
    17   12   15 ar   
    18   12   21 ar   
    19   12   26 1    
    20   12   36 1    
    21   13   18 1    
    22   13   30 1    
    23   16   17 1    
    24   16   22 1    
    25   16   32 1    
    26   18   19 1    
    27   18   24 1    
    28   22   23 1    
    29   22   27 1    
    30   24   25 1    
    31   24   29 1    
    32   27   28 1    
    33   27   31 1    
    34   29   30 1    
    35   29   33 1    
    36   31   32 1    
    37   31   35 1    
    38   33   34 1    
    39   35   36 1    
@<TRIPOS>SUBSTRUCTURE
     1 AR6402      1 GROUP   
@<TRIPOS>SET

