#    Name: 6qcn_1_AR6_CAVITY_N1_6
#    Modification time : Fri May 22 19:34:36 2020

@<TRIPOS>MOLECULE
6qcn_1_AR6_CAVITY_N1_6
    8     0     3     0     0
SMALL
NO_CHARGES


@<TRIPOS>ATOM
      1 N           8.2800  -31.2500    4.8600 N.am      1 ALA2        0.0000 
      2 N           7.4300  -32.2900    5.5300 N.am      1 ALA2        0.0000 
      3 CZ          8.0900  -33.7300    4.1200 C.ar      2 PHE5        0.0000 
      4 CZ          9.2200  -34.7100    4.0500 C.ar      2 PHE5        0.0000 
      5 CZ          9.4200  -32.2200    4.7900 C.ar      2 PHE5        0.0000 
      6 CZ         11.4000  -32.1600    4.0500 C.ar      2 PHE5        0.0000 
      7 CA          8.7600  -30.7800    6.2000 C.3       3 GLY6        0.0000 
      8 CA         10.7500  -30.7100    5.4600 C.3       3 GLY6        0.0000 
@<TRIPOS>BOND
@<TRIPOS>SUBSTRUCTURE
     1 ALA2        1 GROUP   
     2 PHE5        3 GROUP   
     3 GLY6        7 GROUP   
@<TRIPOS>SET

