#    Name: 6qcn_2_QUE
#    Modification time : Fri May 22 19:34:43 2020

@<TRIPOS>MOLECULE
6qcn_2_QUE
   22    24     1     0     0
SMALL
NO_CHARGES


@<TRIPOS>ATOM
      1 C1          9.7800  -37.5040  -15.3780 C.ar      1 QUE403      0.0000 
      2 C2         10.9100  -37.0080  -14.7630 C.ar      1 QUE403      0.0000 
      3 C3         11.3110  -35.6450  -14.9350 C.ar      1 QUE403      0.0000 
      4 C4         10.4970  -34.8530  -15.7580 C.ar      1 QUE403      0.0000 
      5 C5          9.3620  -35.3380  -16.4060 C.ar      1 QUE403      0.0000 
      6 C6          9.0010  -36.6710  -16.1950 C.ar      1 QUE403      0.0000 
      7 C9         12.5060  -35.0060  -14.2980 C.2       1 QUE403      0.0000 
      8 C10        12.7250  -33.6100  -14.5610 C.2       1 QUE403      0.0000 
      9 C11        11.8830  -32.9130  -15.3810 C.2       1 QUE403      0.0000 
     10 C14        12.0850  -31.4890  -15.6620 C.ar      1 QUE403      0.0000 
     11 C15        11.2330  -30.5000  -15.1650 C.ar      1 QUE403      0.0000 
     12 C16        11.4890  -29.1500  -15.3990 C.ar      1 QUE403      0.0000 
     13 C17        12.6240  -28.7670  -16.0940 C.ar      1 QUE403      0.0000 
     14 C18        13.5010  -29.7560  -16.5830 C.ar      1 QUE403      0.0000 
     15 C19        13.2450  -31.0860  -16.3340 C.ar      1 QUE403      0.0000 
     16 O12        10.8030  -33.5280  -15.9780 O.3       1 QUE403      0.0000 
     17 O13        13.3260  -35.5880  -13.5460 O.2       1 QUE403      0.0000 
     18 O23        14.6640  -29.4860  -17.2440 O.3       1 QUE403      0.0000 
     19 O24        12.8580  -27.4310  -16.2790 O.3       1 QUE403      0.0000 
     20 O27        13.8140  -33.0290  -13.9730 O.co2     1 QUE403      0.0000 
     21 O29         7.9110  -37.2300  -16.7900 O.3       1 QUE403      0.0000 
     22 O30        11.5980  -37.8510  -13.9540 O.co2     1 QUE403      0.0000 
@<TRIPOS>BOND
     1    1    2 ar   
     2    1    6 ar   
     3    2    3 ar   
     4    2   22 ar   
     5    3    4 ar   
     6    3    7 1    
     7    4    5 ar   
     8    4   16 1    
     9    5    6 ar   
    10    6   21 1    
    11    7    8 1    
    12    7   17 2    
    13    8    9 2    
    14    8   20 ar   
    15    9   10 1    
    16    9   16 1    
    17   10   11 ar   
    18   10   15 ar   
    19   11   12 ar   
    20   12   13 ar   
    21   13   14 ar   
    22   13   19 1    
    23   14   15 ar   
    24   14   18 1    
@<TRIPOS>SUBSTRUCTURE
     1 QUE403      1 GROUP   
@<TRIPOS>SET

