#    Name: 6qcn_1_AR6
#    Modification time : Fri May 22 19:34:34 2020

@<TRIPOS>MOLECULE
6qcn_1_AR6
   36    39     1     0     0
SMALL
NO_CHARGES


@<TRIPOS>ATOM
      1 N1         11.8850  -19.8510    8.2510 N.ar      1 AR6402      0.0000 
      2 C2         11.3860  -19.4520    7.0670 C.ar      1 AR6402      0.0000 
      3 N3         11.4810  -20.0290    5.8750 N.ar      1 AR6402      0.0000 
      4 C4         12.2280  -21.1420    5.9580 C.ar      1 AR6402      0.0000 
      5 C5         12.8480  -21.6540    7.0850 C.ar      1 AR6402      0.0000 
      6 C6         12.6620  -20.9620    8.3030 C.ar      1 AR6402      0.0000 
      7 N6         13.1250  -21.3820    9.4960 N.pl3     1 AR6402      0.0000 
      8 N7         13.5660  -22.8040    6.7510 N.2       1 AR6402      0.0000 
      9 C8         13.3530  -22.9710    5.4640 C.2       1 AR6402      0.0000 
     10 N9         12.5790  -21.9600    4.9170 N.pl3     1 AR6402      0.0000 
     11 PA         10.8790  -26.6400    0.1890 P.3       1 AR6402      0.0000 
     12 PB          7.9830  -27.5090    0.4430 P.3       1 AR6402      0.0000 
     13 C1'        12.0470  -21.8130    3.5260 C.3       1 AR6402      0.0000 
     14 O1A        10.7310  -26.7510   -1.2820 O.co2     1 AR6402      0.0000 
     15 O1B         7.3820  -27.7340    1.7670 O.co2     1 AR6402      0.0000 
     16 C1D         8.3350  -32.1170   -1.7930 C.3       1 AR6402      0.0000 
     17 O1D         8.5290  -33.0570   -2.7580 O.3       1 AR6402      0.0000 
     18 C2'        12.9820  -22.1500    2.3810 C.3       1 AR6402      0.0000 
     19 O2'        13.7410  -21.0030    2.1060 O.3       1 AR6402      0.0000 
     20 O2A        12.0490  -27.2220    0.8970 O.co2     1 AR6402      0.0000 
     21 O2B         7.7350  -26.2810   -0.3500 O.co2     1 AR6402      0.0000 
     22 C2D         7.2440  -32.7550   -0.9650 C.3       1 AR6402      0.0000 
     23 O2D         6.2710  -33.4070   -1.7780 O.3       1 AR6402      0.0000 
     24 C3'        12.0120  -22.4820    1.2390 C.3       1 AR6402      0.0000 
     25 O3'        11.6840  -21.4300    0.3170 O.3       1 AR6402      0.0000 
     26 O3A         9.5480  -27.3030    0.8470 O.3       1 AR6402      0.0000 
     27 C3D         6.7740  -31.5120   -0.2240 C.3       1 AR6402      0.0000 
     28 O3D         5.5440  -31.7330    0.4830 O.3       1 AR6402      0.0000 
     29 C4'        10.8800  -23.1600    2.0100 C.3       1 AR6402      0.0000 
     30 O4'        11.0210  -22.7520    3.4140 O.3       1 AR6402      0.0000 
     31 C4D         6.6640  -30.5870   -1.4040 C.3       1 AR6402      0.0000 
     32 O4D         7.7930  -30.9640   -2.2590 O.3       1 AR6402      0.0000 
     33 C5'        10.9010  -24.6770    1.9650 C.3       1 AR6402      0.0000 
     34 O5'        10.6450  -25.1340    0.6080 O.3       1 AR6402      0.0000 
     35 C5D         6.7110  -29.1080   -1.1160 C.3       1 AR6402      0.0000 
     36 O5D         7.9870  -28.7730   -0.5820 O.3       1 AR6402      0.0000 
@<TRIPOS>BOND
     1    1    2 ar   
     2    1    6 ar   
     3    2    3 ar   
     4    3    4 ar   
     5    4    5 ar   
     6    4   10 1    
     7    5    6 ar   
     8    5    8 1    
     9    6    7 1    
    10    8    9 2    
    11    9   10 1    
    12   10   13 1    
    13   11   14 ar   
    14   11   20 ar   
    15   11   26 1    
    16   11   34 1    
    17   12   15 ar   
    18   12   21 ar   
    19   12   26 1    
    20   12   36 1    
    21   13   18 1    
    22   13   30 1    
    23   16   17 1    
    24   16   22 1    
    25   16   32 1    
    26   18   19 1    
    27   18   24 1    
    28   22   23 1    
    29   22   27 1    
    30   24   25 1    
    31   24   29 1    
    32   27   28 1    
    33   27   31 1    
    34   29   30 1    
    35   29   33 1    
    36   31   32 1    
    37   31   35 1    
    38   33   34 1    
    39   35   36 1    
@<TRIPOS>SUBSTRUCTURE
     1 AR6402      1 GROUP   
@<TRIPOS>SET

