#    Name: 6qcn_2_QUE_CAVITY_N1_4
#    Modification time : Fri May 22 19:34:45 2020

@<TRIPOS>MOLECULE
6qcn_2_QUE_CAVITY_N1_4
   97     0     7     0     0
SMALL
NO_CHARGES


@<TRIPOS>ATOM
      1 OG         15.6200  -30.4700  -14.8500 O.3       1 SER1        0.0000 
      2 N           7.9200  -30.0600  -17.2500 N.am      2 ALA2        0.0000 
      3 N          10.5800  -27.0500  -15.9100 N.am      2 ALA2        0.0000 
      4 N           9.7300  -28.0900  -15.2400 N.am      2 ALA2        0.0000 
      5 N          11.9100  -25.5400  -15.2400 N.am      2 ALA2        0.0000 
      6 N          10.2200  -27.6200  -13.9000 N.am      2 ALA2        0.0000 
      7 N          12.2100  -27.5500  -14.6400 N.am      2 ALA2        0.0000 
      8 N          10.7000  -27.1500  -12.5600 N.am      2 ALA2        0.0000 
      9 OD1         8.3800  -33.9900  -19.4000 O.co2     3 ASP3        0.0000 
     10 NZ          9.7100  -32.4800  -18.7300 N.4       4 LYS4        0.0000 
     11 NZ         11.3300  -32.9900  -17.4600 N.4       4 LYS4        0.0000 
     12 NZ         11.6300  -35.0000  -16.8600 N.4       4 LYS4        0.0000 
     13 NZ         11.8200  -32.5200  -16.1200 N.4       4 LYS4        0.0000 
     14 NZ          7.5800  -37.7200  -12.7700 N.4       4 LYS4        0.0000 
     15 NZ         12.9600  -33.4900  -16.1900 N.4       4 LYS4        0.0000 
     16 NZ         12.1100  -34.5300  -15.5200 N.4       4 LYS4        0.0000 
     17 NZ         13.2500  -35.5000  -15.5900 N.4       4 LYS4        0.0000 
     18 NZ         14.8500  -28.9300  -16.7900 N.4       4 LYS4        0.0000 
     19 NZ          8.9100  -36.2100  -12.1000 N.4       4 LYS4        0.0000 
     20 NZ         10.0500  -37.1800  -12.1700 N.4       4 LYS4        0.0000 
     21 NZ         15.3300  -28.4600  -15.4500 N.4       4 LYS4        0.0000 
     22 NZ         15.5200  -25.9800  -14.7100 N.4       4 LYS4        0.0000 
     23 NZ         12.4200  -32.1500  -11.4300 N.4       4 LYS4        0.0000 
     24 NZ         13.5600  -33.1200  -11.5000 N.4       4 LYS4        0.0000 
     25 NZ         14.7000  -34.1000  -11.5700 N.4       4 LYS4        0.0000 
     26 NZ         16.0300  -32.5900  -10.9000 N.4       4 LYS4        0.0000 
     27 CZ          8.7700  -29.0200  -17.9200 C.ar      5 PHE5        0.0000 
     28 CZ          9.9000  -30.0000  -17.9900 C.ar      5 PHE5        0.0000 
     29 CZ         11.2400  -28.4900  -17.3200 C.ar      5 PHE5        0.0000 
     30 CZ         10.3900  -29.5300  -16.6500 C.ar      5 PHE5        0.0000 
     31 CZ         12.3800  -29.4600  -17.3900 C.ar      5 PHE5        0.0000 
     32 CZ         13.8100  -32.4500  -16.8600 C.ar      5 PHE5        0.0000 
     33 CZ         12.5700  -26.9800  -16.6500 C.ar      5 PHE5        0.0000 
     34 CZ         11.7200  -28.0200  -15.9800 C.ar      5 PHE5        0.0000 
     35 CZ         14.0000  -29.9700  -16.1200 C.ar      5 PHE5        0.0000 
     36 CZ         14.2900  -31.9800  -15.5200 C.ar      5 PHE5        0.0000 
     37 CZ         13.4400  -33.0200  -14.8500 C.ar      5 PHE5        0.0000 
     38 CZ         14.5800  -34.0000  -14.9200 C.ar      5 PHE5        0.0000 
     39 CZ         13.7300  -35.0400  -14.2500 C.ar      5 PHE5        0.0000 
     40 CZ         12.8800  -36.0800  -13.5800 C.ar      5 PHE5        0.0000 
     41 CZ         12.7600  -24.5000  -15.9100 C.ar      5 PHE5        0.0000 
     42 CZ         15.0600  -33.5300  -13.5800 C.ar      5 PHE5        0.0000 
     43 CZ         14.2200  -34.5700  -12.9100 C.ar      5 PHE5        0.0000 
     44 CZ         15.3600  -35.5400  -12.9800 C.ar      5 PHE5        0.0000 
     45 CZ         13.2500  -24.0300  -14.5700 C.ar      5 PHE5        0.0000 
     46 CZ         12.4000  -25.0700  -13.9000 C.ar      5 PHE5        0.0000 
     47 CA         11.0400  -30.9700  -18.0600 C.3       6 GLY6        0.0000 
     48 CA         10.2000  -32.0100  -17.3900 C.3       6 GLY6        0.0000 
     49 CA          8.1100  -27.5800  -16.5100 C.3       6 GLY6        0.0000 
     50 CA         10.1000  -27.5200  -17.2500 C.3       6 GLY6        0.0000 
     51 CA          9.2500  -28.5600  -16.5800 C.3       6 GLY6        0.0000 
     52 CA          7.5500  -30.6400  -15.2400 C.3       6 GLY6        0.0000 
     53 CA         13.5100  -30.4400  -17.4600 C.3       6 GLY6        0.0000 
     54 CA         12.6700  -31.4800  -16.7900 C.3       6 GLY6        0.0000 
     55 CA          7.7500  -28.1500  -14.5000 C.3       6 GLY6        0.0000 
     56 CA         11.4300  -26.0100  -16.5800 C.3       6 GLY6        0.0000 
     57 CA         13.7100  -27.9500  -16.7200 C.3       6 GLY6        0.0000 
     58 CA         14.8700  -36.0100  -14.3200 C.3       6 GLY6        0.0000 
     59 CA          9.3700  -28.6600  -13.2300 C.3       6 GLY6        0.0000 
     60 CA          8.5200  -29.7000  -12.5600 C.3       6 GLY6        0.0000 
     61 CA         13.9000  -25.4700  -15.9800 C.3       6 GLY6        0.0000 
     62 CA         15.0400  -26.4500  -16.0500 C.3       6 GLY6        0.0000 
     63 CA          9.8600  -28.1900  -11.8900 C.3       6 GLY6        0.0000 
     64 CA         16.6900  -34.0300  -12.3100 C.3       6 GLY6        0.0000 
     65 DU          7.7200  -32.5500  -17.9900 H         7 CUB7        0.0000 
     66 DU          9.0600  -31.0400  -17.3200 H         7 CUB7        0.0000 
     67 DU          8.2100  -32.0800  -16.6500 H         7 CUB7        0.0000 
     68 DU          5.6700  -35.2000  -14.6400 H         7 CUB7        0.0000 
     69 DU          9.3500  -33.0500  -16.7200 H         7 CUB7        0.0000 
     70 DU          8.4000  -29.6000  -15.9100 H         7 CUB7        0.0000 
     71 DU          9.5400  -30.5700  -15.9800 H         7 CUB7        0.0000 
     72 DU          8.6900  -31.6100  -15.3100 H         7 CUB7        0.0000 
     73 DU          7.8500  -32.6500  -14.6400 H         7 CUB7        0.0000 
     74 DU          7.0000  -33.6900  -13.9700 H         7 CUB7        0.0000 
     75 DU         11.5300  -30.5000  -16.7200 H         7 CUB7        0.0000 
     76 DU         10.6800  -31.5400  -16.0500 H         7 CUB7        0.0000 
     77 DU          8.4300  -36.6800  -13.4400 H         7 CUB7        0.0000 
     78 DU          8.8900  -29.1300  -14.5700 H         7 CUB7        0.0000 
     79 DU          8.0400  -30.1700  -13.9000 H         7 CUB7        0.0000 
     80 DU         10.8700  -29.0600  -15.3100 H         7 CUB7        0.0000 
     81 DU         12.8600  -28.9900  -16.0500 H         7 CUB7        0.0000 
     82 DU         13.1500  -31.0100  -15.4500 H         7 CUB7        0.0000 
     83 DU         12.3000  -32.0500  -14.7800 H         7 CUB7        0.0000 
     84 DU         12.5900  -34.0600  -14.1800 H         7 CUB7        0.0000 
     85 DU         13.0500  -26.5100  -15.3100 H         7 CUB7        0.0000 
     86 DU         11.3600  -28.5900  -13.9700 H         7 CUB7        0.0000 
     87 DU         10.5100  -29.6300  -13.3000 H         7 CUB7        0.0000 
     88 DU          9.6600  -30.6700  -12.6300 H         7 CUB7        0.0000 
     89 DU         14.1900  -27.4900  -15.3800 H         7 CUB7        0.0000 
     90 DU         13.3400  -28.5300  -14.7100 H         7 CUB7        0.0000 
     91 DU         14.4800  -29.5000  -14.7800 H         7 CUB7        0.0000 
     92 DU         13.9300  -32.5500  -13.5100 H         7 CUB7        0.0000 
     93 DU         14.3900  -25.0000  -14.6400 H         7 CUB7        0.0000 
     94 DU         13.5400  -26.0400  -13.9700 H         7 CUB7        0.0000 
     95 DU         10.9900  -29.1600  -11.9600 H         7 CUB7        0.0000 
     96 DU         14.6800  -27.0200  -14.0400 H         7 CUB7        0.0000 
     97 DU         11.2800  -31.1800  -11.3600 H         7 CUB7        0.0000 
@<TRIPOS>BOND
@<TRIPOS>SUBSTRUCTURE
     1 SER1        1 GROUP   
     2 ALA2        2 GROUP   
     3 ASP3        9 GROUP   
     4 LYS4       10 GROUP   
     5 PHE5       27 GROUP   
     6 GLY6       47 GROUP   
     7 CUB7       65 GROUP   
@<TRIPOS>SET

