#    Name: 6jzh_1_ZMA
#    Modification time : Fri May 22 19:36:07 2020

@<TRIPOS>MOLECULE
6jzh_1_ZMA
   40    43     1     0     0
SMALL
NO_CHARGES


@<TRIPOS>ATOM
      1 C1        -21.6470   13.5970   14.9190 C.ar      1 ZMA2002     0.0000 
      2 C2        -21.2980   14.9290   15.0120 C.ar      1 ZMA2002     0.0000 
      3 C3        -20.0900   15.2890   15.5930 C.ar      1 ZMA2002     0.0000 
      4 O4        -19.7390   16.5990   15.6880 O.3       1 ZMA2002     0.0000 
      5 C5        -19.2370   14.3110   16.0790 C.ar      1 ZMA2002     0.0000 
      6 C6        -19.5910   12.9790   15.9830 C.ar      1 ZMA2002     0.0000 
      7 C7        -20.7900   12.6210   15.4020 C.ar      1 ZMA2002     0.0000 
      8 C8        -21.1660   11.1680   15.3050 C.3       1 ZMA2002     0.0000 
      9 C9        -22.0210   10.8370   16.5260 C.3       1 ZMA2002     0.0000 
     10 N10       -22.3260    9.4080   16.5570 N.pl3     1 ZMA2002     0.0000 
     11 C11       -21.4670    8.5470   17.1990 C.2       1 ZMA2002     0.0000 
     12 N12       -21.8260    7.2850   17.3580 N.2       1 ZMA2002     0.0000 
     13 N13       -20.2930    9.0130   17.6460 N.2       1 ZMA2002     0.0000 
     14 C14       -19.4510    8.2140   18.2670 C.2       1 ZMA2002     0.0000 
     15 N15       -18.2470    8.6840   18.7250 N.pl3     1 ZMA2002     0.0000 
     16 N16       -19.7950    6.9090   18.4450 N.pl3     1 ZMA2002     0.0000 
     17 N17       -19.1510    5.8290   19.0370 N.2       1 ZMA2002     0.0000 
     18 C18       -21.0000    6.4400   17.9810 C.2       1 ZMA2002     0.0000 
     19 N19       -21.0740    5.1590   18.2850 N.2       1 ZMA2002     0.0000 
     20 C20       -19.9580    4.7990   18.9230 C.2       1 ZMA2002     0.0000 
     21 C21       -19.6270    3.4630   19.4280 C.2       1 ZMA2002     0.0000 
     22 C22       -20.4640    2.4010   19.5390 C.2       1 ZMA2002     0.0000 
     23 C23       -19.6920    1.3460   20.0650 C.2       1 ZMA2002     0.0000 
     24 C24       -18.4400    1.8150   20.2420 C.2       1 ZMA2002     0.0000 
     25 O25       -18.4060    3.1010   19.8570 O.3       1 ZMA2002     0.0000 
     26 H1        -22.4570   13.3540   14.5330 H         1 ZMA2002     0.0000 
     27 H2        -21.8710   15.5850   14.6860 H         1 ZMA2002     0.0000 
     28 HO4       -18.9010   16.7290   15.7470 H         1 ZMA2002     0.0000 
     29 H5        -18.4270   14.5500   16.4680 H         1 ZMA2002     0.0000 
     30 H6        -19.0190   12.3220   16.3110 H         1 ZMA2002     0.0000 
     31 H8        -20.3660   10.6190   15.3010 H         1 ZMA2002     0.0000 
     32 H8A       -21.6720   11.0100   14.4930 H         1 ZMA2002     0.0000 
     33 H9        -21.5360   11.0780   17.3310 H         1 ZMA2002     0.0000 
     34 H9A       -22.8490   11.3400   16.4830 H         1 ZMA2002     0.0000 
     35 HN10      -23.0370    9.1090   16.1760 H         1 ZMA2002     0.0000 
     36 HN15      -18.0650    9.5230   18.6740 H         1 ZMA2002     0.0000 
     37 HN1A      -17.6730    8.1400   19.0650 H         1 ZMA2002     0.0000 
     38 H22       -21.3660    2.3750   19.3140 H         1 ZMA2002     0.0000 
     39 H23       -19.9900    0.4860   20.2540 H         1 ZMA2002     0.0000 
     40 H24       -17.7200    1.3280   20.5750 H         1 ZMA2002     0.0000 
@<TRIPOS>BOND
     1    1    2 ar   
     2    1    7 ar   
     3    2    3 ar   
     4    1   26 1    
     5    3    4 1    
     6    2   27 1    
     7    3    5 ar   
     8    4   28 1    
     9    5    6 ar   
    10    6    7 ar   
    11    5   29 1    
    12    7    8 1    
    13    6   30 1    
    14    8    9 1    
    15    8   31 1    
    16    8   32 1    
    17    9   10 1    
    18    9   33 1    
    19    9   34 1    
    20   10   11 1    
    21   11   12 2    
    22   10   35 1    
    23   11   13 1    
    24   12   18 1    
    25   13   14 2    
    26   14   15 1    
    27   14   16 1    
    28   16   17 1    
    29   15   36 1    
    30   15   37 1    
    31   16   18 1    
    32   17   20 2    
    33   18   19 2    
    34   19   20 1    
    35   20   21 1    
    36   21   22 2    
    37   21   25 1    
    38   22   23 1    
    39   23   24 2    
    40   22   38 1    
    41   24   25 1    
    42   23   39 1    
    43   24   40 1    
@<TRIPOS>SUBSTRUCTURE
     1 ZMA2002     1 GROUP   
@<TRIPOS>SET

