#    Name: 6gkf_3_TYR_ASP_LEU_LEU_PRO_PHE_PRO_SEP
#    Modification time : Fri May 22 19:24:15 2020

@<TRIPOS>MOLECULE
6gkf_3_TYR_ASP_LEU_LEU_PRO_PHE_PRO_SEP
   65    67     8     0     0
SMALL
NO_CHARGES


@<TRIPOS>ATOM
      1 N         -24.6350   -0.8230   63.4220 N.4       1 TYR136      0.0000 
      2 CA        -25.5140    0.0000   62.6020 C.3       1 TYR136      0.0000 
      3 C         -26.1140    1.1410   63.4170 C.2       1 TYR136      0.0000 
      4 O         -26.5310    2.1580   62.8640 O.2       1 TYR136      0.0000 
      5 CB        -26.6270   -0.8510   61.9850 C.3       1 TYR136      0.0000 
      6 CG        -27.2070   -1.8830   62.9270 C.ar      1 TYR136      0.0000 
      7 CD1       -28.2070   -1.5430   63.8290 C.ar      1 TYR136      0.0000 
      8 CD2       -26.7540   -3.1960   62.9150 C.ar      1 TYR136      0.0000 
      9 CE1       -28.7400   -2.4820   64.6920 C.ar      1 TYR136      0.0000 
     10 CE2       -27.2810   -4.1420   63.7740 C.ar      1 TYR136      0.0000 
     11 CZ        -28.2730   -3.7790   64.6600 C.ar      1 TYR136      0.0000 
     12 OH        -28.8010   -4.7160   65.5180 O.3       1 TYR136      0.0000 
     13 N         -26.1480    0.9720   64.7390 N.am      2 ASP137      0.0000 
     14 CA        -26.6960    1.9720   65.6450 C.3       2 ASP137      0.0000 
     15 C         -25.6120    2.7990   66.3270 C.2       2 ASP137      0.0000 
     16 O         -25.8490    3.3490   67.4070 O.2       2 ASP137      0.0000 
     17 CB        -27.5830    1.3020   66.6950 C.3       2 ASP137      0.0000 
     18 CG        -29.0110    1.1200   66.2230 C.2       2 ASP137      0.0000 
     19 OD1       -29.5530    2.0500   65.5890 O.co2     2 ASP137      0.0000 
     20 OD2       -29.5930    0.0470   66.4890 O.co2     2 ASP137      0.0000 
     21 N         -24.4320    2.8970   65.7230 N.am      3 LEU138      0.0000 
     22 CA        -23.3240    3.6330   66.3230 C.3       3 LEU138      0.0000 
     23 C         -23.2540    5.0630   65.7950 C.2       3 LEU138      0.0000 
     24 O         -22.5250    5.8990   66.3290 O.2       3 LEU138      0.0000 
     25 CB        -21.9990    2.9120   66.0610 C.3       3 LEU138      0.0000 
     26 CG        -21.9270    1.4380   66.4680 C.3       3 LEU138      0.0000 
     27 CD1       -20.5380    0.8730   66.2130 C.3       3 LEU138      0.0000 
     28 CD2       -22.3200    1.2640   67.9260 C.3       3 LEU138      0.0000 
     29 N         -24.8570    8.8900   64.3110 N.am      4 LEU140      0.0000 
     30 CA        -25.5800    9.9920   64.9360 C.3       4 LEU140      0.0000 
     31 C         -27.0890    9.8250   64.7880 C.2       4 LEU140      0.0000 
     32 O         -27.6120    9.8400   63.6740 O.2       4 LEU140      0.0000 
     33 CB        -25.1350   11.3270   64.3330 C.3       4 LEU140      0.0000 
     34 CG        -25.5500   12.5950   65.0810 C.3       4 LEU140      0.0000 
     35 CD1       -25.0470   12.5690   66.5160 C.3       4 LEU140      0.0000 
     36 CD2       -25.0460   13.8330   64.3540 C.3       4 LEU140      0.0000 
     37 N         -27.7910    9.6690   65.9150 N.am      5 PRO141      0.0000 
     38 CA        -29.2500    9.5080   65.8610 C.3       5 PRO141      0.0000 
     39 C         -30.0060   10.8030   65.6140 C.2       5 PRO141      0.0000 
     40 O         -31.2280   10.7570   65.4200 O.2       5 PRO141      0.0000 
     41 CB        -29.5820    8.9370   67.2450 C.3       5 PRO141      0.0000 
     42 CG        -28.5300    9.5140   68.1330 C.3       5 PRO141      0.0000 
     43 CD        -27.2780    9.6310   67.2960 C.3       5 PRO141      0.0000 
     44 N         -29.3240   11.9440   65.6130 N.am      6 PHE142      0.0000 
     45 CA        -29.9500   13.2420   65.3980 C.3       6 PHE142      0.0000 
     46 C         -29.3300   13.9010   64.1710 C.2       6 PHE142      0.0000 
     47 O         -28.3000   13.4280   63.6730 O.2       6 PHE142      0.0000 
     48 CB        -29.7810   14.1230   66.6400 C.3       6 PHE142      0.0000 
     49 N         -29.9330   14.9740   63.6310 N.am      7 PRO143      0.0000 
     50 CA        -29.2950   15.6970   62.5250 C.3       7 PRO143      0.0000 
     51 C         -27.9120   16.2330   62.8850 C.2       7 PRO143      0.0000 
     52 O         -26.9210   15.7170   62.3690 O.2       7 PRO143      0.0000 
     53 CB        -30.2650   16.8490   62.2550 C.3       7 PRO143      0.0000 
     54 CG        -31.5780   16.3360   62.6950 C.3       7 PRO143      0.0000 
     55 CD        -31.3100   15.4420   63.8710 C.3       7 PRO143      0.0000 
     56 N         -24.0200    5.3370   64.7460 N.am      8 SEP139      0.0000 
     57 CA        -23.9930    6.6400   64.0930 C.3       8 SEP139      0.0000 
     58 CB        -24.5620    6.5320   62.6820 C.3       8 SEP139      0.0000 
     59 OG        -25.9380    6.2140   62.7420 O.3       8 SEP139      0.0000 
     60 C         -24.7720    7.6900   64.8760 C.2       8 SEP139      0.0000 
     61 O         -25.2910    7.4160   65.9580 O.2       8 SEP139      0.0000 
     62 P         -26.4710    5.7660   61.2970 P.3       8 SEP139      0.0000 
     63 O1P       -26.2900    6.9850   60.2630 O.co2     8 SEP139      0.0000 
     64 O2P       -25.6220    4.4940   60.7910 O.co2     8 SEP139      0.0000 
     65 O3P       -28.0290    5.3770   61.4180 O.co2     8 SEP139      0.0000 
@<TRIPOS>BOND
     1    1    2 1    
     2    2    3 1    
     3    2    5 1    
     4    3    4 2    
     5    3   13 am   
     6    5    6 1    
     7    6    7 ar   
     8    6    8 ar   
     9    7    9 ar   
    10    8   10 ar   
    11    9   11 ar   
    12   10   11 ar   
    13   11   12 1    
    14   13   14 1    
    15   14   15 1    
    16   14   17 1    
    17   15   16 2    
    18   15   21 am   
    19   17   18 1    
    20   18   19 ar   
    21   18   20 ar   
    22   21   22 1    
    23   22   23 1    
    24   22   25 1    
    25   23   24 2    
    26   23   56 du   
    27   25   26 1    
    28   26   27 1    
    29   26   28 1    
    30   29   30 1    
    31   29   60 am   
    32   30   31 1    
    33   30   33 1    
    34   31   32 2    
    35   31   37 am   
    36   33   34 1    
    37   34   35 1    
    38   34   36 1    
    39   37   38 1    
    40   37   43 1    
    41   38   39 1    
    42   38   41 1    
    43   39   40 2    
    44   39   44 am   
    45   41   42 1    
    46   42   43 1    
    47   44   45 1    
    48   45   46 1    
    49   45   48 1    
    50   46   47 2    
    51   46   49 am   
    52   49   50 1    
    53   49   55 1    
    54   50   51 1    
    55   50   53 1    
    56   51   52 2    
    57   53   54 1    
    58   54   55 1    
    59   56   57 1    
    60   57   58 1    
    61   57   60 1    
    62   58   59 1    
    63   59   62 1    
    64   60   61 2    
    65   62   63 ar   
    66   62   64 ar   
    67   62   65 ar   
@<TRIPOS>SUBSTRUCTURE
     1 TYR136      1 RESIDUE 
     2 ASP137     13 RESIDUE 
     3 LEU138     21 RESIDUE 
     4 LEU140     29 RESIDUE 
     5 PRO141     37 RESIDUE 
     6 PHE142     44 RESIDUE 
     7 PRO143     49 RESIDUE 
     8 SEP139     56 RESIDUE 
@<TRIPOS>SET

