#    Name: 6jop_1_TTP_CAVITY_N1_ALL
#    Modification time : Fri May 22 19:36:31 2020

@<TRIPOS>MOLECULE
6jop_1_TTP_CAVITY_N1_ALL
  102     0     7     0     0
SMALL
NO_CHARGES


@<TRIPOS>ATOM
      1 OG        -21.1800   -8.2000   14.4500 O.3       1 SER1        0.0000 
      2 OG        -21.2900   -8.2700   17.0400 O.3       1 SER1        0.0000 
      3 OG        -20.0600   -7.9700   16.2400 O.3       1 SER1        0.0000 
      4 OG        -22.0900   -7.3600   16.1700 O.3       1 SER1        0.0000 
      5 OG        -20.8700   -7.0500   15.3600 O.3       1 SER1        0.0000 
      6 OG        -18.5300   -5.5800   25.0400 O.3       1 SER1        0.0000 
      7 OG        -17.4200   -5.3400   26.8200 O.3       1 SER1        0.0000 
      8 OG        -14.0200   -1.2900   27.9400 O.3       1 SER1        0.0000 
      9 OG        -12.7900   -0.9800   27.1400 O.3       1 SER1        0.0000 
     10 OG        -13.7000   -0.1400   28.8500 O.3       1 SER1        0.0000 
     11 OG        -12.4700    0.1700   28.0500 O.3       1 SER1        0.0000 
     12 OG        -16.5400    1.3900   27.9100 O.3       1 SER1        0.0000 
     13 OG        -15.3100    1.6900   27.1000 O.3       1 SER1        0.0000 
     14 O         -20.9700   -7.1200   17.9500 O.2       2 ALA2        0.0000 
     15 N         -19.8600   -6.8900   19.7400 N.am      2 ALA2        0.0000 
     16 N         -16.1800   -5.9800   17.3200 N.am      2 ALA2        0.0000 
     17 N         -16.9800   -5.0600   16.4400 N.am      2 ALA2        0.0000 
     18 N         -18.7400   -6.6600   21.5300 N.am      2 ALA2        0.0000 
     19 N         -17.0900   -5.1300   19.0400 N.am      2 ALA2        0.0000 
     20 O         -18.0500   -7.6400   25.0000 O.2       2 ALA2        0.0000 
     21 N         -18.8500   -6.7200   24.1200 N.am      2 ALA2        0.0000 
     22 N         -15.9700   -4.9000   20.8300 N.am      2 ALA2        0.0000 
     23 N         -16.7700   -3.9800   19.9500 N.am      2 ALA2        0.0000 
     24 N         -14.9200   -1.3800   20.9700 N.am      2 ALA2        0.0000 
     25 OD1       -21.7800   -6.2100   17.0800 O.co2     3 ASP3        0.0000 
     26 OD1       -20.5500   -5.9000   16.2700 O.co2     3 ASP3        0.0000 
     27 OD1       -20.6600   -5.9700   18.8700 O.co2     3 ASP3        0.0000 
     28 OD1       -19.4300   -5.6700   18.0600 O.co2     3 ASP3        0.0000 
     29 OD1       -20.2400   -4.7600   17.1800 O.co2     3 ASP3        0.0000 
     30 OD1       -19.5400   -5.7400   20.6500 O.co2     3 ASP3        0.0000 
     31 OD1       -18.3100   -5.4400   19.8500 O.co2     3 ASP3        0.0000 
     32 OD1       -19.1200   -4.5200   18.9700 O.co2     3 ASP3        0.0000 
     33 OD1       -19.6500   -5.8100   23.2500 O.co2     3 ASP3        0.0000 
     34 OD1       -18.4200   -5.5100   22.4400 O.co2     3 ASP3        0.0000 
     35 OD1       -18.0000   -4.2900   20.7600 O.co2     3 ASP3        0.0000 
     36 OD1       -18.8000   -3.3700   19.8800 O.co2     3 ASP3        0.0000 
     37 OD1       -19.3400   -4.6600   24.1600 O.co2     3 ASP3        0.0000 
     38 OD1       -18.1100   -4.3600   23.3500 O.co2     3 ASP3        0.0000 
     39 OD1       -18.9100   -3.4400   22.4800 O.co2     3 ASP3        0.0000 
     40 OD1       -17.6900   -3.1400   21.6700 O.co2     3 ASP3        0.0000 
     41 OD1       -18.2200   -4.4300   25.9500 O.co2     3 ASP3        0.0000 
     42 OD1       -16.9900   -4.1200   25.1400 O.co2     3 ASP3        0.0000 
     43 OD1       -15.7600   -3.8200   24.3300 O.co2     3 ASP3        0.0000 
     44 OD1       -16.5700   -2.9000   23.4600 O.co2     3 ASP3        0.0000 
     45 OD1       -15.3400   -2.6000   22.6500 O.co2     3 ASP3        0.0000 
     46 OD1       -18.6000   -2.2900   23.3900 O.co2     3 ASP3        0.0000 
     47 OD1       -15.8700   -3.8900   26.9300 O.co2     3 ASP3        0.0000 
     48 OD1       -16.6800   -2.9700   26.0500 O.co2     3 ASP3        0.0000 
     49 OD1       -17.4800   -2.0600   25.1700 O.co2     3 ASP3        0.0000 
     50 OD1       -16.2500   -1.7600   24.3700 O.co2     3 ASP3        0.0000 
     51 OD1       -15.0300   -1.4500   23.5600 O.co2     3 ASP3        0.0000 
     52 OD1       -15.5600   -2.7400   27.8400 O.co2     3 ASP3        0.0000 
     53 OD1       -14.3300   -2.4400   27.0300 O.co2     3 ASP3        0.0000 
     54 OD1       -16.3600   -1.8200   26.9600 O.co2     3 ASP3        0.0000 
     55 OD1       -15.1300   -1.5200   26.1600 O.co2     3 ASP3        0.0000 
     56 OD1       -15.9400   -0.6100   25.2800 O.co2     3 ASP3        0.0000 
     57 OD1       -14.7100   -0.3000   24.4700 O.co2     3 ASP3        0.0000 
     58 OD1       -15.2400   -1.5900   28.7500 O.co2     3 ASP3        0.0000 
     59 OD1       -14.8200   -0.3700   27.0700 O.co2     3 ASP3        0.0000 
     60 OD1       -13.5900   -0.0700   26.2600 O.co2     3 ASP3        0.0000 
     61 OD1       -12.3700    0.2400   25.4500 O.co2     3 ASP3        0.0000 
     62 NZ        -19.0200   -3.5100   25.0700 N.4       4 LYS4        0.0000 
     63 NZ        -18.7100   -2.3600   25.9800 N.4       4 LYS4        0.0000 
     64 NZ        -17.1700   -0.9100   26.0900 N.4       4 LYS4        0.0000 
     65 NZ        -17.9700    0.0100   25.2100 N.4       4 LYS4        0.0000 
     66 NZ        -16.0500   -0.6800   27.8700 N.4       4 LYS4        0.0000 
     67 NZ        -16.8500    0.2400   27.0000 N.4       4 LYS4        0.0000 
     68 NZ        -15.6200    0.5400   26.1900 N.4       4 LYS4        0.0000 
     69 NZ        -16.4300    1.4600   25.3100 N.4       4 LYS4        0.0000 
     70 NZ        -14.9300   -0.4400   29.6600 N.4       4 LYS4        0.0000 
     71 CZ        -19.7500   -6.8200   17.1500 C.ar      5 PHE5        0.0000 
     72 CZ        -18.6300   -6.5900   18.9300 C.ar      5 PHE5        0.0000 
     73 CZ        -17.4000   -6.2800   18.1300 C.ar      5 PHE5        0.0000 
     74 CZ        -17.5100   -6.3500   20.7200 C.ar      5 PHE5        0.0000 
     75 CZ        -17.7300   -6.4900   25.9100 C.ar      5 PHE5        0.0000 
     76 CZ        -19.7600   -5.8800   25.8400 C.ar      5 PHE5        0.0000 
     77 CZ        -20.5600   -4.9600   24.9700 C.ar      5 PHE5        0.0000 
     78 CZ        -15.7300    0.4700   28.7900 C.ar      5 PHE5        0.0000 
     79 CZ        -14.5100    0.7800   27.9800 C.ar      5 PHE5        0.0000 
     80 CZ        -13.3900    1.0100   29.7700 C.ar      5 PHE5        0.0000 
     81 CA        -18.8300   -7.6600   15.4300 C.3       6 GLY6        0.0000 
     82 CA        -17.7200   -7.4300   17.2200 C.3       6 GLY6        0.0000 
     83 CA        -18.5200   -6.5200   16.3400 C.3       6 GLY6        0.0000 
     84 CA        -17.2900   -6.2100   15.5300 C.3       6 GLY6        0.0000 
     85 CA        -16.8200   -7.3400   24.1900 C.3       6 GLY6        0.0000 
     86 CA        -17.6200   -6.4200   23.3200 C.3       6 GLY6        0.0000 
     87 CA        -16.3900   -6.1200   22.5100 C.3       6 GLY6        0.0000 
     88 CA        -16.5000   -6.1900   25.1100 C.3       6 GLY6        0.0000 
     89 CA        -16.0800   -4.9700   23.4200 C.3       6 GLY6        0.0000 
     90 CA        -15.6500   -3.7500   21.7400 C.3       6 GLY6        0.0000 
     91 CA        -16.1900   -5.0400   26.0200 C.3       6 GLY6        0.0000 
     92 CA        -11.3600    0.4000   29.8400 C.3       6 GLY6        0.0000 
     93 DU        -18.2100   -5.3700   17.2500 H         7 CUB7        0.0000 
     94 DU        -17.8900   -4.2200   18.1600 H         7 CUB7        0.0000 
     95 DU        -17.2000   -5.2000   21.6300 H         7 CUB7        0.0000 
     96 DU        -17.5800   -3.0700   19.0700 H         7 CUB7        0.0000 
     97 DU        -17.3100   -5.2700   24.2300 H         7 CUB7        0.0000 
     98 DU        -16.8800   -4.0500   22.5500 H         7 CUB7        0.0000 
     99 DU        -16.4600   -2.8300   20.8600 H         7 CUB7        0.0000 
    100 DU        -17.7900   -3.2100   24.2600 H         7 CUB7        0.0000 
    101 DU        -17.3700   -1.9900   22.5800 H         7 CUB7        0.0000 
    102 DU        -16.1400   -1.6900   21.7700 H         7 CUB7        0.0000 
@<TRIPOS>BOND
@<TRIPOS>SUBSTRUCTURE
     1 SER1        1 GROUP   
     2 ALA2       14 GROUP   
     3 ASP3       25 GROUP   
     4 LYS4       62 GROUP   
     5 PHE5       71 GROUP   
     6 GLY6       81 GROUP   
     7 CUB7       93 GROUP   
@<TRIPOS>SET

