#    Name: 6jop_1_TTP
#    Modification time : Fri May 22 19:36:30 2020

@<TRIPOS>MOLECULE
6jop_1_TTP
   29    30     1     0     0
SMALL
NO_CHARGES


@<TRIPOS>ATOM
      1 PA        -17.3880   -2.7920   25.1420 P.3       1 TTP401      0.0000 
      2 O1A       -18.0750   -2.3530   26.4130 O.co2     1 TTP401      0.0000 
      3 O2A       -16.6690   -1.6180   24.5240 O.co2     1 TTP401      0.0000 
      4 O3A       -16.3160   -4.0080   25.4480 O.3       1 TTP401      0.0000 
      5 PB        -16.2570   -4.9210   26.8210 P.3       1 TTP401      0.0000 
      6 O1B       -16.1590   -6.3780   26.4370 O.co2     1 TTP401      0.0000 
      7 O2B       -17.4880   -4.7080   27.6740 O.co2     1 TTP401      0.0000 
      8 O3B       -14.9340   -4.5060   27.6990 O.3       1 TTP401      0.0000 
      9 PG        -14.7790   -3.0620   28.4710 P.3       1 TTP401      0.0000 
     10 O1G       -13.7360   -2.2280   27.7630 O.co2     1 TTP401      0.0000 
     11 O2G       -14.3680   -3.3290   29.8950 O.co2     1 TTP401      0.0000 
     12 O3G       -16.1000   -2.3290   28.4620 O.co2     1 TTP401      0.0000 
     13 O5'       -18.5080   -3.3590   24.0780 O.3       1 TTP401      0.0000 
     14 C5'       -19.3630   -4.3660   24.5380 C.3       1 TTP401      0.0000 
     15 C4'       -19.2910   -5.5830   23.5900 C.3       1 TTP401      0.0000 
     16 O4'       -19.4750   -5.1030   22.1060 O.3       1 TTP401      0.0000 
     17 C3'       -18.1080   -6.1010   23.5900 C.3       1 TTP401      0.0000 
     18 O3'       -17.9530   -7.0770   24.6650 O.3       1 TTP401      0.0000 
     19 C2'       -17.9740   -6.8370   22.1340 C.3       1 TTP401      0.0000 
     20 C1'       -18.7520   -6.1780   21.2850 C.3       1 TTP401      0.0000 
     21 N1        -17.9960   -5.6100   20.1420 N.am      1 TTP401      0.0000 
     22 C2        -16.9300   -4.5810   20.3190 C.2       1 TTP401      0.0000 
     23 O2        -16.6550   -4.1700   21.3940 O.2       1 TTP401      0.0000 
     24 N3        -16.1960   -4.0540   19.1270 N.am      1 TTP401      0.0000 
     25 C4        -16.5140   -4.5410   17.7920 C.2       1 TTP401      0.0000 
     26 O4        -15.9300   -4.1200   16.8510 O.2       1 TTP401      0.0000 
     27 C5        -17.5770   -5.5690   17.6190 C.2       1 TTP401      0.0000 
     28 C5M       -17.9270   -6.0940   16.2290 C.3       1 TTP401      0.0000 
     29 C6        -18.3040   -6.0820   18.8070 C.2       1 TTP401      0.0000 
@<TRIPOS>BOND
     1    1    2 ar   
     2    1    3 ar   
     3    1    4 1    
     4    1   13 1    
     5    4    5 1    
     6    5    6 ar   
     7    5    7 ar   
     8    5    8 1    
     9    8    9 1    
    10    9   10 ar   
    11    9   11 ar   
    12    9   12 ar   
    13   13   14 1    
    14   14   15 1    
    15   15   16 1    
    16   15   17 1    
    17   16   20 1    
    18   17   18 1    
    19   17   19 1    
    20   19   20 1    
    21   20   21 1    
    22   21   22 1    
    23   21   29 1    
    24   22   23 2    
    25   22   24 1    
    26   24   25 1    
    27   25   26 2    
    28   25   27 1    
    29   27   28 1    
    30   27   29 2    
@<TRIPOS>SUBSTRUCTURE
     1 TTP401      1 GROUP   
@<TRIPOS>SET

