#    Name: 6s1n_1_TTP
#    Modification time : Fri May 22 19:25:33 2020

@<TRIPOS>MOLECULE
6s1n_1_TTP
   29    30     1     0     0
SMALL
NO_CHARGES


@<TRIPOS>ATOM
      1 PA        152.9000  156.5930  161.8650 P.3       1 TTP101      0.0000 
      2 O1A       152.9390  158.0950  161.8880 O.co2     1 TTP101      0.0000 
      3 O2A       153.8990  156.1110  160.8550 O.co2     1 TTP101      0.0000 
      4 O3A       151.3750  156.1160  161.4220 O.3       1 TTP101      0.0000 
      5 PB        150.9740  154.6560  160.7540 P.3       1 TTP101      0.0000 
      6 O1B       152.1850  153.7670  160.6110 O.co2     1 TTP101      0.0000 
      7 O2B       150.0160  153.9640  161.6760 O.co2     1 TTP101      0.0000 
      8 O3B       150.2650  154.8940  159.2890 O.3       1 TTP101      0.0000 
      9 PG        151.0510  155.2140  157.8760 P.3       1 TTP101      0.0000 
     10 O1G       152.2760  154.3450  157.7500 O.co2     1 TTP101      0.0000 
     11 O2G       150.1620  154.8900  156.7070 O.co2     1 TTP101      0.0000 
     12 O3G       151.4100  156.6800  157.8400 O.co2     1 TTP101      0.0000 
     13 O5'       153.3020  156.0070  163.3570 O.3       1 TTP101      0.0000 
     14 C5'       153.4430  154.6240  163.5750 C.3       1 TTP101      0.0000 
     15 C4'       152.8910  154.2660  164.9450 C.3       1 TTP101      0.0000 
     16 O4'       153.0140  155.2790  165.7000 O.3       1 TTP101      0.0000 
     17 C3'       151.2670  154.0280  164.8140 C.3       1 TTP101      0.0000 
     18 O3'       150.9320  152.6070  164.5090 O.3       1 TTP101      0.0000 
     19 C2'       150.7960  154.3540  165.8870 C.3       1 TTP101      0.0000 
     20 C1'       151.8000  155.3550  166.5690 C.3       1 TTP101      0.0000 
     21 N1        151.2550  156.5810  166.5550 N.am      1 TTP101      0.0000 
     22 C2        150.2840  156.9490  167.6060 C.2       1 TTP101      0.0000 
     23 O2        150.0200  156.1740  168.4490 O.2       1 TTP101      0.0000 
     24 N3        149.6340  158.2880  167.6120 N.am      1 TTP101      0.0000 
     25 C4        149.9520  159.2400  166.5710 C.2       1 TTP101      0.0000 
     26 O4        149.4460  160.3010  166.5700 O.2       1 TTP101      0.0000 
     27 C5        150.9300  158.8710  165.5190 C.2       1 TTP101      0.0000 
     28 C5M       151.2770  159.8590  164.4110 C.3       1 TTP101      0.0000 
     29 C6        151.5660  157.5380  165.5260 C.2       1 TTP101      0.0000 
@<TRIPOS>BOND
     1    1    2 ar   
     2    1    3 ar   
     3    1    4 1    
     4    1   13 1    
     5    4    5 1    
     6    5    6 ar   
     7    5    7 ar   
     8    5    8 1    
     9    8    9 1    
    10    9   10 ar   
    11    9   11 ar   
    12    9   12 ar   
    13   13   14 1    
    14   14   15 1    
    15   15   16 1    
    16   15   17 1    
    17   16   20 1    
    18   17   18 1    
    19   17   19 1    
    20   19   20 1    
    21   20   21 1    
    22   21   22 1    
    23   21   29 1    
    24   22   23 2    
    25   22   24 1    
    26   24   25 1    
    27   25   26 2    
    28   25   27 1    
    29   27   28 1    
    30   27   29 2    
@<TRIPOS>SUBSTRUCTURE
     1 TTP101      1 GROUP   
@<TRIPOS>SET

