#    Name: 6s1n_1_TTP_CAVITY_N1_ALL
#    Modification time : Fri May 22 19:25:34 2020

@<TRIPOS>MOLECULE
6s1n_1_TTP_CAVITY_N1_ALL
   71     0     6     0     0
SMALL
NO_CHARGES


@<TRIPOS>ATOM
      1 O         150.5300  155.0300  158.2600 O.2       1 ALA2        0.0000 
      2 O         149.9700  154.0500  159.2500 O.2       1 ALA2        0.0000 
      3 O         151.6000  154.0400  157.8900 O.2       1 ALA2        0.0000 
      4 O         149.2300  154.6100  161.6700 O.2       1 ALA2        0.0000 
      5 O         150.8600  154.6000  160.3200 O.2       1 ALA2        0.0000 
      6 N         152.4900  154.6000  158.9600 N.am      1 ALA2        0.0000 
      7 O         151.9300  153.6200  159.9400 O.2       1 ALA2        0.0000 
      8 O         150.1200  155.1700  162.7400 O.2       1 ALA2        0.0000 
      9 O         151.1900  154.1800  162.3700 O.2       1 ALA2        0.0000 
     10 O         150.6300  153.2000  163.3500 O.2       1 ALA2        0.0000 
     11 O         152.2600  153.2000  161.9900 O.2       1 ALA2        0.0000 
     12 N         153.8900  153.1900  160.6400 N.am      1 ALA2        0.0000 
     13 O         151.0200  155.7300  163.8100 O.2       1 ALA2        0.0000 
     14 O         150.4500  154.7500  164.7900 O.2       1 ALA2        0.0000 
     15 N         149.8900  153.7600  165.7800 N.am      1 ALA2        0.0000 
     16 O         151.5200  153.7600  164.4200 O.2       1 ALA2        0.0000 
     17 O         150.2800  156.2900  166.2400 O.2       1 ALA2        0.0000 
     18 N         149.7100  155.3100  167.2200 N.am      1 ALA2        0.0000 
     19 O         151.9100  156.2900  164.8800 O.2       1 ALA2        0.0000 
     20 O         151.3400  155.3000  165.8600 O.2       1 ALA2        0.0000 
     21 N         152.2400  155.8600  166.9300 N.am      1 ALA2        0.0000 
     22 OD1       149.4900  153.3500  153.7000 O.co2     2 ASP3        0.0000 
     23 OD1       149.3100  154.8900  155.1400 O.co2     2 ASP3        0.0000 
     24 OD1       150.3800  153.9100  154.7700 O.co2     2 ASP3        0.0000 
     25 OD1       150.2000  155.4500  156.2100 O.co2     2 ASP3        0.0000 
     26 OD1       149.6400  154.4700  157.1900 O.co2     2 ASP3        0.0000 
     27 OD1       151.1000  156.0100  157.2800 O.co2     2 ASP3        0.0000 
     28 OD1       151.4200  155.5900  159.3300 O.co2     2 ASP3        0.0000 
     29 OD1       152.3200  156.1500  160.4000 O.co2     2 ASP3        0.0000 
     30 NZ        152.0100  153.9000  153.4100 N.4       3 LYS4        0.0000 
     31 NZ        151.8300  155.4500  154.8500 N.4       3 LYS4        0.0000 
     32 NZ        152.9000  154.4600  154.4800 N.4       3 LYS4        0.0000 
     33 NZ        154.6800  155.5800  156.6200 N.4       3 LYS4        0.0000 
     34 NZ        154.1200  154.6000  157.6000 N.4       3 LYS4        0.0000 
     35 NZ        153.3800  155.1600  160.0300 N.4       3 LYS4        0.0000 
     36 NZ        152.8200  154.1800  161.0100 N.4       3 LYS4        0.0000 
     37 NZ        155.5800  156.1400  157.6800 N.4       3 LYS4        0.0000 
     38 NZ        155.0100  155.1600  158.6700 N.4       3 LYS4        0.0000 
     39 NZ        153.7100  154.7400  162.0800 N.4       3 LYS4        0.0000 
     40 NZ        154.6000  155.3000  163.1500 N.4       3 LYS4        0.0000 
     41 CZ        150.9600  152.7800  165.4000 C.ar      4 PHE5        0.0000 
     42 CZ        150.7800  154.3200  166.8500 C.ar      4 PHE5        0.0000 
     43 CZ        151.8500  153.3400  166.4700 C.ar      4 PHE5        0.0000 
     44 CZ        152.9100  152.3500  166.1000 C.ar      4 PHE5        0.0000 
     45 CZ        150.6100  155.8700  168.2900 C.ar      4 PHE5        0.0000 
     46 CZ        153.3000  154.8800  166.5600 C.ar      4 PHE5        0.0000 
     47 CA        149.8200  152.9200  155.7500 C.3       5 GLY6        0.0000 
     48 CA        151.4500  152.9200  154.3900 C.3       5 GLY6        0.0000 
     49 CA        151.2700  154.4600  155.8400 C.3       5 GLY6        0.0000 
     50 CA        150.7100  153.4800  156.8200 C.3       5 GLY6        0.0000 
     51 CA        152.3400  153.4800  155.4600 C.3       5 GLY6        0.0000 
     52 CA        149.4700  156.0100  158.6400 C.3       5 GLY6        0.0000 
     53 CA        148.9000  155.0300  159.6200 C.3       5 GLY6        0.0000 
     54 CA        153.2300  154.0400  156.5300 C.3       5 GLY6        0.0000 
     55 CA        149.7900  155.5900  160.6900 C.3       5 GLY6        0.0000 
     56 CA        150.3000  153.6200  161.3000 C.3       5 GLY6        0.0000 
     57 CA        150.6900  156.1500  161.7600 C.3       5 GLY6        0.0000 
     58 CA        153.1500  153.7600  163.0600 C.3       5 GLY6        0.0000 
     59 CA        152.5900  152.7700  164.0500 C.3       5 GLY6        0.0000 
     60 CA        153.5400  156.2800  163.5200 C.3       5 GLY6        0.0000 
     61 CA        152.9700  155.3000  164.5100 C.3       5 GLY6        0.0000 
     62 CA        154.0400  154.3200  164.1300 C.3       5 GLY6        0.0000 
     63 CA        153.4800  153.3300  165.1200 C.3       5 GLY6        0.0000 
     64 CA        153.8700  155.8600  165.5700 C.3       5 GLY6        0.0000 
     65 CA        154.9300  154.8700  165.2000 C.3       5 GLY6        0.0000 
     66 DU        152.1600  155.0200  156.9100 H         6 CUB7        0.0000 
     67 DU        153.0500  155.5800  157.9700 H         6 CUB7        0.0000 
     68 DU        151.7500  155.1600  161.3800 H         6 CUB7        0.0000 
     69 DU        152.6400  155.7200  162.4500 H         6 CUB7        0.0000 
     70 DU        152.0800  154.7400  163.4400 H         6 CUB7        0.0000 
     71 DU        152.4100  154.3200  165.4900 H         6 CUB7        0.0000 
@<TRIPOS>BOND
@<TRIPOS>SUBSTRUCTURE
     1 ALA2        1 GROUP   
     2 ASP3       22 GROUP   
     3 LYS4       30 GROUP   
     4 PHE5       41 GROUP   
     5 GLY6       47 GROUP   
     6 CUB7       66 GROUP   
@<TRIPOS>SET

