#    Name: 6nyy_1_ALA_ALA_ALA_ALA_ALA_ALA_ALA_ALA
#    Modification time : Fri May 22 19:26:39 2020

@<TRIPOS>MOLECULE
6nyy_1_ALA_ALA_ALA_ALA_ALA_ALA_ALA_ALA
   40    39     8     0     0
SMALL
NO_CHARGES


@<TRIPOS>ATOM
      1 N          93.7610  101.1390   62.0680 N.4       1 ALA1        0.0000 
      2 CA         95.0240  100.4240   61.9360 C.3       1 ALA1        0.0000 
      3 C          96.2010  101.3670   62.1500 C.2       1 ALA1        0.0000 
      4 O          96.5300  102.1750   61.2810 O.2       1 ALA1        0.0000 
      5 CB         95.1180   99.7550   60.5740 C.3       1 ALA1        0.0000 
      6 N          96.8280  101.2600   63.3170 N.am      2 ALA2        0.0000 
      7 CA         97.9570  102.1010   63.6850 C.3       2 ALA2        0.0000 
      8 C          99.2920  101.3790   63.5950 C.2       2 ALA2        0.0000 
      9 O         100.3130  101.9460   63.9960 O.2       2 ALA2        0.0000 
     10 CB         97.7680  102.6440   65.1040 C.3       2 ALA2        0.0000 
     11 N          99.3150  100.1510   63.0820 N.am      3 ALA3        0.0000 
     12 CA        100.5310   99.3510   63.1000 C.3       3 ALA3        0.0000 
     13 C         100.4830   98.3220   61.9830 C.2       3 ALA3        0.0000 
     14 O          99.5280   97.5450   61.8950 O.2       3 ALA3        0.0000 
     15 CB        100.7010   98.6560   64.4530 C.3       3 ALA3        0.0000 
     16 N         101.5090   98.3210   61.1390 N.am      4 ALA4        0.0000 
     17 CA        101.7210   97.2900   60.1350 C.3       4 ALA4        0.0000 
     18 C         103.0840   96.6470   60.3600 C.2       4 ALA4        0.0000 
     19 O         104.0210   97.2980   60.8300 O.2       4 ALA4        0.0000 
     20 CB        101.6320   97.8660   58.7190 C.3       4 ALA4        0.0000 
     21 N         103.1940   95.3640   60.0250 N.am      5 ALA5        0.0000 
     22 CA        104.3980   94.6080   60.3430 C.3       5 ALA5        0.0000 
     23 C         104.5260   93.4300   59.3860 C.2       5 ALA5        0.0000 
     24 O         103.6920   93.2240   58.4990 O.2       5 ALA5        0.0000 
     25 CB        104.3790   94.1360   61.8000 C.3       5 ALA5        0.0000 
     26 N         105.5970   92.6620   59.5750 N.am      6 ALA6        0.0000 
     27 CA        105.8400   91.4040   58.8730 C.3       6 ALA6        0.0000 
     28 C         105.8420   90.3110   59.9320 C.2       6 ALA6        0.0000 
     29 O         106.7910   90.2040   60.7130 O.2       6 ALA6        0.0000 
     30 CB        107.1570   91.4350   58.1090 C.3       6 ALA6        0.0000 
     31 N         104.7870   89.5010   59.9550 N.am      7 ALA7        0.0000 
     32 CA        104.5980   88.5230   61.0130 C.3       7 ALA7        0.0000 
     33 C         105.5660   87.3500   60.8600 C.2       7 ALA7        0.0000 
     34 O         106.2120   87.1640   59.8250 O.2       7 ALA7        0.0000 
     35 CB        103.1580   88.0180   61.0190 C.3       7 ALA7        0.0000 
     36 N         105.6580   86.5500   61.9170 N.am      8 ALA8        0.0000 
     37 CA        106.5200   85.3760   61.9190 C.3       8 ALA8        0.0000 
     38 C         105.8570   84.2230   61.1770 C.2       8 ALA8        0.0000 
     39 O         105.7330   84.2510   59.9530 O.2       8 ALA8        0.0000 
     40 CB        106.8580   84.9680   63.3420 C.3       8 ALA8        0.0000 
@<TRIPOS>BOND
     1    1    2 1    
     2    2    3 1    
     3    2    5 1    
     4    3    4 2    
     5    3    6 am   
     6    6    7 1    
     7    7    8 1    
     8    7   10 1    
     9    8    9 2    
    10    8   11 am   
    11   11   12 1    
    12   12   13 1    
    13   12   15 1    
    14   13   14 2    
    15   13   16 am   
    16   16   17 1    
    17   17   18 1    
    18   17   20 1    
    19   18   19 2    
    20   18   21 am   
    21   21   22 1    
    22   22   23 1    
    23   22   25 1    
    24   23   24 2    
    25   23   26 am   
    26   26   27 1    
    27   27   28 1    
    28   27   30 1    
    29   28   29 2    
    30   28   31 am   
    31   31   32 1    
    32   32   33 1    
    33   32   35 1    
    34   33   34 2    
    35   33   36 am   
    36   36   37 1    
    37   37   38 1    
    38   37   40 1    
    39   38   39 2    
@<TRIPOS>SUBSTRUCTURE
     1 ALA1        1 RESIDUE 
     2 ALA2        6 RESIDUE 
     3 ALA3       11 RESIDUE 
     4 ALA4       16 RESIDUE 
     5 ALA5       21 RESIDUE 
     6 ALA6       26 RESIDUE 
     7 ALA7       31 RESIDUE 
     8 ALA8       36 RESIDUE 
@<TRIPOS>SET

