#    Name: 6nyy_3_ANP
#    Modification time : Fri May 22 19:27:11 2020

@<TRIPOS>MOLECULE
6nyy_3_ANP
   31    33     1     0     1
SMALL
NO_CHARGES


@<TRIPOS>ATOM
      1 PG         84.3030   98.7440   81.8460 P.3       1 ANP801      0.0000 
      2 O1G        85.3030   97.6490   81.7190 O.co2     1 ANP801      0.0000 
      3 O2G        82.9170   98.2480   81.2970 O.co2     1 ANP801      0.0000 
      4 O3G        84.1590   99.1700   83.3570 O.co2     1 ANP801      0.0000 
      5 PB         84.9960  101.3910   81.9270 P.3       1 ANP801      0.0000 
      6 O1B        83.8590  101.4080   82.8800 O.co2     1 ANP801      0.0000 
      7 O2B        85.0300  102.6770   81.0600 O.co2     1 ANP801      0.0000 
      8 N3B        84.8280  100.0580   80.9390 N.3       1 ANP801      0.0000 
      9 PA         86.3470  102.3240   83.9940 P.3       1 ANP801      0.0000 
     10 O1A        86.5880  101.5700   85.2370 O.co2     1 ANP801      0.0000 
     11 O2A        85.0340  103.1020   83.9320 O.co2     1 ANP801      0.0000 
     12 O3A        86.3030  101.3590   82.7550 O.3       1 ANP801      0.0000 
     13 O5'        87.5810  103.2630   83.7780 O.3       1 ANP801      0.0000 
     14 C5'        88.8930  102.6970   83.8480 C.3       1 ANP801      0.0000 
     15 C4'        89.8930  103.8050   84.0180 C.3       1 ANP801      0.0000 
     16 O4'        89.9160  104.6140   82.8300 O.3       1 ANP801      0.0000 
     17 C3'        89.5810  104.7800   85.1400 C.3       1 ANP801      0.0000 
     18 O3'        90.1040  104.3050   86.3730 O.3       1 ANP801      0.0000 
     19 C2'        90.3080  106.0430   84.6900 C.3       1 ANP801      0.0000 
     20 O2'        91.6600  106.0210   85.1210 O.3       1 ANP801      0.0000 
     21 C1'        90.2440  105.9490   83.1620 C.3       1 ANP801      0.0000 
     22 N9         89.2540  106.8100   82.5310 N.pl3     1 ANP801      0.0000 
     23 C8         88.2560  106.3830   81.7000 C.2       1 ANP801      0.0000 
     24 N7         87.4970  107.3460   81.2410 N.2       1 ANP801      0.0000 
     25 C5         88.0330  108.4880   81.8070 C.ar      1 ANP801      0.0000 
     26 C6         87.6810  109.8430   81.7140 C.ar      1 ANP801      0.0000 
     27 N6         86.6570  110.2920   80.9870 N.pl3     1 ANP801      0.0000 
     28 N1         88.4270  110.7350   82.4020 N.ar      1 ANP801      0.0000 
     29 C2         89.4540  110.2880   83.1290 C.ar      1 ANP801      0.0000 
     30 N3         89.8800  109.0340   83.2910 N.ar      1 ANP801      0.0000 
     31 C4         89.1220  108.1740   82.6020 C.ar      1 ANP801      0.0000 
@<TRIPOS>BOND
     1    1    2 ar   
     2    1    3 ar   
     3    1    4 ar   
     4    1    8 1    
     5    5    6 ar   
     6    5    7 ar   
     7    5    8 1    
     8    5   12 1    
     9    9   10 ar   
    10    9   11 ar   
    11    9   12 1    
    12    9   13 1    
    13   13   14 1    
    14   14   15 1    
    15   15   16 1    
    16   15   17 1    
    17   16   21 1    
    18   17   18 1    
    19   17   19 1    
    20   19   20 1    
    21   19   21 1    
    22   21   22 1    
    23   22   23 1    
    24   22   31 1    
    25   23   24 2    
    26   24   25 1    
    27   25   26 ar   
    28   25   31 ar   
    29   26   27 1    
    30   26   28 ar   
    31   28   29 ar   
    32   29   30 ar   
    33   30   31 ar   
@<TRIPOS>SUBSTRUCTURE
     1 ANP801      1 GROUP   
@<TRIPOS>SET
ATOM$ORANGE STATIC     ATOMS   COLORGROUP SYSTEM 
20 14 14 15 15 17 17 19 19 21 21 23 23 25 25 26 26 29 \
29 31 31 

