#    Name: 6nyy_2_ANP
#    Modification time : Fri May 22 19:26:54 2020

@<TRIPOS>MOLECULE
6nyy_2_ANP
   31    33     1     0     1
SMALL
NO_CHARGES


@<TRIPOS>ATOM
      1 PG         42.6570   70.0430   85.6940 P.3       1 ANP801      0.0000 
      2 O1G        42.5400   70.8970   86.9090 O.co2     1 ANP801      0.0000 
      3 O2G        44.0140   70.3300   84.9560 O.co2     1 ANP801      0.0000 
      4 O3G        42.6150   68.5320   86.1320 O.co2     1 ANP801      0.0000 
      5 PB         40.0900   69.4040   85.0280 P.3       1 ANP801      0.0000 
      6 O1B        40.3600   68.7370   86.3270 O.co2     1 ANP801      0.0000 
      7 O2B        39.8520   68.3740   83.8930 O.co2     1 ANP801      0.0000 
      8 N3B        41.3880   70.3740   84.6400 N.3       1 ANP801      0.0000 
      9 PA         38.0030   70.1420   86.5170 P.3       1 ANP801      0.0000 
     10 O1A        38.7490   70.6490   87.6840 O.co2     1 ANP801      0.0000 
     11 O2A        37.6100   68.6730   86.6470 O.co2     1 ANP801      0.0000 
     12 O3A        38.8140   70.2650   85.1760 O.3       1 ANP801      0.0000 
     13 O5'        36.7650   71.0780   86.3300 O.3       1 ANP801      0.0000 
     14 C5'        36.5750   72.0990   87.3080 C.3       1 ANP801      0.0000 
     15 C4'        35.3080   72.8420   86.9950 C.3       1 ANP801      0.0000 
     16 O4'        34.9920   72.6950   85.5960 O.3       1 ANP801      0.0000 
     17 C3'        34.0800   72.3310   87.7320 C.3       1 ANP801      0.0000 
     18 O3'        33.9650   72.9410   89.0120 O.3       1 ANP801      0.0000 
     19 C2'        32.9490   72.7570   86.8040 C.3       1 ANP801      0.0000 
     20 O2'        32.5900   74.1140   87.0250 O.3       1 ANP801      0.0000 
     21 C1'        33.5900   72.6000   85.4220 C.3       1 ANP801      0.0000 
     22 N9         33.3060   71.3310   84.7630 N.pl3     1 ANP801      0.0000 
     23 C8         34.2290   70.4130   84.3420 C.2       1 ANP801      0.0000 
     24 N7         33.7050   69.3500   83.7810 N.2       1 ANP801      0.0000 
     25 C5         32.3430   69.5870   83.8360 C.ar      1 ANP801      0.0000 
     26 C6         31.2330   68.8410   83.4030 C.ar      1 ANP801      0.0000 
     27 N6         31.3270   67.6520   82.8050 N.pl3     1 ANP801      0.0000 
     28 N1         30.0050   69.3650   83.6070 N.ar      1 ANP801      0.0000 
     29 C2         29.9040   70.5500   84.2100 C.ar      1 ANP801      0.0000 
     30 N3         30.8770   71.3470   84.6520 N.ar      1 ANP801      0.0000 
     31 C4         32.0810   70.8080   84.4310 C.ar      1 ANP801      0.0000 
@<TRIPOS>BOND
     1    1    2 ar   
     2    1    3 ar   
     3    1    4 ar   
     4    1    8 1    
     5    5    6 ar   
     6    5    7 ar   
     7    5    8 1    
     8    5   12 1    
     9    9   10 ar   
    10    9   11 ar   
    11    9   12 1    
    12    9   13 1    
    13   13   14 1    
    14   14   15 1    
    15   15   16 1    
    16   15   17 1    
    17   16   21 1    
    18   17   18 1    
    19   17   19 1    
    20   19   20 1    
    21   19   21 1    
    22   21   22 1    
    23   22   23 1    
    24   22   31 1    
    25   23   24 2    
    26   24   25 1    
    27   25   26 ar   
    28   25   31 ar   
    29   26   27 1    
    30   26   28 ar   
    31   28   29 ar   
    32   29   30 ar   
    33   30   31 ar   
@<TRIPOS>SUBSTRUCTURE
     1 ANP801      1 GROUP   
@<TRIPOS>SET
ATOM$ORANGE STATIC     ATOMS   COLORGROUP SYSTEM 
20 14 14 15 15 17 17 19 19 21 21 23 23 25 25 26 26 29 \
29 31 31 

