#    Name: 6dh8_1_A60
#    Modification time : Fri May 22 19:23:26 2020

@<TRIPOS>MOLECULE
6dh8_1_A60
   81    84     1     0     0
SMALL
NO_CHARGES


@<TRIPOS>ATOM
      1 N1         66.0040  107.8010   13.1210 N.pl3     1 A60105      0.0000 
      2 C2         66.8780  108.5350   13.9950 C.ar      1 A60105      0.0000 
      3 C3         66.6470  110.0530   14.2160 C.ar      1 A60105      0.0000 
      4 C4         67.5730  110.8280   15.1420 C.ar      1 A60105      0.0000 
      5 C5         68.7160  110.0960   15.8570 C.ar      1 A60105      0.0000 
      6 C6         68.9520  108.5940   15.6410 C.ar      1 A60105      0.0000 
      7 C7         68.0180  107.8130   14.7050 C.ar      1 A60105      0.0000 
      8 S8         69.8400  111.0420   16.9540 S.o2      1 A60105      0.0000 
      9 O9         69.2200  112.2580   17.4650 O.2       1 A60105      0.0000 
     10 O10        70.2390  110.2730   18.1200 O.2       1 A60105      0.0000 
     11 N11        71.2060  111.3730   15.9810 N.pl3     1 A60105      0.0000 
     12 C12        71.9300  110.1840   15.5240 C.3       1 A60105      0.0000 
     13 C13        73.5060  110.4330   15.5280 C.3       1 A60105      0.0000 
     14 C14        74.2240  109.1200   15.0820 C.3       1 A60105      0.0000 
     15 C15        73.9620  110.7990   16.9590 C.3       1 A60105      0.0000 
     16 C16        71.0600  112.5160   15.0230 C.3       1 A60105      0.0000 
     17 C17        72.0190  113.6820   15.4420 C.3       1 A60105      0.0000 
     18 C18        75.4340  111.3140   16.9340 C.3       1 A60105      0.0000 
     19 O18        71.9610  114.6910   14.5030 O.3       1 A60105      0.0000 
     20 C19        71.6010  114.2250   16.8080 C.3       1 A60105      0.0000 
     21 C20        74.0460  108.9020   13.5650 C.3       1 A60105      0.0000 
     22 N20        72.6280  115.1840   17.2480 N.am      1 A60105      0.0000 
     23 C21        73.6600  114.8170   18.2700 C.2       1 A60105      0.0000 
     24 O22        73.5830  113.8370   18.9320 O.2       1 A60105      0.0000 
     25 O23        74.7460  115.7300   18.3980 O.3       1 A60105      0.0000 
     26 C24        75.5990  115.6420   19.6400 C.3       1 A60105      0.0000 
     27 C25        76.7780  115.9860   19.3250 C.3       1 A60105      0.0000 
     28 O26        76.6810  117.6160   19.1920 O.3       1 A60105      0.0000 
     29 C27        75.8690  117.9970   20.1240 C.3       1 A60105      0.0000 
     30 O28        74.7120  118.9100   19.5560 O.3       1 A60105      0.0000 
     31 C29        73.6290  118.1690   19.5080 C.3       1 A60105      0.0000 
     32 C30        73.8380  117.0070   20.6300 C.3       1 A60105      0.0000 
     33 C31        75.1640  116.7410   20.6580 C.3       1 A60105      0.0000 
     34 C32        70.3010  114.9920   16.7440 C.3       1 A60105      0.0000 
     35 C33        69.7240  114.7420   19.3380 C.ar      1 A60105      0.0000 
     36 C34        69.4820  115.3750   20.7250 C.ar      1 A60105      0.0000 
     37 C35        69.5750  116.9140   20.9070 C.ar      1 A60105      0.0000 
     38 C36        69.9100  117.8080   19.7050 C.ar      1 A60105      0.0000 
     39 C37        70.1500  117.1770   18.3200 C.ar      1 A60105      0.0000 
     40 C38        70.0530  115.6380   18.1360 C.ar      1 A60105      0.0000 
     41 HN1        65.1520  107.9110   13.1730 H         1 A60105      0.0000 
     42 HN1A       66.3320  107.2530   12.5450 H         1 A60105      0.0000 
     43 H3         65.9490  110.4880   13.7810 H         1 A60105      0.0000 
     44 H4         67.4440  111.7390   15.2760 H         1 A60105      0.0000 
     45 H6         69.6530  108.1620   16.0730 H         1 A60105      0.0000 
     46 H7         68.1490  106.9020   14.5690 H         1 A60105      0.0000 
     47 H12        71.6450  109.9660   14.6230 H         1 A60105      0.0000 
     48 H12A       71.7240  109.4400   16.1120 H         1 A60105      0.0000 
     49 H13        73.7280  111.1540   14.9170 H         1 A60105      0.0000 
     50 H14        73.8440  108.3680   15.5610 H         1 A60105      0.0000 
     51 H14A       75.1700  109.1870   15.2860 H         1 A60105      0.0000 
     52 H15        73.9060  110.0130   17.5250 H         1 A60105      0.0000 
     53 H15A       73.3850  111.4930   17.3140 H         1 A60105      0.0000 
     54 H16        71.2880  112.2190   14.1280 H         1 A60105      0.0000 
     55 H16A       70.1430  112.8320   15.0350 H         1 A60105      0.0000 
     56 H17        72.9270  113.3460   15.4960 H         1 A60105      0.0000 
     57 H18        75.4850  112.1220   16.3990 H         1 A60105      0.0000 
     58 H18A       76.0080  110.6340   16.5480 H         1 A60105      0.0000 
     59 H18B       75.7250  111.5080   17.8390 H         1 A60105      0.0000 
     60 HO18       72.0850  114.3640   13.7280 H         1 A60105      0.0000 
     61 H19        71.5280  113.5000   17.4480 H         1 A60105      0.0000 
     62 H20        73.1990  109.2810   13.2820 H         1 A60105      0.0000 
     63 H20A       74.7710  109.3360   13.0880 H         1 A60105      0.0000 
     64 H20B       74.0570  107.9510   13.3730 H         1 A60105      0.0000 
     65 HN20       72.6360  115.9740   16.9100 H         1 A60105      0.0000 
     66 H24        75.5790  114.7570   20.0360 H         1 A60105      0.0000 
     67 H25        77.4140  115.7360   20.0140 H         1 A60105      0.0000 
     68 H25A       77.0260  115.5940   18.4730 H         1 A60105      0.0000 
     69 H27        76.3490  118.4500   20.8360 H         1 A60105      0.0000 
     70 H29        72.8480  118.7030   19.7210 H         1 A60105      0.0000 
     71 H29A       73.5400  117.7690   18.6290 H         1 A60105      0.0000 
     72 H30        73.3440  116.2100   20.3800 H         1 A60105      0.0000 
     73 H30A       73.5470  117.3280   21.4970 H         1 A60105      0.0000 
     74 H31        75.4620  116.5280   21.5560 H         1 A60105      0.0000 
     75 H32        69.5740  114.3880   16.5290 H         1 A60105      0.0000 
     76 H32A       70.3620  115.6850   16.0670 H         1 A60105      0.0000 
     77 H33        69.6670  113.8200   19.2310 H         1 A60105      0.0000 
     78 H34        69.2800  114.8330   21.4530 H         1 A60105      0.0000 
     79 H35        69.4290  117.2940   21.7440 H         1 A60105      0.0000 
     80 H36        69.9650  118.7300   19.8130 H         1 A60105      0.0000 
     81 H37        70.3520  117.7190   17.5920 H         1 A60105      0.0000 
@<TRIPOS>BOND
     1    1    2 1    
     2    2    3 ar   
     3    1   41 1    
     4    1   42 1    
     5    2    7 ar   
     6    3    4 ar   
     7    4    5 ar   
     8    3   43 1    
     9    5    6 ar   
    10    4   44 1    
    11    5    8 1    
    12    6    7 ar   
    13    8    9 2    
    14    6   45 1    
    15    7   46 1    
    16    8   10 2    
    17    8   11 1    
    18   11   12 1    
    19   11   16 1    
    20   12   13 1    
    21   12   47 1    
    22   12   48 1    
    23   13   14 1    
    24   13   15 1    
    25   13   49 1    
    26   14   21 1    
    27   14   50 1    
    28   14   51 1    
    29   15   18 1    
    30   15   52 1    
    31   15   53 1    
    32   16   17 1    
    33   16   54 1    
    34   16   55 1    
    35   17   19 1    
    36   17   20 1    
    37   17   56 1    
    38   19   60 1    
    39   18   57 1    
    40   18   58 1    
    41   18   59 1    
    42   20   22 1    
    43   20   34 1    
    44   20   61 1    
    45   21   62 1    
    46   21   63 1    
    47   21   64 1    
    48   22   23 am   
    49   23   24 2    
    50   22   65 1    
    51   23   25 1    
    52   25   26 1    
    53   26   27 1    
    54   26   33 1    
    55   26   66 1    
    56   27   67 1    
    57   27   68 1    
    58   27   28 1    
    59   28   29 1    
    60   29   30 1    
    61   29   33 1    
    62   29   69 1    
    63   30   31 1    
    64   31   32 1    
    65   31   70 1    
    66   31   71 1    
    67   32   33 1    
    68   32   72 1    
    69   32   73 1    
    70   33   74 1    
    71   34   40 1    
    72   34   75 1    
    73   34   76 1    
    74   35   36 ar   
    75   35   40 ar   
    76   36   37 ar   
    77   35   77 1    
    78   37   38 ar   
    79   36   78 1    
    80   38   39 ar   
    81   37   79 1    
    82   39   40 ar   
    83   38   80 1    
    84   39   81 1    
@<TRIPOS>SUBSTRUCTURE
     1 A60105      1 GROUP   
@<TRIPOS>SET

