#    Name: 6j0p_1_COA
#    Modification time : Fri May 22 19:32:18 2020

@<TRIPOS>MOLECULE
6j0p_1_COA
   48    50     1     0     1
SMALL
NO_CHARGES


@<TRIPOS>ATOM
      1 N1A       -17.1550  -22.8380   12.1320 N.ar      1 COA601      0.0000 
      2 C2A       -15.8870  -22.5340   11.7230 C.ar      1 COA601      0.0000 
      3 N3A       -15.2060  -21.4710   12.2940 N.ar      1 COA601      0.0000 
      4 C4A       -15.8230  -20.7390   13.2770 C.ar      1 COA601      0.0000 
      5 C5A       -17.0600  -21.0440   13.6850 C.ar      1 COA601      0.0000 
      6 C6A       -17.7380  -22.1260   13.1090 C.ar      1 COA601      0.0000 
      7 N6A       -19.0380  -22.6060   13.4420 N.pl3     1 COA601      0.0000 
      8 N7A       -17.4350  -20.1640   14.6500 N.2       1 COA601      0.0000 
      9 C8A       -16.4070  -19.3240   14.8320 C.2       1 COA601      0.0000 
     10 N9A       -15.4240  -19.6630   13.9780 N.pl3     1 COA601      0.0000 
     11 C1B       -14.1230  -19.0650   13.8000 C.3       1 COA601      0.0000 
     12 C2B       -14.1500  -17.8350   13.2640 C.3       1 COA601      0.0000 
     13 O2B       -14.0370  -17.9190   11.8310 O.3       1 COA601      0.0000 
     14 C3B       -12.8470  -17.2080   13.8380 C.3       1 COA601      0.0000 
     15 O3B       -11.8480  -17.7680   13.1280 O.3       1 COA601      0.0000 
     16 P3B       -10.2550  -17.2090   13.1390 P.3       1 COA601      0.0000 
     17 O7A        -9.9410  -16.5210   14.4550 O.co2     1 COA601      0.0000 
     18 O8A        -9.3600  -18.4680   12.9620 O.co2     1 COA601      0.0000 
     19 O9A       -10.0250  -16.2350   12.0410 O.co2     1 COA601      0.0000 
     20 C4B       -12.8180  -17.7570   15.3030 C.3       1 COA601      0.0000 
     21 O4B       -13.5890  -18.8420   15.3030 O.3       1 COA601      0.0000 
     22 C5B       -13.3700  -16.7590   16.2990 C.3       1 COA601      0.0000 
     23 O5B       -14.6940  -16.4930   15.9280 O.3       1 COA601      0.0000 
     24 P1A       -15.2670  -14.9550   15.7680 P.3       1 COA601      0.0000 
     25 O1A       -16.3080  -14.7900   14.6970 O.co2     1 COA601      0.0000 
     26 O2A       -14.1370  -13.9640   15.5910 O.co2     1 COA601      0.0000 
     27 O3A       -15.8850  -14.7230   17.2560 O.3       1 COA601      0.0000 
     28 P2A       -17.0140  -13.5170   17.6130 P.3       1 COA601      0.0000 
     29 O4A       -17.0820  -13.4730   19.1170 O.co2     1 COA601      0.0000 
     30 O5A       -16.6590  -12.2350   16.8730 O.co2     1 COA601      0.0000 
     31 O6A       -18.4760  -14.0320   17.0310 O.3       1 COA601      0.0000 
     32 CBP       -20.0820  -15.7370   16.7050 C.3       1 COA601      0.0000 
     33 CCP       -19.0000  -15.2070   17.6460 C.3       1 COA601      0.0000 
     34 CDP       -20.6810  -16.9730   17.2980 C.3       1 COA601      0.0000 
     35 CEP       -21.1540  -14.6730   16.5580 C.3       1 COA601      0.0000 
     36 CAP       -19.4130  -15.9910   15.3240 C.3       1 COA601      0.0000 
     37 OAP       -18.2090  -16.6450   15.4710 O.3       1 COA601      0.0000 
     38 C9P       -20.3150  -16.9130   14.4550 C.2       1 COA601      0.0000 
     39 O9P       -21.2950  -16.4690   13.8950 O.2       1 COA601      0.0000 
     40 N8P       -19.9130  -18.3700   14.3280 N.am      1 COA601      0.0000 
     41 C7P       -20.7430  -19.3210   13.4840 C.3       1 COA601      0.0000 
     42 C6P       -21.7300  -20.1120   14.3490 C.3       1 COA601      0.0000 
     43 C5P       -22.4860  -20.9110   13.2770 C.2       1 COA601      0.0000 
     44 O5P       -23.1110  -20.2870   12.4680 O.2       1 COA601      0.0000 
     45 N4P       -22.3790  -22.3310   13.2240 N.am      1 COA601      0.0000 
     46 C3P       -23.0440  -23.1050   12.1710 C.3       1 COA601      0.0000 
     47 C2P       -24.5560  -23.3670   12.4550 C.3       1 COA601      0.0000 
     48 S1P       -24.7430  -24.6140   13.8230 S.3       1 COA601      0.0000 
@<TRIPOS>BOND
     1    1    2 ar   
     2    1    6 ar   
     3    2    3 ar   
     4    3    4 ar   
     5    4    5 ar   
     6    4   10 1    
     7    5    6 ar   
     8    5    8 1    
     9    6    7 1    
    10    8    9 2    
    11    9   10 1    
    12   10   11 1    
    13   11   12 1    
    14   11   21 1    
    15   12   13 1    
    16   12   14 1    
    17   14   15 1    
    18   14   20 1    
    19   15   16 1    
    20   16   17 ar   
    21   16   18 ar   
    22   16   19 ar   
    23   20   21 1    
    24   20   22 1    
    25   22   23 1    
    26   23   24 1    
    27   24   25 ar   
    28   24   26 ar   
    29   24   27 1    
    30   27   28 1    
    31   28   29 ar   
    32   28   30 ar   
    33   28   31 1    
    34   31   33 1    
    35   32   33 1    
    36   32   34 1    
    37   32   35 1    
    38   32   36 1    
    39   36   37 1    
    40   36   38 1    
    41   38   39 2    
    42   38   40 am   
    43   40   41 1    
    44   41   42 1    
    45   42   43 1    
    46   43   44 2    
    47   43   45 am   
    48   45   46 1    
    49   46   47 1    
    50   47   48 1    
@<TRIPOS>SUBSTRUCTURE
     1 COA601      1 GROUP   
@<TRIPOS>SET
ATOM$ORANGE STATIC     ATOMS   COLORGROUP SYSTEM 
42 2 2 4 4 5 5 6 6 9 9 11 11 12 12 14 14 20 \
20 22 22 32 32 33 33 34 34 35 35 36 36 38 38 41 41 42 \
42 43 43 46 46 47 47 

