#    Name: 6j0p_2_COA
#    Modification time : Fri May 22 19:32:27 2020

@<TRIPOS>MOLECULE
6j0p_2_COA
   48    50     1     0     1
SMALL
NO_CHARGES


@<TRIPOS>ATOM
      1 N1A        13.2520   -8.1780   51.3890 N.ar      1 COA601      0.0000 
      2 C2A        13.4860   -6.9070   51.8130 C.ar      1 COA601      0.0000 
      3 N3A        14.1360   -6.7010   53.0000 N.ar      1 COA601      0.0000 
      4 C4A        14.5290   -7.7680   53.7610 C.ar      1 COA601      0.0000 
      5 C5A        14.2900   -9.0120   53.3440 C.ar      1 COA601      0.0000 
      6 C6A        13.6480   -9.2110   52.1200 C.ar      1 COA601      0.0000 
      7 N6A        13.3240  -10.4470   51.5010 N.pl3     1 COA601      0.0000 
      8 N7A        14.7770   -9.8840   54.2600 N.2       1 COA601      0.0000 
      9 C8A        15.3140   -9.1570   55.2580 C.2       1 COA601      0.0000 
     10 N9A        15.1610   -7.8540   54.9560 N.pl3     1 COA601      0.0000 
     11 C1B        15.5680   -6.6930   55.7090 C.3       1 COA601      0.0000 
     12 C2B        14.9000   -6.5680   56.8610 C.3       1 COA601      0.0000 
     13 O2B        13.6940   -5.8070   56.6820 O.3       1 COA601      0.0000 
     14 C3B        15.8890   -5.7620   57.7430 C.3       1 COA601      0.0000 
     15 O3B        15.8380   -4.5010   57.3010 O.3       1 COA601      0.0000 
     16 P3B        16.4140   -3.1840   58.1940 P.3       1 COA601      0.0000 
     17 O7A        17.6110   -3.5750   59.0320 O.co2     1 COA601      0.0000 
     18 O8A        16.8110   -2.1080   57.1660 O.co2     1 COA601      0.0000 
     19 O9A        15.3130   -2.7180   59.1060 O.co2     1 COA601      0.0000 
     20 C4B        17.2850   -6.3520   57.3310 C.3       1 COA601      0.0000 
     21 O4B        17.1020   -6.9680   56.1670 O.3       1 COA601      0.0000 
     22 C5B        17.7370   -7.3560   58.3670 C.3       1 COA601      0.0000 
     23 O5B        16.7860   -8.3830   58.3430 O.3       1 COA601      0.0000 
     24 P1A        16.0890   -8.8610   59.7580 P.3       1 COA601      0.0000 
     25 O1A        14.6390   -9.2480   59.5910 O.co2     1 COA601      0.0000 
     26 O2A        16.2740   -7.7790   60.7810 O.co2     1 COA601      0.0000 
     27 O3A        16.9910  -10.1600   60.1650 O.3       1 COA601      0.0000 
     28 P2A        16.4430  -11.4020   61.1570 P.3       1 COA601      0.0000 
     29 O4A        17.6720  -12.2430   61.4330 O.co2     1 COA601      0.0000 
     30 O5A        15.8170  -10.8030   62.3880 O.co2     1 COA601      0.0000 
     31 O6A        15.3300  -12.3320   60.3690 O.3       1 COA601      0.0000 
     32 CBP        14.4930  -13.4110   58.4460 C.3       1 COA601      0.0000 
     33 CCP        15.7600  -12.9870   59.1790 C.3       1 COA601      0.0000 
     34 CDP        14.8660  -14.1390   57.1890 C.3       1 COA601      0.0000 
     35 CEP        13.6920  -14.2960   59.3760 C.3       1 COA601      0.0000 
     36 CAP        13.6720  -12.1460   58.1290 C.3       1 COA601      0.0000 
     37 OAP        14.5050  -11.1680   57.6580 O.3       1 COA601      0.0000 
     38 C9P        12.6350  -12.4510   57.0130 C.2       1 COA601      0.0000 
     39 O9P        11.6440  -13.1360   57.2250 O.2       1 COA601      0.0000 
     40 N8P        12.9010  -11.8620   55.6470 N.am      1 COA601      0.0000 
     41 C7P        11.9040  -12.1190   54.5360 C.3       1 COA601      0.0000 
     42 C6P        12.3320  -13.2650   53.6180 C.3       1 COA601      0.0000 
     43 C5P        11.1690  -13.3220   52.6080 C.2       1 COA601      0.0000 
     44 O5P        10.0670  -13.5010   53.0310 O.2       1 COA601      0.0000 
     45 N4P        11.4020  -13.1100   51.2290 N.am      1 COA601      0.0000 
     46 C3P        10.3080  -13.1380   50.2570 C.3       1 COA601      0.0000 
     47 C2P         9.9330  -14.6100   49.8680 C.3       1 COA601      0.0000 
     48 S1P        11.2360  -15.3930   48.7980 S.3       1 COA601      0.0000 
@<TRIPOS>BOND
     1    1    2 ar   
     2    1    6 ar   
     3    2    3 ar   
     4    3    4 ar   
     5    4    5 ar   
     6    4   10 1    
     7    5    6 ar   
     8    5    8 1    
     9    6    7 1    
    10    8    9 2    
    11    9   10 1    
    12   10   11 1    
    13   11   12 1    
    14   11   21 1    
    15   12   13 1    
    16   12   14 1    
    17   14   15 1    
    18   14   20 1    
    19   15   16 1    
    20   16   17 ar   
    21   16   18 ar   
    22   16   19 ar   
    23   20   21 1    
    24   20   22 1    
    25   22   23 1    
    26   23   24 1    
    27   24   25 ar   
    28   24   26 ar   
    29   24   27 1    
    30   27   28 1    
    31   28   29 ar   
    32   28   30 ar   
    33   28   31 1    
    34   31   33 1    
    35   32   33 1    
    36   32   34 1    
    37   32   35 1    
    38   32   36 1    
    39   36   37 1    
    40   36   38 1    
    41   38   39 2    
    42   38   40 am   
    43   40   41 1    
    44   41   42 1    
    45   42   43 1    
    46   43   44 2    
    47   43   45 am   
    48   45   46 1    
    49   46   47 1    
    50   47   48 1    
@<TRIPOS>SUBSTRUCTURE
     1 COA601      1 GROUP   
@<TRIPOS>SET
ATOM$ORANGE STATIC     ATOMS   COLORGROUP SYSTEM 
42 2 2 4 4 5 5 6 6 9 9 11 11 12 12 14 14 20 \
20 22 22 32 32 33 33 34 34 35 35 36 36 38 38 41 41 42 \
42 43 43 46 46 47 47 

