#    Name: 6g0a_1_DTP_CAVITY_N1_ALL
#    Modification time : Fri May 22 19:27:57 2020

@<TRIPOS>MOLECULE
6g0a_1_DTP_CAVITY_N1_ALL
  107     0     7     0     0
SMALL
NO_CHARGES


@<TRIPOS>ATOM
      1 OG        -47.7200  -53.0800  175.7000 O.3       1 SER1        0.0000 
      2 N         -47.0700  -59.1500  174.7000 N.am      2 ALA2        0.0000 
      3 O         -47.8300  -57.2700  174.0600 O.2       2 ALA2        0.0000 
      4 O         -46.7400  -58.1900  173.5900 O.2       2 ALA2        0.0000 
      5 O         -46.4100  -57.2300  172.4900 O.2       2 ALA2        0.0000 
      6 O         -46.0800  -56.2700  171.3900 O.2       2 ALA2        0.0000 
      7 O         -44.9900  -57.1900  170.9100 O.2       2 ALA2        0.0000 
      8 N         -45.7400  -55.3100  170.2800 N.am      2 ALA2        0.0000 
      9 N         -46.1000  -58.4500  175.6000 N.am      2 ALA2        0.0000 
     10 O         -47.9400  -55.6500  175.4300 O.2       2 ALA2        0.0000 
     11 O         -46.8500  -56.5700  174.9600 O.2       2 ALA2        0.0000 
     12 O         -47.6100  -54.6900  174.3300 O.2       2 ALA2        0.0000 
     13 O         -46.5200  -55.6100  173.8600 O.2       2 ALA2        0.0000 
     14 O         -45.4300  -56.5300  173.3900 O.2       2 ALA2        0.0000 
     15 O         -46.1900  -54.6500  172.7600 O.2       2 ALA2        0.0000 
     16 O         -45.1000  -55.5700  172.2900 O.2       2 ALA2        0.0000 
     17 O         -44.0100  -56.4900  171.8100 O.2       2 ALA2        0.0000 
     18 O         -45.8500  -53.6900  171.6500 O.2       2 ALA2        0.0000 
     19 O         -44.7700  -54.6100  171.1800 O.2       2 ALA2        0.0000 
     20 O         -44.2100  -51.0800  170.3400 O.2       2 ALA2        0.0000 
     21 O         -46.8100  -46.4000  169.5500 O.2       2 ALA2        0.0000 
     22 O         -46.1700  -46.6700  171.5500 O.2       2 ALA2        0.0000 
     23 O         -45.8300  -45.7100  170.4500 O.2       2 ALA2        0.0000 
     24 O         -46.2800  -45.0500  172.9200 O.2       2 ALA2        0.0000 
     25 OD1       -46.6100  -51.8200  171.0200 O.co2     3 ASP3        0.0000 
     26 OD1       -45.2100  -53.9600  173.6600 O.co2     3 ASP3        0.0000 
     27 OD1       -44.1200  -54.8800  173.1900 O.co2     3 ASP3        0.0000 
     28 OD1       -44.8800  -53.0000  172.5500 O.co2     3 ASP3        0.0000 
     29 OD1       -43.7900  -53.9200  172.0800 O.co2     3 ASP3        0.0000 
     30 OD1       -45.6300  -51.1200  171.9200 O.co2     3 ASP3        0.0000 
     31 OD1       -46.3900  -49.2400  171.2900 O.co2     3 ASP3        0.0000 
     32 OD1       -45.3000  -50.1600  170.8200 O.co2     3 ASP3        0.0000 
     33 OD1       -44.9700  -49.2000  169.7100 O.co2     3 ASP3        0.0000 
     34 OD1       -45.7200  -47.3200  169.0800 O.co2     3 ASP3        0.0000 
     35 OD1       -45.3200  -52.3400  175.0300 O.co2     3 ASP3        0.0000 
     36 OD1       -44.2300  -53.2600  174.5600 O.co2     3 ASP3        0.0000 
     37 OD1       -44.9900  -51.3800  173.9200 O.co2     3 ASP3        0.0000 
     38 OD1       -45.7400  -49.5000  173.2900 O.co2     3 ASP3        0.0000 
     39 OD1       -44.6500  -50.4200  172.8200 O.co2     3 ASP3        0.0000 
     40 OD1       -46.5000  -47.6300  172.6600 O.co2     3 ASP3        0.0000 
     41 OD1       -45.4100  -48.5400  172.1900 O.co2     3 ASP3        0.0000 
     42 OD1       -44.3200  -49.4600  171.7200 O.co2     3 ASP3        0.0000 
     43 OD1       -45.0800  -47.5800  171.0800 O.co2     3 ASP3        0.0000 
     44 OD1       -43.9900  -48.5000  170.6100 O.co2     3 ASP3        0.0000 
     45 OD1       -45.4300  -50.7300  176.4000 O.co2     3 ASP3        0.0000 
     46 OD1       -46.1900  -48.8500  175.7600 O.co2     3 ASP3        0.0000 
     47 OD1       -45.1000  -49.7700  175.2900 O.co2     3 ASP3        0.0000 
     48 OD1       -44.0100  -50.6900  174.8200 O.co2     3 ASP3        0.0000 
     49 OD1       -44.7700  -48.8100  174.1900 O.co2     3 ASP3        0.0000 
     50 NZ        -43.1400  -54.1800  174.0900 N.4       4 LYS4        0.0000 
     51 NZ        -43.6600  -47.5400  169.5100 N.4       4 LYS4        0.0000 
     52 NZ        -43.3200  -46.5800  168.4000 N.4       4 LYS4        0.0000 
     53 NZ        -42.2400  -47.5000  167.9300 N.4       4 LYS4        0.0000 
     54 NZ        -44.4300  -47.8500  173.0900 N.4       4 LYS4        0.0000 
     55 NZ        -43.3400  -48.7700  172.6200 N.4       4 LYS4        0.0000 
     56 NZ        -43.0100  -47.8100  171.5100 N.4       4 LYS4        0.0000 
     57 NZ        -41.9200  -48.7300  171.0400 N.4       4 LYS4        0.0000 
     58 NZ        -42.6800  -46.8500  170.4100 N.4       4 LYS4        0.0000 
     59 NZ        -41.5900  -47.7700  169.9400 N.4       4 LYS4        0.0000 
     60 NZ        -43.4300  -44.9700  169.7800 N.4       4 LYS4        0.0000 
     61 NZ        -43.4600  -47.1500  173.9900 N.4       4 LYS4        0.0000 
     62 NZ        -43.1200  -46.1900  172.8800 N.4       4 LYS4        0.0000 
     63 NZ        -42.0300  -47.1100  172.4100 N.4       4 LYS4        0.0000 
     64 NZ        -42.7900  -45.2300  171.7800 N.4       4 LYS4        0.0000 
     65 NZ        -41.7000  -46.1500  171.3100 N.4       4 LYS4        0.0000 
     66 NZ        -42.4600  -44.2700  170.6800 N.4       4 LYS4        0.0000 
     67 NZ        -43.2300  -44.5800  174.2500 N.4       4 LYS4        0.0000 
     68 CZ        -48.0500  -59.8400  173.8000 C.ar      5 PHE5        0.0000 
     69 CZ        -45.9900  -60.0700  174.2300 C.ar      5 PHE5        0.0000 
     70 CZ        -45.6500  -59.1100  173.1200 C.ar      5 PHE5        0.0000 
     71 CZ        -45.3200  -58.1500  172.0200 C.ar      5 PHE5        0.0000 
     72 CZ        -45.0100  -59.3700  175.1300 C.ar      5 PHE5        0.0000 
     73 CZ        -44.6800  -58.4100  174.0200 C.ar      5 PHE5        0.0000 
     74 CZ        -44.3400  -57.4500  172.9200 C.ar      5 PHE5        0.0000 
     75 CA        -49.1400  -58.9300  174.2700 C.3       6 GLY6        0.0000 
     76 CA        -47.7200  -58.8800  172.6900 C.3       6 GLY6        0.0000 
     77 CA        -45.7600  -57.4900  174.4900 C.3       6 GLY6        0.0000 
     78 CA        -47.2800  -53.7400  173.2300 C.3       6 GLY6        0.0000 
     79 CA        -46.9400  -52.7800  172.1200 C.3       6 GLY6        0.0000 
     80 CA        -45.5200  -52.7300  170.5500 C.3       6 GLY6        0.0000 
     81 CA        -44.7900  -56.8000  175.3900 C.3       6 GLY6        0.0000 
     82 CA        -43.7000  -57.7100  174.9200 C.3       6 GLY6        0.0000 
     83 CA        -46.6300  -54.0000  175.2300 C.3       6 GLY6        0.0000 
     84 CA        -45.5400  -54.9200  174.7600 C.3       6 GLY6        0.0000 
     85 CA        -44.4500  -55.8400  174.2900 C.3       6 GLY6        0.0000 
     86 CA        -43.3700  -56.7500  173.8200 C.3       6 GLY6        0.0000 
     87 CA        -46.3000  -53.0400  174.1300 C.3       6 GLY6        0.0000 
     88 CA        -43.0300  -55.8000  172.7100 C.3       6 GLY6        0.0000 
     89 CA        -45.9600  -52.0800  173.0200 C.3       6 GLY6        0.0000 
     90 CA        -44.6300  -48.2400  168.6100 C.3       6 GLY6        0.0000 
     91 CA        -43.5500  -49.1600  168.1400 C.3       6 GLY6        0.0000 
     92 CA        -45.3900  -46.3600  167.9800 C.3       6 GLY6        0.0000 
     93 CA        -44.3000  -47.2800  167.5000 C.3       6 GLY6        0.0000 
     94 CA        -43.4800  -55.1400  175.1900 C.3       6 GLY6        0.0000 
     95 CA        -42.9000  -49.4200  170.1400 C.3       6 GLY6        0.0000 
     96 CA        -42.5700  -48.4600  169.0400 C.3       6 GLY6        0.0000 
     97 CA        -45.5000  -44.7500  169.3500 C.3       6 GLY6        0.0000 
     98 CA        -44.4100  -45.6700  168.8800 C.3       6 GLY6        0.0000 
     99 CA        -44.3400  -51.6500  175.9300 C.3       6 GLY6        0.0000 
    100 DU        -44.7400  -46.6300  169.9800 H         7 CUB7        0.0000 
    101 DU        -45.5200  -46.9300  173.5600 H         7 CUB7        0.0000 
    102 DU        -45.1900  -45.9700  172.4500 H         7 CUB7        0.0000 
    103 DU        -44.1000  -46.8900  171.9800 H         7 CUB7        0.0000 
    104 DU        -44.8600  -45.0100  171.3500 H         7 CUB7        0.0000 
    105 DU        -43.7700  -45.9300  170.8800 H         7 CUB7        0.0000 
    106 DU        -45.6300  -45.3100  174.9300 H         7 CUB7        0.0000 
    107 DU        -44.2100  -45.2700  173.3500 H         7 CUB7        0.0000 
@<TRIPOS>BOND
@<TRIPOS>SUBSTRUCTURE
     1 SER1        1 GROUP   
     2 ALA2        2 GROUP   
     3 ASP3       25 GROUP   
     4 LYS4       50 GROUP   
     5 PHE5       68 GROUP   
     6 GLY6       75 GROUP   
     7 CUB7      100 GROUP   
@<TRIPOS>SET

