#    Name: 6g0a_1_DTP
#    Modification time : Fri May 22 19:27:55 2020

@<TRIPOS>MOLECULE
6g0a_1_DTP
   30    32     1     0     0
SMALL
NO_CHARGES


@<TRIPOS>ATOM
      1 PG        -45.2330  -50.1920  170.8450 P.3       1 DTP1301     0.0000 
      2 O1G       -44.9740  -49.5630  169.4950 O.co2     1 DTP1301     0.0000 
      3 O2G       -46.3090  -49.4110  171.5590 O.co2     1 DTP1301     0.0000 
      4 O3G       -43.9600  -50.2260  171.6490 O.co2     1 DTP1301     0.0000 
      5 PB        -45.2530  -53.0070  171.4420 P.3       1 DTP1301     0.0000 
      6 O1B       -45.9370  -54.2440  170.9420 O.co2     1 DTP1301     0.0000 
      7 O2B       -43.7550  -53.1660  171.3460 O.co2     1 DTP1301     0.0000 
      8 O3B       -45.7650  -51.7150  170.5970 O.3       1 DTP1301     0.0000 
      9 PA        -44.9610  -53.1340  174.3350 P.3       1 DTP1301     0.0000 
     10 O1A       -43.5500  -52.5840  174.2790 O.co2     1 DTP1301     0.0000 
     11 O2A       -45.7980  -52.5200  175.4330 O.co2     1 DTP1301     0.0000 
     12 O3A       -45.7800  -52.7530  172.9690 O.3       1 DTP1301     0.0000 
     13 O5'       -44.9360  -54.7680  174.5160 O.3       1 DTP1301     0.0000 
     14 C5'       -43.8460  -55.5190  174.0800 C.3       1 DTP1301     0.0000 
     15 C4'       -44.3140  -56.8580  173.5330 C.3       1 DTP1301     0.0000 
     16 O4'       -44.9430  -57.8170  174.6830 O.3       1 DTP1301     0.0000 
     17 C3'       -45.2600  -56.7240  172.6220 C.3       1 DTP1301     0.0000 
     18 O3'       -44.6860  -56.4600  171.2770 O.3       1 DTP1301     0.0000 
     19 C2'       -45.9710  -58.1010  172.6920 C.3       1 DTP1301     0.0000 
     20 C1'       -46.0880  -58.2880  174.2210 C.3       1 DTP1301     0.0000 
     21 N9        -47.1920  -57.4570  174.7410 N.pl3     1 DTP1301     0.0000 
     22 C8        -47.4240  -56.2480  175.2570 C.2       1 DTP1301     0.0000 
     23 N7        -48.7270  -56.1240  175.5180 N.2       1 DTP1301     0.0000 
     24 C5        -49.3190  -57.2700  175.1530 C.ar      1 DTP1301     0.0000 
     25 C6        -50.6360  -57.6730  175.2010 C.ar      1 DTP1301     0.0000 
     26 N6        -51.8740  -57.0830  175.6370 N.pl3     1 DTP1301     0.0000 
     27 N1        -50.9970  -58.8720  174.7840 N.ar      1 DTP1301     0.0000 
     28 C2        -50.0380  -59.6980  174.2990 C.ar      1 DTP1301     0.0000 
     29 N3        -48.7310  -59.3420  174.2290 N.ar      1 DTP1301     0.0000 
     30 C4        -48.3740  -58.1100  174.6680 C.ar      1 DTP1301     0.0000 
@<TRIPOS>BOND
     1    1    2 ar   
     2    1    3 ar   
     3    1    4 ar   
     4    1    8 1    
     5    5    6 ar   
     6    5    7 ar   
     7    5    8 1    
     8    5   12 1    
     9    9   10 ar   
    10    9   11 ar   
    11    9   12 1    
    12    9   13 1    
    13   13   14 1    
    14   14   15 1    
    15   15   16 1    
    16   15   17 1    
    17   16   20 1    
    18   17   18 1    
    19   17   19 1    
    20   19   20 1    
    21   20   21 1    
    22   21   22 1    
    23   21   30 1    
    24   22   23 2    
    25   23   24 1    
    26   24   25 ar   
    27   24   30 ar   
    28   25   26 1    
    29   25   27 ar   
    30   27   28 ar   
    31   28   29 ar   
    32   29   30 ar   
@<TRIPOS>SUBSTRUCTURE
     1 DTP1301     1 GROUP   
@<TRIPOS>SET

