#    Name: 6peq_2_ZK1
#    Modification time : Fri May 22 19:27:02 2020

@<TRIPOS>MOLECULE
6peq_2_ZK1
   40    42     1     0     0
SMALL
NO_CHARGES


@<TRIPOS>ATOM
      1 OAA       158.5950  184.5540  240.1140 O.2       1 ZK1901      0.0000 
      2 OAB       156.7180  183.3740  238.3250 O.2       1 ZK1901      0.0000 
      3 OAC       158.5220  182.5320  233.4680 O.co2     1 ZK1901      0.0000 
      4 OAD       156.1120  182.8360  233.8750 O.co2     1 ZK1901      0.0000 
      5 OAE       157.7310  184.4410  234.8130 O.co2     1 ZK1901      0.0000 
      6 FAF       165.0280  182.6180  236.8450 F         1 ZK1901      0.0000 
      7 FAG       164.6050  182.7490  234.6630 F         1 ZK1901      0.0000 
      8 FAH       164.6280  180.7670  235.6710 F         1 ZK1901      0.0000 
      9 CAI       160.5050  181.7300  235.4650 C.ar      1 ZK1901      0.0000 
     10 CAJ       162.3730  182.9050  237.2450 C.ar      1 ZK1901      0.0000 
     11 CAK       162.4410  180.7890  231.6300 C.3       1 ZK1901      0.0000 
     12 CAL       162.4800  178.8020  232.8660 C.3       1 ZK1901      0.0000 
     13 CAM       161.8870  181.5480  232.8310 C.3       1 ZK1901      0.0000 
     14 CAN       161.8950  179.5390  234.0660 C.3       1 ZK1901      0.0000 
     15 CAO       157.6030  181.9660  236.0120 C.3       1 ZK1901      0.0000 
     16 NAP       160.4320  183.7570  238.7280 N.am      1 ZK1901      0.0000 
     17 OAQ       163.2020  179.7040  232.0760 O.3       1 ZK1901      0.0000 
     18 CAR       161.8810  181.6240  235.2140 C.ar      1 ZK1901      0.0000 
     19 CAS       162.8180  182.2120  236.1070 C.ar      1 ZK1901      0.0000 
     20 CAT       159.0450  183.8670  238.9860 C.2       1 ZK1901      0.0000 
     21 CAU       158.0870  183.2650  238.0710 C.2       1 ZK1901      0.0000 
     22 CAV       160.8970  183.0240  237.5220 C.ar      1 ZK1901      0.0000 
     23 CAW       160.0100  182.4670  236.6780 C.ar      1 ZK1901      0.0000 
     24 NAX       162.3590  180.9110  234.0450 N.3       1 ZK1901      0.0000 
     25 NAY       158.5500  182.5710  236.9310 N.am      1 ZK1901      0.0000 
     26 CAZ       164.3090  182.0840  235.8160 C.3       1 ZK1901      0.0000 
     27 PBA       157.4900  182.9920  234.4670 P.3       1 ZK1901      0.0000 
     28 HAI       159.8960  181.3440  234.8800 H         1 ZK1901      0.0000 
     29 HAJ       162.9870  183.2880  237.8270 H         1 ZK1901      0.0000 
     30 HAK       163.0010  181.3810  231.1060 H         1 ZK1901      0.0000 
     31 HAKA      161.7050  180.4650  231.0890 H         1 ZK1901      0.0000 
     32 HAL       163.0710  178.1000  233.1760 H         1 ZK1901      0.0000 
     33 HALA      161.7590  178.4210  232.3420 H         1 ZK1901      0.0000 
     34 HAM       162.1950  182.4670  232.8080 H         1 ZK1901      0.0000 
     35 HAMA      160.9180  181.5230  232.8040 H         1 ZK1901      0.0000 
     36 HAN       162.1870  179.1110  234.8850 H         1 ZK1901      0.0000 
     37 HANA      160.9280  179.5190  234.0090 H         1 ZK1901      0.0000 
     38 HAO       156.7300  181.9230  236.4290 H         1 ZK1901      0.0000 
     39 HAOA      157.8940  181.0710  235.7850 H         1 ZK1901      0.0000 
     40 HNAP      161.0020  184.1110  239.2650 H         1 ZK1901      0.0000 
@<TRIPOS>BOND
     1    1   20 2    
     2    2   21 2    
     3    3   27 ar   
     4    4   27 ar   
     5    5   27 ar   
     6    6   26 1    
     7    7   26 1    
     8    8   26 1    
     9    9   18 ar   
    10    9   23 ar   
    11   10   19 ar   
    12    9   28 1    
    13   10   22 ar   
    14   11   13 1    
    15   10   29 1    
    16   11   17 1    
    17   11   30 1    
    18   11   31 1    
    19   12   14 1    
    20   12   17 1    
    21   12   32 1    
    22   12   33 1    
    23   13   24 1    
    24   13   34 1    
    25   13   35 1    
    26   14   24 1    
    27   14   36 1    
    28   14   37 1    
    29   15   25 1    
    30   15   27 1    
    31   15   38 1    
    32   15   39 1    
    33   16   20 am   
    34   16   22 1    
    35   18   19 ar   
    36   16   40 1    
    37   18   24 1    
    38   19   26 1    
    39   20   21 1    
    40   21   25 am   
    41   22   23 ar   
    42   23   25 1    
@<TRIPOS>SUBSTRUCTURE
     1 ZK1901      1 GROUP   
@<TRIPOS>SET

