#    Name: 6peq_3_ZK1
#    Modification time : Fri May 22 19:27:09 2020

@<TRIPOS>MOLECULE
6peq_3_ZK1
   40    42     1     0     0
SMALL
NO_CHARGES


@<TRIPOS>ATOM
      1 OAA       169.4560  211.2210  242.4180 O.2       1 ZK1901      0.0000 
      2 OAB       172.1610  212.1080  242.2530 O.2       1 ZK1901      0.0000 
      3 OAC       174.4550  211.9370  237.5720 O.co2     1 ZK1901      0.0000 
      4 OAD       175.6730  211.7440  239.7070 O.co2     1 ZK1901      0.0000 
      5 OAE       173.6800  210.3520  239.2980 O.co2     1 ZK1901      0.0000 
      6 FAF       167.1830  212.5580  235.4190 F         1 ZK1901      0.0000 
      7 FAG       168.8220  211.5890  234.2600 F         1 ZK1901      0.0000 
      8 FAH       168.7050  213.8090  234.3770 F         1 ZK1901      0.0000 
      9 CAI       171.5380  213.0610  237.3580 C.ar      1 ZK1901      0.0000 
     10 CAJ       168.8490  212.1780  237.5270 C.ar      1 ZK1901      0.0000 
     11 CAK       172.9330  213.3280  233.2330 C.3       1 ZK1901      0.0000 
     12 CAL       171.9630  215.4210  233.6250 C.3       1 ZK1901      0.0000 
     13 CAM       172.4810  212.8730  234.6160 C.3       1 ZK1901      0.0000 
     14 CAN       171.4460  214.9610  234.9830 C.3       1 ZK1901      0.0000 
     15 CAO       173.2440  213.0280  239.7910 C.3       1 ZK1901      0.0000 
     16 NAP       169.1570  211.6850  240.0440 N.am      1 ZK1901      0.0000 
     17 OAQ       172.0640  214.3200  232.7680 O.3       1 ZK1901      0.0000 
     18 CAR       170.7180  213.0690  236.2180 C.ar      1 ZK1901      0.0000 
     19 CAS       169.3710  212.6270  236.3050 C.ar      1 ZK1901      0.0000 
     20 CAT       169.9720  211.6690  241.2000 C.2       1 ZK1901      0.0000 
     21 CAU       171.3520  212.1210  241.1140 C.2       1 ZK1901      0.0000 
     22 CAV       169.7190  212.1600  238.7540 C.ar      1 ZK1901      0.0000 
     23 CAW       170.9960  212.5800  238.6760 C.ar      1 ZK1901      0.0000 
     24 NAX       171.2300  213.5310  234.9420 N.3       1 ZK1901      0.0000 
     25 NAY       171.8690  212.5730  239.8780 N.am      1 ZK1901      0.0000 
     26 CAZ       168.4950  212.6460  235.0580 C.3       1 ZK1901      0.0000 
     27 PBA       174.3130  211.7000  239.0550 P.3       1 ZK1901      0.0000 
     28 HAI       172.4190  213.3500  237.2980 H         1 ZK1901      0.0000 
     29 HAJ       167.9680  211.8890  237.5790 H         1 ZK1901      0.0000 
     30 HAK       172.9200  212.5740  232.6240 H         1 ZK1901      0.0000 
     31 HAKA      173.8300  213.6900  233.2900 H         1 ZK1901      0.0000 
     32 HAL       171.3480  216.0680  233.2500 H         1 ZK1901      0.0000 
     33 HALA      172.8390  215.8220  233.7370 H         1 ZK1901      0.0000 
     34 HAM       172.3520  211.9130  234.6170 H         1 ZK1901      0.0000 
     35 HAMA      173.1590  213.1180  235.2640 H         1 ZK1901      0.0000 
     36 HAN       170.6080  215.4070  235.1790 H         1 ZK1901      0.0000 
     37 HANA      172.1010  215.1710  235.6650 H         1 ZK1901      0.0000 
     38 HAO       173.5680  213.2400  240.6780 H         1 ZK1901      0.0000 
     39 HAOA      173.2910  213.8220  239.2380 H         1 ZK1901      0.0000 
     40 HNAP      168.3410  211.4190  240.0860 H         1 ZK1901      0.0000 
@<TRIPOS>BOND
     1    1   20 2    
     2    2   21 2    
     3    3   27 ar   
     4    4   27 ar   
     5    5   27 ar   
     6    6   26 1    
     7    7   26 1    
     8    8   26 1    
     9    9   18 ar   
    10    9   23 ar   
    11   10   19 ar   
    12    9   28 1    
    13   10   22 ar   
    14   11   13 1    
    15   10   29 1    
    16   11   17 1    
    17   11   30 1    
    18   11   31 1    
    19   12   14 1    
    20   12   17 1    
    21   12   32 1    
    22   12   33 1    
    23   13   24 1    
    24   13   34 1    
    25   13   35 1    
    26   14   24 1    
    27   14   36 1    
    28   14   37 1    
    29   15   25 1    
    30   15   27 1    
    31   15   38 1    
    32   15   39 1    
    33   16   20 am   
    34   16   22 1    
    35   18   19 ar   
    36   16   40 1    
    37   18   24 1    
    38   19   26 1    
    39   20   21 1    
    40   21   25 am   
    41   22   23 ar   
    42   23   25 1    
@<TRIPOS>SUBSTRUCTURE
     1 ZK1901      1 GROUP   
@<TRIPOS>SET

