#    Name: 6peq_4_ZK1_CAVITY_N1_ALL
#    Modification time : Fri May 22 19:27:16 2020

@<TRIPOS>MOLECULE
6peq_4_ZK1_CAVITY_N1_ALL
  106     0     7     0     0
SMALL
NO_CHARGES


@<TRIPOS>ATOM
      1 OG        225.4300  200.9900  228.6700 O.3       1 SER1        0.0000 
      2 OG        224.4900  202.1500  228.8100 O.3       1 SER1        0.0000 
      3 OG        223.5500  203.3100  228.9600 O.3       1 SER1        0.0000 
      4 OG        220.6100  202.6900  230.4500 O.3       1 SER1        0.0000 
      5 OG        224.0300  199.5200  231.3400 O.3       1 SER1        0.0000 
      6 OG        225.0300  200.4200  230.6700 O.3       1 SER1        0.0000 
      7 OG        226.0400  201.3100  230.0000 O.3       1 SER1        0.0000 
      8 OG        224.1000  201.5800  230.8200 O.3       1 SER1        0.0000 
      9 OG        218.2100  200.3300  233.7900 O.3       1 SER1        0.0000 
     10 OG        221.2200  203.0100  231.7800 O.3       1 SER1        0.0000 
     11 OG        222.2200  203.9000  231.1100 O.3       1 SER1        0.0000 
     12 OG        223.2200  204.7900  230.4400 O.3       1 SER1        0.0000 
     13 OG        220.2800  204.1700  231.9300 O.3       1 SER1        0.0000 
     14 OG        219.3400  205.3300  232.0700 O.3       1 SER1        0.0000 
     15 OG        222.6300  198.0600  234.0100 O.3       1 SER1        0.0000 
     16 OG        224.6400  199.8400  232.6700 O.3       1 SER1        0.0000 
     17 OG        225.6400  200.7400  232.0000 O.3       1 SER1        0.0000 
     18 OG        221.7000  199.2200  234.1600 O.3       1 SER1        0.0000 
     19 OG        220.7600  200.3800  234.3100 O.3       1 SER1        0.0000 
     20 OG        218.8200  200.6500  235.1200 O.3       1 SER1        0.0000 
     21 OG        219.8200  201.5400  234.4500 O.3       1 SER1        0.0000 
     22 OG        222.8300  204.2200  232.4400 O.3       1 SER1        0.0000 
     23 OG        223.8300  205.1100  231.7700 O.3       1 SER1        0.0000 
     24 OG        218.8800  202.7000  234.6000 O.3       1 SER1        0.0000 
     25 OG        221.8900  205.3800  232.5900 O.3       1 SER1        0.0000 
     26 OG        222.8900  206.2800  231.9200 O.3       1 SER1        0.0000 
     27 OG        223.2400  198.3800  235.3500 O.3       1 SER1        0.0000 
     28 OG        225.2400  200.1600  234.0100 O.3       1 SER1        0.0000 
     29 OG        222.3000  199.5400  235.4900 O.3       1 SER1        0.0000 
     30 OG        221.3600  200.7000  235.6400 O.3       1 SER1        0.0000 
     31 OG        219.4300  200.9700  236.4600 O.3       1 SER1        0.0000 
     32 OG        220.4300  201.8600  235.7900 O.3       1 SER1        0.0000 
     33 OG        221.4300  202.7500  235.1200 O.3       1 SER1        0.0000 
     34 OG        218.4900  202.1300  236.6000 O.3       1 SER1        0.0000 
     35 OG        220.4900  203.9200  235.2600 O.3       1 SER1        0.0000 
     36 OG        221.4900  204.8100  234.5900 O.3       1 SER1        0.0000 
     37 OG        225.7900  198.4300  235.8600 O.3       1 SER1        0.0000 
     38 OG        224.8500  199.5900  236.0100 O.3       1 SER1        0.0000 
     39 OG        225.8500  200.4800  235.3400 O.3       1 SER1        0.0000 
     40 OG        226.8500  201.3800  234.6700 O.3       1 SER1        0.0000 
     41 OG        222.9100  199.8600  236.8300 O.3       1 SER1        0.0000 
     42 O         223.4300  199.2000  230.0000 O.2       2 ALA2        0.0000 
     43 O         222.4900  200.3600  230.1500 O.2       2 ALA2        0.0000 
     44 O         221.5500  201.5300  230.3000 O.2       2 ALA2        0.0000 
     45 O         223.0900  200.6800  231.4900 O.2       2 ALA2        0.0000 
     46 O         226.5800  199.5800  231.8600 O.2       2 ALA2        0.0000 
     47 O         226.6400  201.6300  231.3300 O.2       2 ALA2        0.0000 
     48 O         226.2500  201.0600  233.3400 O.2       2 ALA2        0.0000 
     49 O         227.2500  201.9500  232.6700 O.2       2 ALA2        0.0000 
     50 OD1       223.9700  197.4700  231.8600 O.co2     3 ASP3        0.0000 
     51 OD1       224.5700  197.7900  233.2000 O.co2     3 ASP3        0.0000 
     52 OD1       223.6400  198.9500  233.3400 O.co2     3 ASP3        0.0000 
     53 NZ        217.9500  203.8600  234.7500 N.4       4 LYS4        0.0000 
     54 NZ        218.9500  204.7600  234.0800 N.4       4 LYS4        0.0000 
     55 NZ        219.9500  205.6500  233.4100 N.4       4 LYS4        0.0000 
     56 NZ        220.9500  206.5400  232.7400 N.4       4 LYS4        0.0000 
     57 NZ        220.0100  207.7100  232.8800 N.4       4 LYS4        0.0000 
     58 CZ        217.8800  201.8100  235.2700 C.ar      5 PHE5        0.0000 
     59 CZ        222.4300  203.6500  234.4500 C.ar      5 PHE5        0.0000 
     60 CZ        221.9700  201.0200  236.9700 C.ar      5 PHE5        0.0000 
     61 CZ        222.9700  201.9100  236.3000 C.ar      5 PHE5        0.0000 
     62 CZ        223.9700  202.8100  235.6400 C.ar      5 PHE5        0.0000 
     63 CZ        222.1000  205.1300  235.9300 C.ar      5 PHE5        0.0000 
     64 CA        223.4900  201.2600  229.4800 C.3       6 GLY6        0.0000 
     65 CA        222.5500  202.4200  229.6300 C.3       6 GLY6        0.0000 
     66 CA        219.6100  201.7900  231.1100 C.3       6 GLY6        0.0000 
     67 CA        219.6700  203.8500  230.5900 C.3       6 GLY6        0.0000 
     68 CA        222.0300  197.7400  232.6800 C.3       6 GLY6        0.0000 
     69 CA        223.0300  198.6300  232.0100 C.3       6 GLY6        0.0000 
     70 CA        222.0900  199.7900  232.1600 C.3       6 GLY6        0.0000 
     71 CA        225.1000  202.4700  230.1500 C.3       6 GLY6        0.0000 
     72 CA        221.1500  200.9500  232.3000 C.3       6 GLY6        0.0000 
     73 CA        224.1600  203.6300  230.2900 C.3       6 GLY6        0.0000 
     74 CA        219.2100  201.2200  233.1200 C.3       6 GLY6        0.0000 
     75 CA        220.2200  202.1100  232.4500 C.3       6 GLY6        0.0000 
     76 CA        217.2800  201.4900  233.9400 C.3       6 GLY6        0.0000 
     77 CA        218.2800  202.3800  233.2700 C.3       6 GLY6        0.0000 
     78 CA        219.2800  203.2800  232.6000 C.3       6 GLY6        0.0000 
     79 CA        219.4100  207.3800  231.5500 C.3       6 GLY6        0.0000 
     80 CA        225.5800  198.6800  232.5300 C.3       6 GLY6        0.0000 
     81 CA        222.7000  200.1100  233.4900 C.3       6 GLY6        0.0000 
     82 CA        225.7000  202.7900  231.4800 C.3       6 GLY6        0.0000 
     83 CA        224.7700  203.9500  231.6300 C.3       6 GLY6        0.0000 
     84 CA        226.1800  199.0000  233.8600 C.3       6 GLY6        0.0000 
     85 CA        226.3100  203.1100  232.8200 C.3       6 GLY6        0.0000 
     86 CA        225.3700  204.2700  232.9600 C.3       6 GLY6        0.0000 
     87 DU        222.1600  201.8500  231.6300 H         7 CUB7        0.0000 
     88 DU        223.1600  202.7400  230.9600 H         7 CUB7        0.0000 
     89 DU        223.7000  201.0000  232.8200 H         7 CUB7        0.0000 
     90 DU        224.7000  201.9000  232.1500 H         7 CUB7        0.0000 
     91 DU        221.7600  201.2700  233.6400 H         7 CUB7        0.0000 
     92 DU        223.7600  203.0600  232.3000 H         7 CUB7        0.0000 
     93 DU        220.8200  202.4300  233.7800 H         7 CUB7        0.0000 
     94 DU        221.8200  203.3300  233.1100 H         7 CUB7        0.0000 
     95 DU        219.8800  203.6000  233.9300 H         7 CUB7        0.0000 
     96 DU        220.8900  204.4900  233.2600 H         7 CUB7        0.0000 
     97 DU        224.2400  199.2700  234.6800 H         7 CUB7        0.0000 
     98 DU        223.3000  200.4300  234.8200 H         7 CUB7        0.0000 
     99 DU        225.3100  202.2200  233.4800 H         7 CUB7        0.0000 
    100 DU        222.3700  201.5900  234.9700 H         7 CUB7        0.0000 
    101 DU        223.3700  202.4900  234.3000 H         7 CUB7        0.0000 
    102 DU        224.3700  203.3800  233.6300 H         7 CUB7        0.0000 
    103 DU        223.4300  204.5400  233.7800 H         7 CUB7        0.0000 
    104 DU        222.4900  205.7000  233.9300 H         7 CUB7        0.0000 
    105 DU        223.9100  200.7500  236.1600 H         7 CUB7        0.0000 
    106 DU        224.9100  201.6500  235.4900 H         7 CUB7        0.0000 
@<TRIPOS>BOND
@<TRIPOS>SUBSTRUCTURE
     1 SER1        1 GROUP   
     2 ALA2       42 GROUP   
     3 ASP3       50 GROUP   
     4 LYS4       53 GROUP   
     5 PHE5       58 GROUP   
     6 GLY6       64 GROUP   
     7 CUB7       87 GROUP   
@<TRIPOS>SET

