#    Name: 6peq_4_ZK1
#    Modification time : Fri May 22 19:27:15 2020

@<TRIPOS>MOLECULE
6peq_4_ZK1
   40    42     1     0     0
SMALL
NO_CHARGES


@<TRIPOS>ATOM
      1 OAA       225.1980  199.1990  240.1060 O.2       1 ZK1901      0.0000 
      2 OAB       227.0700  200.3700  238.3040 O.2       1 ZK1901      0.0000 
      3 OAC       225.2360  201.1710  233.4660 O.co2     1 ZK1901      0.0000 
      4 OAD       227.6560  200.9090  233.8440 O.co2     1 ZK1901      0.0000 
      5 OAE       226.0750  199.2880  234.8180 O.co2     1 ZK1901      0.0000 
      6 FAF       218.7530  201.1380  236.8570 F         1 ZK1901      0.0000 
      7 FAG       219.1690  201.0260  234.6730 F         1 ZK1901      0.0000 
      8 FAH       219.1530  202.9990  235.6990 F         1 ZK1901      0.0000 
      9 CAI       223.2730  202.0200  235.4600 C.ar      1 ZK1901      0.0000 
     10 CAJ       221.4110  200.8550  237.2530 C.ar      1 ZK1901      0.0000 
     11 CAK       221.3180  202.9620  231.6340 C.3       1 ZK1901      0.0000 
     12 CAL       221.2890  204.9490  232.8680 C.3       1 ZK1901      0.0000 
     13 CAM       221.8750  202.2010  232.8330 C.3       1 ZK1901      0.0000 
     14 CAN       221.8810  204.2120  234.0650 C.3       1 ZK1901      0.0000 
     15 CAO       226.1780  201.7750  235.9930 C.3       1 ZK1901      0.0000 
     16 NAP       223.3560  200.0000  238.7270 N.am      1 ZK1901      0.0000 
     17 OAQ       220.5610  204.0490  232.0830 O.3       1 ZK1901      0.0000 
     18 CAR       221.8960  202.1300  235.2170 C.ar      1 ZK1901      0.0000 
     19 CAS       220.9620  201.5470  236.1150 C.ar      1 ZK1901      0.0000 
     20 CAT       224.7440  199.8850  238.9780 C.2       1 ZK1901      0.0000 
     21 CAU       225.6990  200.4820  238.0570 C.2       1 ZK1901      0.0000 
     22 CAV       222.8870  200.7320  237.5220 C.ar      1 ZK1901      0.0000 
     23 CAW       223.7720  201.2830  236.6720 C.ar      1 ZK1901      0.0000 
     24 NAX       221.4130  202.8420  234.0480 N.3       1 ZK1901      0.0000 
     25 NAY       225.2330  201.1750  236.9180 N.am      1 ZK1901      0.0000 
     26 CAZ       219.4690  201.6790  235.8310 C.3       1 ZK1901      0.0000 
     27 PBA       226.2890  200.7370  234.4560 P.3       1 ZK1901      0.0000 
     28 HAI       223.8800  202.4030  234.8710 H         1 ZK1901      0.0000 
     29 HAJ       220.7980  200.4750  237.8390 H         1 ZK1901      0.0000 
     30 HAK       220.7540  202.3710  231.1120 H         1 ZK1901      0.0000 
     31 HAKA      222.0520  203.2840  231.0900 H         1 ZK1901      0.0000 
     32 HAL       220.7000  205.6520  233.1820 H         1 ZK1901      0.0000 
     33 HALA      222.0070  205.3310  232.3400 H         1 ZK1901      0.0000 
     34 HAM       221.5630  201.2840  232.8120 H         1 ZK1901      0.0000 
     35 HAMA      222.8440  202.2210  232.8000 H         1 ZK1901      0.0000 
     36 HAN       221.5970  204.6410  234.8860 H         1 ZK1901      0.0000 
     37 HANA      222.8480  204.2300  234.0000 H         1 ZK1901      0.0000 
     38 HAO       227.0520  201.8220  236.4080 H         1 ZK1901      0.0000 
     39 HAOA      225.8850  202.6680  235.7590 H         1 ZK1901      0.0000 
     40 HNAP      222.7880  199.6490  239.2680 H         1 ZK1901      0.0000 
@<TRIPOS>BOND
     1    1   20 2    
     2    2   21 2    
     3    3   27 ar   
     4    4   27 ar   
     5    5   27 ar   
     6    6   26 1    
     7    7   26 1    
     8    8   26 1    
     9    9   18 ar   
    10    9   23 ar   
    11   10   19 ar   
    12    9   28 1    
    13   10   22 ar   
    14   11   13 1    
    15   10   29 1    
    16   11   17 1    
    17   11   30 1    
    18   11   31 1    
    19   12   14 1    
    20   12   17 1    
    21   12   32 1    
    22   12   33 1    
    23   13   24 1    
    24   13   34 1    
    25   13   35 1    
    26   14   24 1    
    27   14   36 1    
    28   14   37 1    
    29   15   25 1    
    30   15   27 1    
    31   15   38 1    
    32   15   39 1    
    33   16   20 am   
    34   16   22 1    
    35   18   19 ar   
    36   16   40 1    
    37   18   24 1    
    38   19   26 1    
    39   20   21 1    
    40   21   25 am   
    41   22   23 ar   
    42   23   25 1    
@<TRIPOS>SUBSTRUCTURE
     1 ZK1901      1 GROUP   
@<TRIPOS>SET

