#    Name: 6peq_1_ZK1
#    Modification time : Fri May 22 19:26:56 2020

@<TRIPOS>MOLECULE
6peq_1_ZK1
   40    42     1     0     0
SMALL
NO_CHARGES


@<TRIPOS>ATOM
      1 OAA       214.3100  172.5440  242.4130 O.2       1 ZK1901      0.0000 
      2 OAB       211.5940  171.6940  242.2430 O.2       1 ZK1901      0.0000 
      3 OAC       209.4720  171.9470  237.5040 O.co2     1 ZK1901      0.0000 
      4 OAD       210.0320  173.4670  239.3660 O.co2     1 ZK1901      0.0000 
      5 OAE       208.0530  172.0060  239.5190 O.co2     1 ZK1901      0.0000 
      6 FAF       216.5790  171.1800  235.4190 F         1 ZK1901      0.0000 
      7 FAG       214.9470  172.1500  234.2510 F         1 ZK1901      0.0000 
      8 FAH       215.0520  169.9310  234.3830 F         1 ZK1901      0.0000 
      9 CAI       212.2140  170.7260  237.3510 C.ar      1 ZK1901      0.0000 
     10 CAJ       214.9150  171.5730  237.5240 C.ar      1 ZK1901      0.0000 
     11 CAK       210.8200  170.4640  233.2260 C.3       1 ZK1901      0.0000 
     12 CAL       211.7740  168.3640  233.6190 C.3       1 ZK1901      0.0000 
     13 CAM       211.2740  170.9160  234.6100 C.3       1 ZK1901      0.0000 
     14 CAN       212.2930  168.8200  234.9770 C.3       1 ZK1901      0.0000 
     15 CAO       210.5040  170.7860  239.7780 C.3       1 ZK1901      0.0000 
     16 NAP       214.6080  172.0740  240.0400 N.am      1 ZK1901      0.0000 
     17 OAQ       211.6820  169.4660  232.7620 O.3       1 ZK1901      0.0000 
     18 CAR       213.0350  170.7060  236.2130 C.ar      1 ZK1901      0.0000 
     19 CAS       214.3890  171.1290  236.3020 C.ar      1 ZK1901      0.0000 
     20 CAT       213.7900  172.1020  241.1940 C.2       1 ZK1901      0.0000 
     21 CAU       212.4040  171.6680  241.1060 C.2       1 ZK1901      0.0000 
     22 CAV       214.0420  171.6040  238.7490 C.ar      1 ZK1901      0.0000 
     23 CAW       212.7600  171.2010  238.6690 C.ar      1 ZK1901      0.0000 
     24 NAX       212.5200  170.2480  234.9360 N.3       1 ZK1901      0.0000 
     25 NAY       211.8850  171.2220  239.8700 N.am      1 ZK1901      0.0000 
     26 CAZ       215.2670  171.0970  235.0560 C.3       1 ZK1901      0.0000 
     27 PBA       209.4660  172.1170  239.0030 P.3       1 ZK1901      0.0000 
     28 HAI       211.3290  170.4480  237.2900 H         1 ZK1901      0.0000 
     29 HAJ       215.7990  171.8500  237.5780 H         1 ZK1901      0.0000 
     30 HAK       210.8380  171.2180  232.6180 H         1 ZK1901      0.0000 
     31 HAKA      209.9200  170.1090  233.2840 H         1 ZK1901      0.0000 
     32 HAL       212.3860  167.7130  233.2430 H         1 ZK1901      0.0000 
     33 HALA      210.8960  167.9680  233.7280 H         1 ZK1901      0.0000 
     34 HAM       211.4110  171.8760  234.6100 H         1 ZK1901      0.0000 
     35 HAMA      210.5940  170.6770  235.2570 H         1 ZK1901      0.0000 
     36 HAN       213.1260  168.3670  235.1750 H         1 ZK1901      0.0000 
     37 HANA      211.6340  168.6160  235.6580 H         1 ZK1901      0.0000 
     38 HAO       210.1670  170.5980  240.6660 H         1 ZK1901      0.0000 
     39 HAOA      210.4500  169.9820  239.2410 H         1 ZK1901      0.0000 
     40 HNAP      215.4270  172.3290  240.0840 H         1 ZK1901      0.0000 
@<TRIPOS>BOND
     1    1   20 2    
     2    2   21 2    
     3    3   27 ar   
     4    4   27 ar   
     5    5   27 ar   
     6    6   26 1    
     7    7   26 1    
     8    8   26 1    
     9    9   18 ar   
    10    9   23 ar   
    11   10   19 ar   
    12    9   28 1    
    13   10   22 ar   
    14   11   13 1    
    15   10   29 1    
    16   11   17 1    
    17   11   30 1    
    18   11   31 1    
    19   12   14 1    
    20   12   17 1    
    21   12   32 1    
    22   12   33 1    
    23   13   24 1    
    24   13   34 1    
    25   13   35 1    
    26   14   24 1    
    27   14   36 1    
    28   14   37 1    
    29   15   25 1    
    30   15   27 1    
    31   15   38 1    
    32   15   39 1    
    33   16   20 am   
    34   16   22 1    
    35   18   19 ar   
    36   16   40 1    
    37   18   24 1    
    38   19   26 1    
    39   20   21 1    
    40   21   25 am   
    41   22   23 ar   
    42   23   25 1    
@<TRIPOS>SUBSTRUCTURE
     1 ZK1901      1 GROUP   
@<TRIPOS>SET

