#    Name: 6hnw_1_CUE
#    Modification time : Fri May 22 19:25:49 2020

@<TRIPOS>MOLECULE
6hnw_1_CUE
   20    23     1     0     0
SMALL
NO_CHARGES


@<TRIPOS>ATOM
      1 OAA       -22.2750   16.7370  -16.2180 O.2       1 CUE401      0.0000 
      2 OAB       -22.4670    9.9540  -14.0330 O.3       1 CUE401      0.0000 
      3 OAC       -23.0120   21.1310  -10.8180 O.3       1 CUE401      0.0000 
      4 CAD       -22.6970   11.7830  -12.4140 C.ar      1 CUE401      0.0000 
      5 CAE       -22.7190   20.2170  -13.0640 C.ar      1 CUE401      0.0000 
      6 CAF       -22.7510   13.1630  -12.1270 C.ar      1 CUE401      0.0000 
      7 CAG       -22.5980   19.1180  -13.9150 C.ar      1 CUE401      0.0000 
      8 CAH       -22.3970   12.2730  -14.8060 C.ar      1 CUE401      0.0000 
      9 CAI       -22.9410   18.7290  -11.1620 C.ar      1 CUE401      0.0000 
     10 OAJ       -22.3330   14.6170  -15.5780 O.3       1 CUE401      0.0000 
     11 OAK       -22.8370   16.2560  -11.7590 O.3       1 CUE401      0.0000 
     12 CAL       -22.5220   11.3380  -13.7580 C.ar      1 CUE401      0.0000 
     13 CAM       -22.8900   20.0210  -11.6830 C.ar      1 CUE401      0.0000 
     14 CAN       -22.3830   15.9550  -15.2990 C.2       1 CUE401      0.0000 
     15 CAO       -22.4520   13.6570  -14.5190 C.ar      1 CUE401      0.0000 
     16 CAP       -22.8190   17.6140  -12.0260 C.ar      1 CUE401      0.0000 
     17 CAQ       -22.6290   14.0990  -13.1720 C.ar      1 CUE401      0.0000 
     18 CAR       -22.6490   17.8020  -13.3860 C.ar      1 CUE401      0.0000 
     19 CAS       -22.6800   15.5400  -12.9170 C.2       1 CUE401      0.0000 
     20 CAT       -22.5600   16.4360  -13.9590 C.2       1 CUE401      0.0000 
@<TRIPOS>BOND
     1    1   14 2    
     2    2   12 1    
     3    3   13 1    
     4    4    6 ar   
     5    4   12 ar   
     6    5    7 ar   
     7    5   13 ar   
     8    6   17 ar   
     9    7   18 ar   
    10    8   12 ar   
    11    8   15 ar   
    12    9   13 ar   
    13    9   16 ar   
    14   10   14 1    
    15   10   15 1    
    16   11   16 1    
    17   11   19 1    
    18   14   20 1    
    19   15   17 ar   
    20   16   18 ar   
    21   17   19 1    
    22   18   20 1    
    23   19   20 2    
@<TRIPOS>SUBSTRUCTURE
     1 CUE401      1 GROUP   
@<TRIPOS>SET

