#    Name: 6ajn_1_ACO
#    Modification time : Fri May 22 19:32:11 2020

@<TRIPOS>MOLECULE
6ajn_1_ACO
   51    53     1     0     1
SMALL
NO_CHARGES


@<TRIPOS>ATOM
      1 N1A        10.5420   63.1450   96.3340 N.ar      1 ACO1001     0.0000 
      2 C2A        11.7430   63.5460   96.7900 C.ar      1 ACO1001     0.0000 
      3 N3A        12.6880   64.1530   96.0340 N.ar      1 ACO1001     0.0000 
      4 C4A        12.4580   64.3940   94.7190 C.ar      1 ACO1001     0.0000 
      5 C5A        11.1610   63.9840   94.1440 C.ar      1 ACO1001     0.0000 
      6 C6A        10.1860   63.3260   95.0470 C.ar      1 ACO1001     0.0000 
      7 N6A         8.9800   62.9210   94.5920 N.pl3     1 ACO1001     0.0000 
      8 N7A        11.1740   64.3250   92.8550 N.2       1 ACO1001     0.0000 
      9 C8A        12.3600   64.9120   92.5660 C.2       1 ACO1001     0.0000 
     10 N9A        13.1170   64.9350   93.6790 N.pl3     1 ACO1001     0.0000 
     11 C1B        14.4770   65.5240   93.6870 C.3       1 ACO1001     0.0000 
     12 C2B        14.7110   66.5040   94.8280 C.3       1 ACO1001     0.0000 
     13 O2B        14.1460   67.8020   94.5540 O.3       1 ACO1001     0.0000 
     14 C3B        16.2190   66.4420   95.1010 C.3       1 ACO1001     0.0000 
     15 O3B        16.9950   67.6030   94.7780 O.3       1 ACO1001     0.0000 
     16 P3B        16.5590   69.1320   95.1050 P.3       1 ACO1001     0.0000 
     17 O7A        17.8620   69.9110   95.0440 O.co2     1 ACO1001     0.0000 
     18 O8A        15.6000   69.4790   93.9750 O.co2     1 ACO1001     0.0000 
     19 O9A        15.8700   69.1420   96.4680 O.co2     1 ACO1001     0.0000 
     20 C4B        16.6690   65.3030   94.1810 C.3       1 ACO1001     0.0000 
     21 O4B        15.5210   64.5560   93.7600 O.3       1 ACO1001     0.0000 
     22 C5B        17.7490   64.3720   94.7300 C.3       1 ACO1001     0.0000 
     23 O5B        18.9160   64.5390   93.9170 O.3       1 ACO1001     0.0000 
     24 P1A        19.0260   63.8280   92.4710 P.3       1 ACO1001     0.0000 
     25 O1A        20.1400   64.4870   91.6960 O.co2     1 ACO1001     0.0000 
     26 O2A        17.6720   63.7330   91.7980 O.co2     1 ACO1001     0.0000 
     27 O3A        19.4760   62.3280   92.8430 O.3       1 ACO1001     0.0000 
     28 P2A        20.9460   61.9530   93.3950 P.3       1 ACO1001     0.0000 
     29 O4A        22.0210   62.6860   92.6270 O.co2     1 ACO1001     0.0000 
     30 O5A        20.9080   62.1390   94.8960 O.co2     1 ACO1001     0.0000 
     31 O6A        21.0200   60.3750   93.0290 O.3       1 ACO1001     0.0000 
     32 CBP        22.5790   59.0490   91.7730 C.3       1 ACO1001     0.0000 
     33 CCP        22.2030   59.5660   93.1810 C.3       1 ACO1001     0.0000 
     34 CDP        23.1520   59.9910   90.7060 C.3       1 ACO1001     0.0000 
     35 CEP        22.3070   57.5980   91.3280 C.3       1 ACO1001     0.0000 
     36 CAP        24.0950   58.8980   92.2030 C.3       1 ACO1001     0.0000 
     37 OAP        24.5200   59.9990   93.0290 O.3       1 ACO1001     0.0000 
     38 C9P        24.6930   57.6350   92.8120 C.2       1 ACO1001     0.0000 
     39 O9P        25.9010   57.4820   92.7050 O.2       1 ACO1001     0.0000 
     40 N8P        23.9730   56.7250   93.4750 N.am      1 ACO1001     0.0000 
     41 C7P        24.4160   55.3460   93.5990 C.3       1 ACO1001     0.0000 
     42 C6P        25.0750   54.7220   92.3680 C.3       1 ACO1001     0.0000 
     43 C5P        24.2050   54.7700   91.1340 C.2       1 ACO1001     0.0000 
     44 O5P        23.1090   54.2380   91.1340 O.2       1 ACO1001     0.0000 
     45 N4P        24.6880   55.3950   90.0590 N.am      1 ACO1001     0.0000 
     46 C3P        23.8690   55.6570   88.8850 C.3       1 ACO1001     0.0000 
     47 C2P        24.6560   55.5260   87.5900 C.3       1 ACO1001     0.0000 
     48 S1P        24.0940   54.1240   86.6820 S.3       1 ACO1001     0.0000 
     49 C          25.2480   54.0930   85.4830 C.2       1 ACO1001     0.0000 
     50 O          25.1320   54.8200   84.5080 O.2       1 ACO1001     0.0000 
     51 CH3        26.4260   53.1810   85.6370 C.3       1 ACO1001     0.0000 
@<TRIPOS>BOND
     1    1    2 ar   
     2    1    6 ar   
     3    2    3 ar   
     4    3    4 ar   
     5    4    5 ar   
     6    4   10 1    
     7    5    6 ar   
     8    5    8 1    
     9    6    7 1    
    10    8    9 2    
    11    9   10 1    
    12   10   11 1    
    13   11   12 1    
    14   11   21 1    
    15   12   13 1    
    16   12   14 1    
    17   14   15 1    
    18   14   20 1    
    19   15   16 1    
    20   16   17 ar   
    21   16   18 ar   
    22   16   19 ar   
    23   20   21 1    
    24   20   22 1    
    25   22   23 1    
    26   23   24 1    
    27   24   25 ar   
    28   24   26 ar   
    29   24   27 1    
    30   27   28 1    
    31   28   29 ar   
    32   28   30 ar   
    33   28   31 1    
    34   31   33 1    
    35   32   33 1    
    36   32   34 1    
    37   32   35 1    
    38   32   36 1    
    39   36   37 1    
    40   36   38 1    
    41   38   39 2    
    42   38   40 am   
    43   40   41 1    
    44   41   42 1    
    45   42   43 1    
    46   43   44 2    
    47   43   45 am   
    48   45   46 1    
    49   46   47 1    
    50   47   48 1    
    51   48   49 1    
    52   49   50 2    
    53   49   51 1    
@<TRIPOS>SUBSTRUCTURE
     1 ACO1001     1 GROUP   
@<TRIPOS>SET
ATOM$ORANGE STATIC     ATOMS   COLORGROUP SYSTEM 
46 2 2 4 4 5 5 6 6 9 9 11 11 12 12 14 14 20 \
20 22 22 32 32 33 33 34 34 35 35 36 36 38 38 41 41 42 \
42 43 43 46 46 47 47 49 49 51 51 

