#    Name: 6ajn_2_ACO
#    Modification time : Fri May 22 19:32:14 2020

@<TRIPOS>MOLECULE
6ajn_2_ACO
   51    53     1     0     1
SMALL
NO_CHARGES


@<TRIPOS>ATOM
      1 N1A        13.1790    7.4180   20.6150 N.ar      1 ACO1001     0.0000 
      2 C2A        14.3870    6.9930   20.2080 C.ar      1 ACO1001     0.0000 
      3 N3A        15.2290    6.2440   20.9500 N.ar      1 ACO1001     0.0000 
      4 C4A        14.8740    5.8710   22.2010 C.ar      1 ACO1001     0.0000 
      5 C5A        13.5650    6.2930   22.7280 C.ar      1 ACO1001     0.0000 
      6 C6A        12.7080    7.1130   21.8400 C.ar      1 ACO1001     0.0000 
      7 N6A        11.4940    7.5410   22.2480 N.pl3     1 ACO1001     0.0000 
      8 N7A        13.4630    5.7990   23.9640 N.2       1 ACO1001     0.0000 
      9 C8A        14.5880    5.1060   24.2630 C.2       1 ACO1001     0.0000 
     10 N9A        15.4190    5.1690   23.2040 N.pl3     1 ACO1001     0.0000 
     11 C1B        16.7470    4.5200   23.1900 C.3       1 ACO1001     0.0000 
     12 C2B        16.9200    3.5070   22.0620 C.3       1 ACO1001     0.0000 
     13 O2B        16.4370    2.1880   22.3660 O.3       1 ACO1001     0.0000 
     14 C3B        18.4120    3.5980   21.7010 C.3       1 ACO1001     0.0000 
     15 O3B        19.2900    2.4560   21.7080 O.3       1 ACO1001     0.0000 
     16 P3B        18.9350    0.9500   22.1940 P.3       1 ACO1001     0.0000 
     17 O7A        20.2830    0.3570   22.5700 O.co2     1 ACO1001     0.0000 
     18 O8A        17.9990    1.1390   23.3780 O.co2     1 ACO1001     0.0000 
     19 O9A        18.2640    0.3020   20.9890 O.co2     1 ACO1001     0.0000 
     20 C4B        18.9220    4.6310   22.6990 C.3       1 ACO1001     0.0000 
     21 O4B        17.8220    5.4550   23.0790 O.3       1 ACO1001     0.0000 
     22 C5B        20.1270    5.4130   22.2050 C.3       1 ACO1001     0.0000 
     23 O5B        21.1400    5.0470   23.1360 O.3       1 ACO1001     0.0000 
     24 P1A        21.6110    6.1530   24.1930 P.3       1 ACO1001     0.0000 
     25 O1A        22.7380    5.6080   25.0380 O.co2     1 ACO1001     0.0000 
     26 O2A        20.3840    6.7300   24.8690 O.co2     1 ACO1001     0.0000 
     27 O3A        22.2130    7.2220   23.1610 O.3       1 ACO1001     0.0000 
     28 P2A        23.7120    7.7780   23.3020 P.3       1 ACO1001     0.0000 
     29 O4A        24.4110    7.1540   24.4860 O.co2     1 ACO1001     0.0000 
     30 O5A        24.3830    7.6510   21.9580 O.co2     1 ACO1001     0.0000 
     31 O6A        23.4150    9.3340   23.6040 O.3       1 ACO1001     0.0000 
     32 CBP        24.8450   10.7900   24.8010 C.3       1 ACO1001     0.0000 
     33 CCP        24.4420   10.3110   23.3960 C.3       1 ACO1001     0.0000 
     34 CDP        25.4110    9.8390   25.8660 C.3       1 ACO1001     0.0000 
     35 CEP        24.6030   12.2430   25.2430 C.3       1 ACO1001     0.0000 
     36 CAP        26.3500   10.8610   24.3300 C.3       1 ACO1001     0.0000 
     37 OAP        26.6890    9.6890   23.5630 O.3       1 ACO1001     0.0000 
     38 C9P        26.9650   12.0460   23.5990 C.2       1 ACO1001     0.0000 
     39 O9P        28.1860   12.0700   23.5180 O.2       1 ACO1001     0.0000 
     40 N8P        26.2550   13.0250   23.0340 N.am      1 ACO1001     0.0000 
     41 C7P        26.8720   14.3060   22.7380 C.3       1 ACO1001     0.0000 
     42 C6P        27.6540   14.9450   23.8860 C.3       1 ACO1001     0.0000 
     43 C5P        26.8380   15.0430   25.1560 C.2       1 ACO1001     0.0000 
     44 O5P        25.9520   15.8780   25.2520 O.2       1 ACO1001     0.0000 
     45 N4P        27.1270   14.2030   26.1540 N.am      1 ACO1001     0.0000 
     46 C3P        26.3350   14.1710   27.3780 C.3       1 ACO1001     0.0000 
     47 C2P        27.1180   14.5520   28.6210 C.3       1 ACO1001     0.0000 
     48 S1P        26.4530   15.9910   29.3830 S.3       1 ACO1001     0.0000 
     49 C          27.7260   16.2440   30.4210 C.2       1 ACO1001     0.0000 
     50 O          28.1510   15.2970   31.0700 O.2       1 ACO1001     0.0000 
     51 CH3        28.3610   17.6050   30.4990 C.3       1 ACO1001     0.0000 
@<TRIPOS>BOND
     1    1    2 ar   
     2    1    6 ar   
     3    2    3 ar   
     4    3    4 ar   
     5    4    5 ar   
     6    4   10 1    
     7    5    6 ar   
     8    5    8 1    
     9    6    7 1    
    10    8    9 2    
    11    9   10 1    
    12   10   11 1    
    13   11   12 1    
    14   11   21 1    
    15   12   13 1    
    16   12   14 1    
    17   14   15 1    
    18   14   20 1    
    19   15   16 1    
    20   16   17 ar   
    21   16   18 ar   
    22   16   19 ar   
    23   20   21 1    
    24   20   22 1    
    25   22   23 1    
    26   23   24 1    
    27   24   25 ar   
    28   24   26 ar   
    29   24   27 1    
    30   27   28 1    
    31   28   29 ar   
    32   28   30 ar   
    33   28   31 1    
    34   31   33 1    
    35   32   33 1    
    36   32   34 1    
    37   32   35 1    
    38   32   36 1    
    39   36   37 1    
    40   36   38 1    
    41   38   39 2    
    42   38   40 am   
    43   40   41 1    
    44   41   42 1    
    45   42   43 1    
    46   43   44 2    
    47   43   45 am   
    48   45   46 1    
    49   46   47 1    
    50   47   48 1    
    51   48   49 1    
    52   49   50 2    
    53   49   51 1    
@<TRIPOS>SUBSTRUCTURE
     1 ACO1001     1 GROUP   
@<TRIPOS>SET
ATOM$ORANGE STATIC     ATOMS   COLORGROUP SYSTEM 
46 2 2 4 4 5 5 6 6 9 9 11 11 12 12 14 14 20 \
20 22 22 32 32 33 33 34 34 35 35 36 36 38 38 41 41 42 \
42 43 43 46 46 47 47 49 49 51 51 

