#    Name: 6efh_1_TPP
#    Modification time : Fri May 22 19:36:15 2020

@<TRIPOS>MOLECULE
6efh_1_TPP
   26    27     1     0     1
SMALL
NO_CHARGES


@<TRIPOS>ATOM
      1 N1'       -44.0180  -44.9480   24.1340 N.ar      1 TPP602      0.0000 
      2 C2'       -44.9640  -45.2710   25.0730 C.ar      1 TPP602      0.0000 
      3 CM2       -44.8680  -46.4730   25.9960 C.3       1 TPP602      0.0000 
      4 N3'       -46.0610  -44.5030   25.2170 N.ar      1 TPP602      0.0000 
      5 C4'       -46.2550  -43.4060   24.4590 C.ar      1 TPP602      0.0000 
      6 N4'       -47.3760  -42.7070   24.6850 N.pl3     1 TPP602      0.0000 
      7 C5'       -45.2560  -43.0150   23.4160 C.ar      1 TPP602      0.0000 
      8 C6'       -44.1340  -43.8650   23.3290 C.ar      1 TPP602      0.0000 
      9 C7'       -45.4740  -41.7730   22.5050 C.3       1 TPP602      0.0000 
     10 N3        -46.5930  -41.9410   21.5170 N.pl3     1 TPP602      0.0000 
     11 C2        -47.8510  -41.5020   21.7680 C.2       1 TPP602      0.0000 
     12 S1        -49.0760  -41.7740   20.5580 S.3       1 TPP602      0.0000 
     13 C5        -47.8440  -42.5270   19.6040 C.2       1 TPP602      0.0000 
     14 C4        -46.5150  -42.5330   20.2780 C.2       1 TPP602      0.0000 
     15 CM4       -45.3020  -43.1450   19.6190 C.3       1 TPP602      0.0000 
     16 C6        -48.3220  -43.0480   18.2680 C.3       1 TPP602      0.0000 
     17 C7        -49.3370  -44.1850   18.4570 C.3       1 TPP602      0.0000 
     18 O7        -49.4690  -44.9980   17.2810 O.3       1 TPP602      0.0000 
     19 PA        -50.8990  -45.3180   16.5650 P.3       1 TPP602      0.0000 
     20 O1A       -50.6050  -45.8820   15.1790 O.co2     1 TPP602      0.0000 
     21 O2A       -51.7340  -46.1140   17.5890 O.co2     1 TPP602      0.0000 
     22 O3A       -51.6040  -43.8640   16.2390 O.3       1 TPP602      0.0000 
     23 PB        -52.7410  -43.4520   15.1060 P.3       1 TPP602      0.0000 
     24 O1B       -52.0440  -43.5790   13.7690 O.co2     1 TPP602      0.0000 
     25 O2B       -53.0170  -42.0770   15.6670 O.co2     1 TPP602      0.0000 
     26 O3B       -53.9450  -44.3550   15.1130 O.co2     1 TPP602      0.0000 
@<TRIPOS>BOND
     1    1    2 ar   
     2    1    8 ar   
     3    2    3 1    
     4    2    4 ar   
     5    4    5 ar   
     6    5    6 1    
     7    5    7 ar   
     8    7    8 ar   
     9    7    9 1    
    10    9   10 1    
    11   10   11 2    
    12   10   14 1    
    13   11   12 1    
    14   12   13 1    
    15   13   14 2    
    16   13   16 1    
    17   14   15 1    
    18   16   17 1    
    19   17   18 1    
    20   18   19 1    
    21   19   20 ar   
    22   19   21 ar   
    23   19   22 1    
    24   22   23 1    
    25   23   24 ar   
    26   23   25 ar   
    27   23   26 ar   
@<TRIPOS>SUBSTRUCTURE
     1 TPP602      1 GROUP   
@<TRIPOS>SET
ATOM$ORANGE STATIC     ATOMS   COLORGROUP SYSTEM 
24 2 2 3 3 5 5 7 7 8 8 9 9 11 11 13 13 14 \
14 15 15 16 16 17 17 

