#    Name: 6o36_2_GNP
#    Modification time : Fri May 22 19:28:30 2020

@<TRIPOS>MOLECULE
6o36_2_GNP
   32    34     1     0     1
SMALL
NO_CHARGES


@<TRIPOS>ATOM
      1 PG         13.7140   -4.9740   10.8440 P.3       1 GNP202      0.0000 
      2 O1G        12.8790   -5.4920    9.7710 O.co2     1 GNP202      0.0000 
      3 O2G        13.9300   -6.0830   11.9630 O.co2     1 GNP202      0.0000 
      4 O3G        15.1210   -4.5930   10.2610 O.co2     1 GNP202      0.0000 
      5 N3B        13.0860   -3.6490   11.5450 N.3       1 GNP202      0.0000 
      6 PB         12.6360   -2.2470   10.8570 P.3       1 GNP202      0.0000 
      7 O1B        13.7590   -1.5440   10.2550 O.co2     1 GNP202      0.0000 
      8 O2B        11.5630   -2.5560    9.7330 O.co2     1 GNP202      0.0000 
      9 O3A        11.8960   -1.3640   11.9770 O.3       1 GNP202      0.0000 
     10 PA         10.3990   -1.3650   12.5110 P.3       1 GNP202      0.0000 
     11 O1A         9.4880   -0.6480   11.5930 O.co2     1 GNP202      0.0000 
     12 O2A        10.0300   -2.8220   12.8000 O.co2     1 GNP202      0.0000 
     13 O5'        10.4640   -0.5910   13.9190 O.3       1 GNP202      0.0000 
     14 C5'        11.2850   -1.0510   15.0110 C.3       1 GNP202      0.0000 
     15 C4'        10.8280   -0.3630   16.2730 C.3       1 GNP202      0.0000 
     16 O4'        11.0130    1.0660   16.1450 O.3       1 GNP202      0.0000 
     17 C3'         9.3570   -0.5650   16.6390 C.3       1 GNP202      0.0000 
     18 O3'         9.2000   -0.6330   18.0510 O.3       1 GNP202      0.0000 
     19 C2'         8.6940    0.6870   16.0610 C.3       1 GNP202      0.0000 
     20 O2'         7.4870    1.0210   16.7340 O.3       1 GNP202      0.0000 
     21 C1'         9.7760    1.7310   16.3270 C.3       1 GNP202      0.0000 
     22 N9          9.7290    2.8810   15.4100 N.pl3     1 GNP202      0.0000 
     23 C8          9.7820    2.8540   14.0390 C.2       1 GNP202      0.0000 
     24 N7          9.7400    4.0490   13.4970 N.2       1 GNP202      0.0000 
     25 C5          9.6570    4.9130   14.5760 C.2       1 GNP202      0.0000 
     26 C6          9.6020    6.3410   14.6360 C.2       1 GNP202      0.0000 
     27 O6          9.6320    7.1280   13.6910 O.2       1 GNP202      0.0000 
     28 N1          9.5330    6.8050   15.9350 N.am      1 GNP202      0.0000 
     29 C2          9.5190    6.0170   17.0540 C.2       1 GNP202      0.0000 
     30 N2          9.4350    6.6390   18.2320 N.pl3     1 GNP202      0.0000 
     31 N3          9.5750    4.6890   17.0150 N.2       1 GNP202      0.0000 
     32 C4          9.6440    4.2070   15.7600 C.2       1 GNP202      0.0000 
@<TRIPOS>BOND
     1    1    2 ar   
     2    1    3 ar   
     3    1    4 ar   
     4    1    5 1    
     5    5    6 1    
     6    6    7 ar   
     7    6    8 ar   
     8    6    9 1    
     9    9   10 1    
    10   10   11 ar   
    11   10   12 ar   
    12   10   13 1    
    13   13   14 1    
    14   14   15 1    
    15   15   16 1    
    16   15   17 1    
    17   16   21 1    
    18   17   18 1    
    19   17   19 1    
    20   19   20 1    
    21   19   21 1    
    22   21   22 1    
    23   22   23 1    
    24   22   32 1    
    25   23   24 2    
    26   24   25 1    
    27   25   26 1    
    28   25   32 2    
    29   26   27 2    
    30   26   28 am   
    31   28   29 1    
    32   29   30 1    
    33   29   31 2    
    34   31   32 1    
@<TRIPOS>SUBSTRUCTURE
     1 GNP202      1 GROUP   
@<TRIPOS>SET
ATOM$ORANGE STATIC     ATOMS   COLORGROUP SYSTEM 
20 14 14 15 15 17 17 19 19 21 21 23 23 25 25 26 26 29 \
29 32 32 

