#    Name: 6o36_3_GNP_CAVITY_N1_4
#    Modification time : Fri May 22 19:28:39 2020

@<TRIPOS>MOLECULE
6o36_3_GNP_CAVITY_N1_4
  109     0     7     0     0
SMALL
NO_CHARGES


@<TRIPOS>ATOM
      1 OG         37.7800   -2.7100   32.3400 O.3       1 SER1        0.0000 
      2 OG         38.1100   -1.3800   31.7300 O.3       1 SER1        0.0000 
      3 OG         38.4000    0.8400   33.0500 O.3       1 SER1        0.0000 
      4 OG         33.8900   -2.5400   38.0000 O.3       1 SER1        0.0000 
      5 OG         32.8300   -1.8900   38.8400 O.3       1 SER1        0.0000 
      6 OG         34.9000   -2.3000   39.0800 O.3       1 SER1        0.0000 
      7 N          32.5400   -0.3600   34.6200 N.am      2 ALA2        0.0000 
      8 O          31.1400   -1.0400   36.0700 O.2       2 ALA2        0.0000 
      9 O          31.4800    0.2900   35.4600 O.2       2 ALA2        0.0000 
     10 N          38.4500   -3.8000   34.0300 N.am      2 ALA2        0.0000 
     11 N          37.0600   -4.4900   35.4700 N.am      2 ALA2        0.0000 
     12 N          37.4000   -3.1600   34.8700 N.am      2 ALA2        0.0000 
     13 N          36.0000   -3.8400   36.3200 N.am      2 ALA2        0.0000 
     14 O          33.1000    4.0800   37.2600 O.2       2 ALA2        0.0000 
     15 O          33.4400    5.4100   36.6500 O.2       2 ALA2        0.0000 
     16 N          39.4600   -3.5600   35.1100 N.am      2 ALA2        0.0000 
     17 N          38.4000   -2.9100   35.9500 N.am      2 ALA2        0.0000 
     18 N          37.0100   -3.6000   37.4000 N.am      2 ALA2        0.0000 
     19 N          37.3500   -2.2700   36.7900 N.am      2 ALA2        0.0000 
     20 N          35.9600   -2.9500   38.2400 N.am      2 ALA2        0.0000 
     21 O          34.4500    5.6500   37.7300 O.2       2 ALA2        0.0000 
     22 N          39.7500   -1.3400   36.4300 N.am      2 ALA2        0.0000 
     23 N          38.3600   -2.0200   37.8800 N.am      2 ALA2        0.0000 
     24 N          38.6900   -0.6900   37.2700 N.am      2 ALA2        0.0000 
     25 N          37.3000   -1.3800   38.7200 N.am      2 ALA2        0.0000 
     26 N          37.6300   -0.0400   38.1100 N.am      2 ALA2        0.0000 
     27 N          36.5700    0.6000   38.9500 N.am      2 ALA2        0.0000 
     28 N          38.9700    1.5300   38.5900 N.am      2 ALA2        0.0000 
     29 OD1        30.5300   -4.5900   35.3600 O.co2     3 ASP3        0.0000 
     30 OD1        29.8000   -2.6100   35.5900 O.co2     3 ASP3        0.0000 
     31 OD1        30.8100   -2.3700   36.6800 O.co2     3 ASP3        0.0000 
     32 OD1        34.9400    0.5600   34.2500 O.co2     3 ASP3        0.0000 
     33 OD1        33.8800    1.2100   35.1000 O.co2     3 ASP3        0.0000 
     34 NZ         36.9000    5.6900   35.4400 N.4       4 LYS4        0.0000 
     35 NZ         35.8400    6.3400   36.2800 N.4       4 LYS4        0.0000 
     36 CZ         37.3900    0.6000   31.9600 C.ar      5 PHE5        0.0000 
     37 CZ         36.9600    1.0400   36.4200 C.ar      5 PHE5        0.0000 
     38 CZ         37.2900    2.3800   35.8100 C.ar      5 PHE5        0.0000 
     39 CZ         35.5600    0.3600   37.8700 C.ar      5 PHE5        0.0000 
     40 CZ         35.9000    1.6900   37.2600 C.ar      5 PHE5        0.0000 
     41 CZ         36.2300    3.0200   36.6600 C.ar      5 PHE5        0.0000 
     42 CZ         36.5600    4.3600   36.0500 C.ar      5 PHE5        0.0000 
     43 CZ         34.8400    2.3400   38.1000 C.ar      5 PHE5        0.0000 
     44 CZ         35.1700    3.6700   37.5000 C.ar      5 PHE5        0.0000 
     45 CZ         35.5100    5.0000   36.8900 C.ar      5 PHE5        0.0000 
     46 CZ         34.1100    4.3200   38.3400 C.ar      5 PHE5        0.0000 
     47 CZ         37.9600    1.2900   37.5000 C.ar      5 PHE5        0.0000 
     48 CZ         38.3000    2.6200   36.9000 C.ar      5 PHE5        0.0000 
     49 CZ         40.3700    2.2100   37.1400 C.ar      5 PHE5        0.0000 
     50 CA         30.5700   -5.4800   33.4300 C.3       6 GLY6        0.0000 
     51 CA         31.5800   -5.2400   34.5200 C.3       6 GLY6        0.0000 
     52 CA         30.8600   -3.2600   34.7500 C.3       6 GLY6        0.0000 
     53 CA         32.9300   -3.6700   34.9900 C.3       6 GLY6        0.0000 
     54 CA         33.2600   -2.3400   34.3900 C.3       6 GLY6        0.0000 
     55 CA         32.2000   -1.6900   35.2300 C.3       6 GLY6        0.0000 
     56 CA         34.6600   -5.4100   35.8400 C.3       6 GLY6        0.0000 
     57 CA         33.6000   -4.7600   36.6800 C.3       6 GLY6        0.0000 
     58 CA         31.8200   -2.1300   37.7600 C.3       6 GLY6        0.0000 
     59 CA         32.1500   -0.8000   37.1500 C.3       6 GLY6        0.0000 
     60 CA         32.4900    0.5300   36.5500 C.3       6 GLY6        0.0000 
     61 CA         32.8200    1.8600   35.9400 C.3       6 GLY6        0.0000 
     62 CA         31.0900   -0.1500   37.9900 C.3       6 GLY6        0.0000 
     63 CA         35.2200    2.7800   35.5700 C.3       6 GLY6        0.0000 
     64 CA         35.5500    4.1100   34.9700 C.3       6 GLY6        0.0000 
     65 CA         35.8900    5.4500   34.3600 C.3       6 GLY6        0.0000 
     66 CA         33.1600   -0.5600   38.2400 C.3       6 GLY6        0.0000 
     67 CA         33.5000    0.7700   37.6300 C.3       6 GLY6        0.0000 
     68 CA         33.8300    2.1000   37.0200 C.3       6 GLY6        0.0000 
     69 CA         34.1600    3.4300   36.4100 C.3       6 GLY6        0.0000 
     70 CA         34.5000    4.7600   35.8100 C.3       6 GLY6        0.0000 
     71 CA         34.8300    6.0900   35.2000 C.3       6 GLY6        0.0000 
     72 CA         40.1300   -0.9000   33.9000 C.3       6 GLY6        0.0000 
     73 CA         35.2300   -0.9700   38.4800 C.3       6 GLY6        0.0000 
     74 CA         33.8400   -1.6500   39.9200 C.3       6 GLY6        0.0000 
     75 CA         34.1700   -0.3200   39.3200 C.3       6 GLY6        0.0000 
     76 CA         34.5100    1.0100   38.7100 C.3       6 GLY6        0.0000 
     77 CA         39.7000   -0.4500   38.3500 C.3       6 GLY6        0.0000 
     78 CA         40.0300    0.8800   37.7500 C.3       6 GLY6        0.0000 
     79 DU         31.8700   -3.0200   35.8300 H         7 CUB7        0.0000 
     80 DU         37.4400   -4.0500   32.9400 H         7 CUB7        0.0000 
     81 DU         36.7200   -2.0700   33.1800 H         7 CUB7        0.0000 
     82 DU         37.0500   -0.7400   32.5700 H         7 CUB7        0.0000 
     83 DU         34.9900   -4.0800   35.2300 H         7 CUB7        0.0000 
     84 DU         35.9900   -0.0900   33.4100 H         7 CUB7        0.0000 
     85 DU         33.9400   -3.4300   36.0700 H         7 CUB7        0.0000 
     86 DU         34.6000   -0.7700   34.8600 H         7 CUB7        0.0000 
     87 DU         32.8800   -2.7800   36.9200 H         7 CUB7        0.0000 
     88 DU         33.2100   -1.4500   36.3100 H         7 CUB7        0.0000 
     89 DU         33.5400   -0.1200   35.7000 H         7 CUB7        0.0000 
     90 DU         38.7900   -2.4700   33.4200 H         7 CUB7        0.0000 
     91 DU         39.1200   -1.1400   32.8100 H         7 CUB7        0.0000 
     92 DU         37.7300   -1.8200   34.2600 H         7 CUB7        0.0000 
     93 DU         36.3400   -2.5100   35.7100 H         7 CUB7        0.0000 
     94 DU         34.9500   -3.1900   37.1600 H         7 CUB7        0.0000 
     95 DU         35.9500    0.8000   35.3400 H         7 CUB7        0.0000 
     96 DU         34.2200   -1.2100   37.3900 H         7 CUB7        0.0000 
     97 DU         34.5500    0.1200   36.7900 H         7 CUB7        0.0000 
     98 DU         34.8900    1.4500   36.1800 H         7 CUB7        0.0000 
     99 DU         39.8000   -2.2300   34.5000 H         7 CUB7        0.0000 
    100 DU         38.7400   -1.5800   35.3400 H         7 CUB7        0.0000 
    101 DU         39.4100    1.0800   34.1300 H         7 CUB7        0.0000 
    102 DU         37.6800   -0.9300   36.1900 H         7 CUB7        0.0000 
    103 DU         38.0100    0.4000   35.5800 H         7 CUB7        0.0000 
    104 DU         38.3500    1.7300   34.9700 H         7 CUB7        0.0000 
    105 DU         36.2900   -1.6200   37.6300 H         7 CUB7        0.0000 
    106 DU         36.6200   -0.2900   37.0300 H         7 CUB7        0.0000 
    107 DU         37.6200    3.7100   35.2100 H         7 CUB7        0.0000 
    108 DU         39.0200    0.6400   36.6600 H         7 CUB7        0.0000 
    109 DU         39.3600    1.9700   36.0600 H         7 CUB7        0.0000 
@<TRIPOS>BOND
@<TRIPOS>SUBSTRUCTURE
     1 SER1        1 GROUP   
     2 ALA2        7 GROUP   
     3 ASP3       29 GROUP   
     4 LYS4       34 GROUP   
     5 PHE5       36 GROUP   
     6 GLY6       50 GROUP   
     7 CUB7       79 GROUP   
@<TRIPOS>SET

