#    Name: 6o36_3_GNP
#    Modification time : Fri May 22 19:28:37 2020

@<TRIPOS>MOLECULE
6o36_3_GNP
   32    34     1     0     1
SMALL
NO_CHARGES


@<TRIPOS>ATOM
      1 PG         28.2380   -4.7260   35.1460 P.3       1 GNP202      0.0000 
      2 O1G        27.8310   -5.1730   36.4700 O.co2     1 GNP202      0.0000 
      3 O2G        29.0550   -5.8800   34.4240 O.co2     1 GNP202      0.0000 
      4 O3G        26.9520   -4.4080   34.2900 O.co2     1 GNP202      0.0000 
      5 N3B        29.1750   -3.3970   35.1940 N.3       1 GNP202      0.0000 
      6 PB         28.9990   -2.0280   36.0610 P.3       1 GNP202      0.0000 
      7 O1B        27.9340   -1.1790   35.5460 O.co2     1 GNP202      0.0000 
      8 O2B        28.6630   -2.3970   37.5600 O.co2     1 GNP202      0.0000 
      9 O3A        30.4180   -1.2820   36.0700 O.3       1 GNP202      0.0000 
     10 PA         31.6220   -1.2610   37.1110 P.3       1 GNP202      0.0000 
     11 O1A        31.2610   -0.5940   38.3820 O.co2     1 GNP202      0.0000 
     12 O2A        32.1390   -2.6920   37.2470 O.co2     1 GNP202      0.0000 
     13 O5'        32.7350   -0.4440   36.2810 O.3       1 GNP202      0.0000 
     14 C5'        33.1740   -0.9420   34.9990 C.3       1 GNP202      0.0000 
     15 C4'        34.5390   -0.3760   34.7020 C.3       1 GNP202      0.0000 
     16 O4'        34.4590    1.0640   34.6160 O.3       1 GNP202      0.0000 
     17 C3'        35.6200   -0.6770   35.7390 C.3       1 GNP202      0.0000 
     18 O3'        36.8820   -0.8480   35.1040 O.3       1 GNP202      0.0000 
     19 C2'        35.5920    0.5710   36.6250 C.3       1 GNP202      0.0000 
     20 O2'        36.8430    0.8130   37.2580 O.3       1 GNP202      0.0000 
     21 C1'        35.2950    1.6580   35.5920 C.3       1 GNP202      0.0000 
     22 N9         34.5960    2.8310   36.1470 N.pl3     1 GNP202      0.0000 
     23 C8         33.3960    2.8510   36.8110 C.2       1 GNP202      0.0000 
     24 N7         33.0230    4.0580   37.1730 N.2       1 GNP202      0.0000 
     25 C5         34.0400    4.8810   36.7160 C.2       1 GNP202      0.0000 
     26 C6         34.2090    6.3020   36.7920 C.2       1 GNP202      0.0000 
     27 O6         33.4460    7.1170   37.3070 O.2       1 GNP202      0.0000 
     28 N1         35.3820    6.7180   36.1940 N.am      1 GNP202      0.0000 
     29 C2         36.2990    5.8950   35.5960 C.2       1 GNP202      0.0000 
     30 N2         37.3900    6.4710   35.0880 N.pl3     1 GNP202      0.0000 
     31 N3         36.1540    4.5750   35.5140 N.2       1 GNP202      0.0000 
     32 C4         35.0160    4.1380   36.0860 C.2       1 GNP202      0.0000 
@<TRIPOS>BOND
     1    1    2 ar   
     2    1    3 ar   
     3    1    4 ar   
     4    1    5 1    
     5    5    6 1    
     6    6    7 ar   
     7    6    8 ar   
     8    6    9 1    
     9    9   10 1    
    10   10   11 ar   
    11   10   12 ar   
    12   10   13 1    
    13   13   14 1    
    14   14   15 1    
    15   15   16 1    
    16   15   17 1    
    17   16   21 1    
    18   17   18 1    
    19   17   19 1    
    20   19   20 1    
    21   19   21 1    
    22   21   22 1    
    23   22   23 1    
    24   22   32 1    
    25   23   24 2    
    26   24   25 1    
    27   25   26 1    
    28   25   32 2    
    29   26   27 2    
    30   26   28 am   
    31   28   29 1    
    32   29   30 1    
    33   29   31 2    
    34   31   32 1    
@<TRIPOS>SUBSTRUCTURE
     1 GNP202      1 GROUP   
@<TRIPOS>SET
ATOM$ORANGE STATIC     ATOMS   COLORGROUP SYSTEM 
20 14 14 15 15 17 17 19 19 21 21 23 23 25 25 26 26 29 \
29 32 32 

