#    Name: 6gvc_1_LAB
#    Modification time : Fri May 22 19:23:26 2020

@<TRIPOS>MOLECULE
6gvc_1_LAB
   27    29     1     0     0
SMALL
NO_CHARGES


@<TRIPOS>ATOM
      1 O5        -19.0880    7.4780    7.1320 O.2       1 LAB402      0.0000 
      2 C18       -18.9400    6.7410    8.0940 C.2       1 LAB402      0.0000 
      3 N1        -19.0450    7.1520    9.3500 N.am      1 LAB402      0.0000 
      4 C16       -18.7120    6.1730   10.3630 C.3       1 LAB402      0.0000 
      5 C17       -18.6370    4.8210    9.6560 C.3       1 LAB402      0.0000 
      6 S1        -18.5790    5.1240    7.9160 S.3       1 LAB402      0.0000 
      7 C15       -17.3740    6.5140   11.0100 C.3       1 LAB402      0.0000 
      8 O4        -16.3450    6.3580   10.0220 O.3       1 LAB402      0.0000 
      9 C14       -17.3780    7.9560   11.5210 C.3       1 LAB402      0.0000 
     10 C13       -16.1940    8.2620   12.4300 C.3       1 LAB402      0.0000 
     11 O2        -14.9880    8.1500   11.6890 O.3       1 LAB402      0.0000 
     12 C12       -16.1070    7.2050   13.5110 C.3       1 LAB402      0.0000 
     13 C11       -15.9610    5.8470   12.8440 C.3       1 LAB402      0.0000 
     14 O3        -17.1290    5.5800   12.0660 O.3       1 LAB402      0.0000 
     15 C10       -15.7890    4.7690   13.9160 C.3       1 LAB402      0.0000 
     16 C9        -14.9970    3.5600   13.4110 C.3       1 LAB402      0.0000 
     17 C8        -13.7100    3.9610   12.6930 C.3       1 LAB402      0.0000 
     18 C20       -13.0800    2.7150   12.0900 C.3       1 LAB402      0.0000 
     19 C7        -12.7270    4.5410   13.6810 C.2       1 LAB402      0.0000 
     20 C6        -12.1170    5.7100   13.4880 C.2       1 LAB402      0.0000 
     21 C5        -12.3670    6.5650   12.2720 C.3       1 LAB402      0.0000 
     22 C4        -12.1070    8.0200   12.6580 C.3       1 LAB402      0.0000 
     23 C3        -11.9530    8.8750   11.4220 C.2       1 LAB402      0.0000 
     24 C19       -10.5880    9.0490   10.8250 C.3       1 LAB402      0.0000 
     25 C2        -12.9970    9.4910   10.8320 C.2       1 LAB402      0.0000 
     26 C1        -14.4040    9.4200   11.2910 C.2       1 LAB402      0.0000 
     27 O1        -15.0930   10.4250   11.3320 O.2       1 LAB402      0.0000 
@<TRIPOS>BOND
     1    1    2 2    
     2    2    3 am   
     3    2    6 1    
     4    3    4 1    
     5    4    5 1    
     6    4    7 1    
     7    5    6 1    
     8    7    8 1    
     9    7    9 1    
    10    7   14 1    
    11    9   10 1    
    12   10   11 1    
    13   10   12 1    
    14   11   26 1    
    15   12   13 1    
    16   13   14 1    
    17   13   15 1    
    18   15   16 1    
    19   16   17 1    
    20   17   18 1    
    21   17   19 1    
    22   19   20 2    
    23   20   21 1    
    24   21   22 1    
    25   22   23 1    
    26   23   24 1    
    27   23   25 2    
    28   25   26 1    
    29   26   27 2    
@<TRIPOS>SUBSTRUCTURE
     1 LAB402      1 GROUP   
@<TRIPOS>SET

