#    Name: 6gvc_2_LAB
#    Modification time : Fri May 22 19:23:34 2020

@<TRIPOS>MOLECULE
6gvc_2_LAB
   27    29     1     0     0
SMALL
NO_CHARGES


@<TRIPOS>ATOM
      1 O5          2.4240   -9.2390   34.7230 O.2       1 LAB402      0.0000 
      2 C18         1.6740   -8.5670   35.4150 C.2       1 LAB402      0.0000 
      3 N1          0.9500   -9.0520   36.4160 N.am      1 LAB402      0.0000 
      4 C16         0.0310   -8.1220   37.0370 C.3       1 LAB402      0.0000 
      5 C17         0.4040   -6.7320   36.5310 C.3       1 LAB402      0.0000 
      6 S1          1.4860   -6.9360   35.1470 S.3       1 LAB402      0.0000 
      7 C15        -1.4050   -8.4660   36.6570 C.3       1 LAB402      0.0000 
      8 O4         -1.5910   -8.2810   35.2490 O.3       1 LAB402      0.0000 
      9 C14        -1.7040   -9.9220   36.9880 C.3       1 LAB402      0.0000 
     10 C13        -3.1700  -10.2470   36.7530 C.3       1 LAB402      0.0000 
     11 O2         -3.4420  -10.0810   35.3690 O.3       1 LAB402      0.0000 
     12 C12        -4.0260   -9.2540   37.5180 C.3       1 LAB402      0.0000 
     13 C11        -3.6750   -7.8420   37.0780 C.3       1 LAB402      0.0000 
     14 O3         -2.3000   -7.5890   37.3490 O.3       1 LAB402      0.0000 
     15 C10        -4.5230   -6.8410   37.8490 C.3       1 LAB402      0.0000 
     16 C9         -4.7180   -5.5340   37.0830 C.3       1 LAB402      0.0000 
     17 C8         -5.1500   -5.7510   35.6350 C.3       1 LAB402      0.0000 
     18 C20        -5.0570   -4.4210   34.8960 C.3       1 LAB402      0.0000 
     19 C7         -6.5840   -6.2280   35.5610 C.2       1 LAB402      0.0000 
     20 C6         -6.9280   -7.3450   34.9170 C.2       1 LAB402      0.0000 
     21 C5         -5.9230   -8.2370   34.2270 C.3       1 LAB402      0.0000 
     22 C4         -6.3750   -9.6900   34.3730 C.3       1 LAB402      0.0000 
     23 C3         -5.7810  -10.5450   33.2780 C.2       1 LAB402      0.0000 
     24 C19        -6.4730  -10.5840   31.9470 C.3       1 LAB402      0.0000 
     25 C2         -4.6540  -11.2650   33.4600 C.2       1 LAB402      0.0000 
     26 C1         -3.8860  -11.3060   34.7290 C.2       1 LAB402      0.0000 
     27 O1         -3.6200  -12.3670   35.2670 O.2       1 LAB402      0.0000 
@<TRIPOS>BOND
     1    1    2 2    
     2    2    3 am   
     3    2    6 1    
     4    3    4 1    
     5    4    5 1    
     6    4    7 1    
     7    5    6 1    
     8    7    8 1    
     9    7    9 1    
    10    7   14 1    
    11    9   10 1    
    12   10   11 1    
    13   10   12 1    
    14   11   26 1    
    15   12   13 1    
    16   13   14 1    
    17   13   15 1    
    18   15   16 1    
    19   16   17 1    
    20   17   18 1    
    21   17   19 1    
    22   19   20 2    
    23   20   21 1    
    24   21   22 1    
    25   22   23 1    
    26   23   24 1    
    27   23   25 2    
    28   25   26 1    
    29   26   27 2    
@<TRIPOS>SUBSTRUCTURE
     1 LAB402      1 GROUP   
@<TRIPOS>SET

