#    Name: 6gvc_4_LAB
#    Modification time : Fri May 22 19:23:39 2020

@<TRIPOS>MOLECULE
6gvc_4_LAB
   27    29     1     0     0
SMALL
NO_CHARGES


@<TRIPOS>ATOM
      1 O5         22.9170   -3.0460   -2.8560 O.2       1 LAB402      0.0000 
      2 C18        22.7120   -2.3690   -3.8510 C.2       1 LAB402      0.0000 
      3 N1         22.1610   -1.1670   -3.8080 N.am      1 LAB402      0.0000 
      4 C16        21.9420   -0.5220   -5.0830 C.3       1 LAB402      0.0000 
      5 C17        22.4980   -1.4470   -6.1590 C.3       1 LAB402      0.0000 
      6 S1         23.1130   -2.9060   -5.3770 S.3       1 LAB402      0.0000 
      7 C15        20.4530   -0.2920   -5.2640 C.3       1 LAB402      0.0000 
      8 O4         19.8050   -1.5680   -5.2970 O.3       1 LAB402      0.0000 
      9 C14        19.9210    0.5230   -4.0850 C.3       1 LAB402      0.0000 
     10 C13        18.4760    0.9350   -4.3000 C.3       1 LAB402      0.0000 
     11 O2         17.7060   -0.2500   -4.4610 O.3       1 LAB402      0.0000 
     12 C12        18.4080    1.6950   -5.6090 C.3       1 LAB402      0.0000 
     13 C11        18.8600    0.7580   -6.7230 C.3       1 LAB402      0.0000 
     14 O3         20.2210    0.3700   -6.5140 O.3       1 LAB402      0.0000 
     15 C10        18.7080    1.4590   -8.0670 C.3       1 LAB402      0.0000 
     16 C9         18.4660    0.4690   -9.2030 C.3       1 LAB402      0.0000 
     17 C8         17.3090   -0.4880   -8.9290 C.3       1 LAB402      0.0000 
     18 C20        17.1940   -1.4720  -10.0850 C.3       1 LAB402      0.0000 
     19 C7         16.0040    0.2640   -8.8250 C.2       1 LAB402      0.0000 
     20 C6         15.1840    0.1050   -7.7830 C.2       1 LAB402      0.0000 
     21 C5         15.5080   -0.8220   -6.6320 C.3       1 LAB402      0.0000 
     22 C4         14.7620   -0.3920   -5.3690 C.3       1 LAB402      0.0000 
     23 C3         14.8170   -1.5030   -4.3430 C.2       1 LAB402      0.0000 
     24 C19        13.7440   -2.5520   -4.3570 C.3       1 LAB402      0.0000 
     25 C2         15.7990   -1.5880   -3.4220 C.2       1 LAB402      0.0000 
     26 C1         16.9110   -0.6180   -3.2990 C.2       1 LAB402      0.0000 
     27 O1         17.1660   -0.1050   -2.2230 O.2       1 LAB402      0.0000 
@<TRIPOS>BOND
     1    1    2 2    
     2    2    3 am   
     3    2    6 1    
     4    3    4 1    
     5    4    5 1    
     6    4    7 1    
     7    5    6 1    
     8    7    8 1    
     9    7    9 1    
    10    7   14 1    
    11    9   10 1    
    12   10   11 1    
    13   10   12 1    
    14   11   26 1    
    15   12   13 1    
    16   13   14 1    
    17   13   15 1    
    18   15   16 1    
    19   16   17 1    
    20   17   18 1    
    21   17   19 1    
    22   19   20 2    
    23   20   21 1    
    24   21   22 1    
    25   22   23 1    
    26   23   24 1    
    27   23   25 2    
    28   25   26 1    
    29   26   27 2    
@<TRIPOS>SUBSTRUCTURE
     1 LAB402      1 GROUP   
@<TRIPOS>SET

