#    Name: 6pf1_1_COA
#    Modification time : Fri May 22 19:27:57 2020

@<TRIPOS>MOLECULE
6pf1_1_COA
   48    50     1     0     1
SMALL
NO_CHARGES


@<TRIPOS>ATOM
      1 N1A         8.8320   -1.6390   16.0750 N.ar      1 COA1701     0.0000 
      2 C2A         9.9800   -2.3220   15.9030 C.ar      1 COA1701     0.0000 
      3 N3A        10.0200   -3.6620   15.8980 N.ar      1 COA1701     0.0000 
      4 C4A         8.8820   -4.3890   16.0680 C.ar      1 COA1701     0.0000 
      5 C5A         7.5930   -3.7210   16.2760 C.ar      1 COA1701     0.0000 
      6 C6A         7.6360   -2.2450   16.2900 C.ar      1 COA1701     0.0000 
      7 N6A         6.4980   -1.5590   16.4950 N.pl3     1 COA1701     0.0000 
      8 N7A         6.6450   -4.6540   16.4300 N.2       1 COA1701     0.0000 
      9 C8A         7.2880   -5.8370   16.3340 C.2       1 COA1701     0.0000 
     10 N9A         8.6100   -5.6750   16.1040 N.pl3     1 COA1701     0.0000 
     11 C1B         9.6540   -6.7180   15.9480 C.3       1 COA1701     0.0000 
     12 C2B         9.6360   -7.6550   17.1330 C.3       1 COA1701     0.0000 
     13 O2B        10.2880   -7.0940   18.2650 O.3       1 COA1701     0.0000 
     14 C3B        10.3160   -8.8580   16.5450 C.3       1 COA1701     0.0000 
     15 O3B        11.7380   -8.7730   16.5370 O.3       1 COA1701     0.0000 
     16 P3B        12.5530  -10.1320   16.7010 P.3       1 COA1701     0.0000 
     17 O7A        12.0720  -11.0370   15.5950 O.co2     1 COA1701     0.0000 
     18 O8A        14.0020   -9.7030   16.5990 O.co2     1 COA1701     0.0000 
     19 O9A        12.2160  -10.5630   18.1050 O.co2     1 COA1701     0.0000 
     20 C4B         9.8530   -8.8540   15.0940 C.3       1 COA1701     0.0000 
     21 O4B         9.4570   -7.5310   14.8040 O.3       1 COA1701     0.0000 
     22 C5B         8.6990   -9.8290   14.8890 C.3       1 COA1701     0.0000 
     23 O5B         7.5820   -9.5230   15.7500 O.3       1 COA1701     0.0000 
     24 P1A         6.0430   -9.5250   15.2620 P.3       1 COA1701     0.0000 
     25 O1A         5.2240   -9.1750   16.4810 O.co2     1 COA1701     0.0000 
     26 O2A         5.7930   -8.6960   14.0390 O.co2     1 COA1701     0.0000 
     27 O3A         5.9110  -11.0550   14.7310 O.3       1 COA1701     0.0000 
     28 P2A         5.6220  -12.3400   15.6620 P.3       1 COA1701     0.0000 
     29 O4A         5.6360  -13.4660   14.6710 O.co2     1 COA1701     0.0000 
     30 O5A         6.5160  -12.3600   16.8410 O.co2     1 COA1701     0.0000 
     31 O6A         4.1580  -12.0210   16.2900 O.3       1 COA1701     0.0000 
     32 CBP         1.8170  -11.5180   16.3380 C.3       1 COA1701     0.0000 
     33 CCP         3.0920  -11.4920   15.5120 C.3       1 COA1701     0.0000 
     34 CDP         0.6640  -10.9980   15.4630 C.3       1 COA1701     0.0000 
     35 CEP         1.5220  -12.9640   16.7700 C.3       1 COA1701     0.0000 
     36 CAP         2.1050  -10.6610   17.5850 C.3       1 COA1701     0.0000 
     37 OAP         2.7340   -9.4140   17.2830 O.3       1 COA1701     0.0000 
     38 C9P         0.8810  -10.3670   18.3820 C.2       1 COA1701     0.0000 
     39 O9P         0.5500  -11.2290   19.1590 O.2       1 COA1701     0.0000 
     40 N8P         0.2410   -9.2090   18.2290 N.am      1 COA1701     0.0000 
     41 C7P        -1.0260   -8.9290   18.9110 C.3       1 COA1701     0.0000 
     42 C6P        -2.2370   -9.6460   18.2590 C.3       1 COA1701     0.0000 
     43 C5P        -2.5660   -9.1450   16.8670 C.2       1 COA1701     0.0000 
     44 O5P        -1.9200   -8.1980   16.5000 O.2       1 COA1701     0.0000 
     45 N4P        -3.5660   -9.7040   16.1300 N.am      1 COA1701     0.0000 
     46 C3P        -4.0210   -9.0900   14.8880 C.3       1 COA1701     0.0000 
     47 C2P        -4.9750   -9.8520   13.9620 C.3       1 COA1701     0.0000 
     48 S1P        -6.5360  -10.3100   14.7470 S.3       1 COA1701     0.0000 
@<TRIPOS>BOND
     1    1    2 ar   
     2    1    6 ar   
     3    2    3 ar   
     4    3    4 ar   
     5    4    5 ar   
     6    4   10 1    
     7    5    6 ar   
     8    5    8 1    
     9    6    7 1    
    10    8    9 2    
    11    9   10 1    
    12   10   11 1    
    13   11   12 1    
    14   11   21 1    
    15   12   13 1    
    16   12   14 1    
    17   14   15 1    
    18   14   20 1    
    19   15   16 1    
    20   16   17 ar   
    21   16   18 ar   
    22   16   19 ar   
    23   20   21 1    
    24   20   22 1    
    25   22   23 1    
    26   23   24 1    
    27   24   25 ar   
    28   24   26 ar   
    29   24   27 1    
    30   27   28 1    
    31   28   29 ar   
    32   28   30 ar   
    33   28   31 1    
    34   31   33 1    
    35   32   33 1    
    36   32   34 1    
    37   32   35 1    
    38   32   36 1    
    39   36   37 1    
    40   36   38 1    
    41   38   39 2    
    42   38   40 am   
    43   40   41 1    
    44   41   42 1    
    45   42   43 1    
    46   43   44 2    
    47   43   45 am   
    48   45   46 1    
    49   46   47 1    
    50   47   48 1    
@<TRIPOS>SUBSTRUCTURE
     1 COA1701     1 GROUP   
@<TRIPOS>SET
ATOM$ORANGE STATIC     ATOMS   COLORGROUP SYSTEM 
42 2 2 4 4 5 5 6 6 9 9 11 11 12 12 14 14 20 \
20 22 22 32 32 33 33 34 34 35 35 36 36 38 38 41 41 42 \
42 43 43 46 46 47 47 

