#    Name: 6pf1_2_COA
#    Modification time : Fri May 22 19:28:03 2020

@<TRIPOS>MOLECULE
6pf1_2_COA
   48    50     1     0     1
SMALL
NO_CHARGES


@<TRIPOS>ATOM
      1 N1A        -7.4510   27.4380  -20.8990 N.ar      1 COA1701     0.0000 
      2 C2A        -6.6670   28.5230  -21.1010 C.ar      1 COA1701     0.0000 
      3 N3A        -5.3660   28.5540  -20.7240 N.ar      1 COA1701     0.0000 
      4 C4A        -4.7780   27.4740  -20.1280 C.ar      1 COA1701     0.0000 
      5 C5A        -5.5820   26.2650  -19.8760 C.ar      1 COA1701     0.0000 
      6 C6A        -7.0130   26.3070  -20.2930 C.ar      1 COA1701     0.0000 
      7 N6A        -7.8150   25.2340  -20.0860 N.pl3     1 COA1701     0.0000 
      8 N7A        -4.7860   25.3680  -19.2780 N.2       1 COA1701     0.0000 
      9 C8A        -3.5650   25.9390  -19.1580 C.2       1 COA1701     0.0000 
     10 N9A        -3.5610   27.1890  -19.6710 N.pl3     1 COA1701     0.0000 
     11 C1B        -2.4060   28.1180  -19.6910 C.3       1 COA1701     0.0000 
     12 C2B        -1.9290   28.4250  -18.2770 C.3       1 COA1701     0.0000 
     13 O2B        -2.6800   29.4730  -17.6690 O.3       1 COA1701     0.0000 
     14 C3B        -0.5140   28.8320  -18.5380 C.3       1 COA1701     0.0000 
     15 O3B        -0.4660   30.2040  -18.8700 O.3       1 COA1701     0.0000 
     16 P3B         0.7880   31.0920  -18.3920 P.3       1 COA1701     0.0000 
     17 O7A         1.9500   30.3030  -18.9380 O.co2     1 COA1701     0.0000 
     18 O8A         0.6200   32.4260  -19.0800 O.co2     1 COA1701     0.0000 
     19 O9A         0.6690   31.0810  -16.8670 O.co2     1 COA1701     0.0000 
     20 C4B        -0.0870   28.0250  -19.7570 C.3       1 COA1701     0.0000 
     21 O4B        -1.2940   27.5480  -20.3620 O.3       1 COA1701     0.0000 
     22 C5B         0.8110   26.8510  -19.4210 C.3       1 COA1701     0.0000 
     23 O5B         0.1370   26.0120  -18.4860 O.3       1 COA1701     0.0000 
     24 P1A         0.0630   24.4080  -18.6740 P.3       1 COA1701     0.0000 
     25 O1A        -0.6400   23.8700  -17.4680 O.co2     1 COA1701     0.0000 
     26 O2A        -0.3020   24.0420  -20.1120 O.co2     1 COA1701     0.0000 
     27 O3A         1.6460   24.0230  -18.5730 O.3       1 COA1701     0.0000 
     28 P2A         2.5510   24.0230  -17.2350 P.3       1 COA1701     0.0000 
     29 O4A         3.9670   23.7710  -17.7290 O.co2     1 COA1701     0.0000 
     30 O5A         2.1560   25.1380  -16.3460 O.co2     1 COA1701     0.0000 
     31 O6A         2.0710   22.7100  -16.4870 O.3       1 COA1701     0.0000 
     32 CBP         1.2470   20.4880  -16.1440 C.3       1 COA1701     0.0000 
     33 CCP         1.7850   21.4800  -17.1600 C.3       1 COA1701     0.0000 
     34 CDP         0.8390   19.2550  -16.8990 C.3       1 COA1701     0.0000 
     35 CEP         2.3850   20.1160  -15.2200 C.3       1 COA1701     0.0000 
     36 CAP         0.0750   21.0970  -15.3260 C.3       1 COA1701     0.0000 
     37 OAP        -0.8330   21.7360  -16.2370 O.3       1 COA1701     0.0000 
     38 C9P        -0.6740   20.1380  -14.4020 C.2       1 COA1701     0.0000 
     39 O9P        -0.2790   19.9910  -13.2540 O.2       1 COA1701     0.0000 
     40 N8P        -1.7570   19.4890  -14.8590 N.am      1 COA1701     0.0000 
     41 C7P        -2.5240   18.5630  -14.0410 C.3       1 COA1701     0.0000 
     42 C6P        -2.0190   17.1090  -14.1110 C.3       1 COA1701     0.0000 
     43 C5P        -2.0430   16.6100  -15.5330 C.2       1 COA1701     0.0000 
     44 O5P        -2.7040   17.2350  -16.3460 O.2       1 COA1701     0.0000 
     45 N4P        -1.3400   15.5180  -15.8430 N.am      1 COA1701     0.0000 
     46 C3P        -1.3600   15.0090  -17.1970 C.3       1 COA1701     0.0000 
     47 C2P        -0.2370   14.0580  -17.5600 C.3       1 COA1701     0.0000 
     48 S1P        -0.6970   12.3420  -17.2690 S.3       1 COA1701     0.0000 
@<TRIPOS>BOND
     1    1    2 ar   
     2    1    6 ar   
     3    2    3 ar   
     4    3    4 ar   
     5    4    5 ar   
     6    4   10 1    
     7    5    6 ar   
     8    5    8 1    
     9    6    7 1    
    10    8    9 2    
    11    9   10 1    
    12   10   11 1    
    13   11   12 1    
    14   11   21 1    
    15   12   13 1    
    16   12   14 1    
    17   14   15 1    
    18   14   20 1    
    19   15   16 1    
    20   16   17 ar   
    21   16   18 ar   
    22   16   19 ar   
    23   20   21 1    
    24   20   22 1    
    25   22   23 1    
    26   23   24 1    
    27   24   25 ar   
    28   24   26 ar   
    29   24   27 1    
    30   27   28 1    
    31   28   29 ar   
    32   28   30 ar   
    33   28   31 1    
    34   31   33 1    
    35   32   33 1    
    36   32   34 1    
    37   32   35 1    
    38   32   36 1    
    39   36   37 1    
    40   36   38 1    
    41   38   39 2    
    42   38   40 am   
    43   40   41 1    
    44   41   42 1    
    45   42   43 1    
    46   43   44 2    
    47   43   45 am   
    48   45   46 1    
    49   46   47 1    
    50   47   48 1    
@<TRIPOS>SUBSTRUCTURE
     1 COA1701     1 GROUP   
@<TRIPOS>SET
ATOM$ORANGE STATIC     ATOMS   COLORGROUP SYSTEM 
42 2 2 4 4 5 5 6 6 9 9 11 11 12 12 14 14 20 \
20 22 22 32 32 33 33 34 34 35 35 36 36 38 38 41 41 42 \
42 43 43 46 46 47 47 

