#    Name: 6j6j_1_BTN_CAVITY_N1_4
#    Modification time : Fri May 22 19:33:10 2020

@<TRIPOS>MOLECULE
6j6j_1_BTN_CAVITY_N1_4
   71     0     5     0     0
SMALL
NO_CHARGES


@<TRIPOS>ATOM
      1 OG         73.9900   51.2100   66.6100 O.3       1 SER1        0.0000 
      2 OG         75.1800   51.8200   67.3000 O.3       1 SER1        0.0000 
      3 OG         75.4700   53.3900   68.6900 O.3       1 SER1        0.0000 
      4 OG         76.3700   52.4200   67.9800 O.3       1 SER1        0.0000 
      5 OG         76.5100   53.0300   70.5000 O.3       1 SER1        0.0000 
      6 OG         76.6700   54.0000   69.3700 O.3       1 SER1        0.0000 
      7 OG         76.3400   57.7600   76.5100 O.3       1 SER1        0.0000 
      8 N          76.0800   50.8500   66.5900 N.am      2 ALA2        0.0000 
      9 O          76.3500   52.0600   71.6300 O.2       2 ALA2        0.0000 
     10 O          76.6500   53.6400   73.0200 O.2       2 ALA2        0.0000 
     11 O          77.5400   52.6600   72.3200 O.2       2 ALA2        0.0000 
     12 O          76.8000   54.6100   71.8900 O.2       2 ALA2        0.0000 
     13 O          77.7000   53.6300   71.1800 O.2       2 ALA2        0.0000 
     14 N          76.0400   56.1800   75.1200 N.am      2 ALA2        0.0000 
     15 N          76.9400   55.2100   74.4100 N.am      2 ALA2        0.0000 
     16 CZ         72.9200   50.8500   72.1100 C.ar      3 PHE5        0.0000 
     17 CZ         73.0700   51.8200   70.9800 C.ar      3 PHE5        0.0000 
     18 CZ         74.1100   51.4600   72.7900 C.ar      3 PHE5        0.0000 
     19 CZ         74.2600   52.4300   71.6600 C.ar      3 PHE5        0.0000 
     20 CZ         73.5200   54.3700   71.2300 C.ar      3 PHE5        0.0000 
     21 CZ         75.4600   53.0300   72.3400 C.ar      3 PHE5        0.0000 
     22 CZ         74.7100   54.9700   71.9200 C.ar      3 PHE5        0.0000 
     23 CZ         73.9600   56.5500   75.1500 C.ar      3 PHE5        0.0000 
     24 CZ         74.8500   55.5800   74.4400 C.ar      3 PHE5        0.0000 
     25 CZ         75.7500   54.6100   73.7300 C.ar      3 PHE5        0.0000 
     26 CZ         73.2100   58.4900   74.7200 C.ar      3 PHE5        0.0000 
     27 CZ         74.1100   57.5200   74.0100 C.ar      3 PHE5        0.0000 
     28 CZ         75.0100   56.5500   73.3000 C.ar      3 PHE5        0.0000 
     29 CZ         75.9100   55.5800   72.6000 C.ar      3 PHE5        0.0000 
     30 CZ         74.2700   58.4900   72.8800 C.ar      3 PHE5        0.0000 
     31 CZ         74.4100   59.1000   75.4000 C.ar      3 PHE5        0.0000 
     32 CZ         76.2000   57.1500   73.9900 C.ar      3 PHE5        0.0000 
     33 CZ         77.1000   56.1800   73.2800 C.ar      3 PHE5        0.0000 
     34 CZ         74.5600   60.0700   74.2700 C.ar      3 PHE5        0.0000 
     35 CZ         75.4600   59.0900   73.5600 C.ar      3 PHE5        0.0000 
     36 CZ         76.3600   58.1200   72.8500 C.ar      3 PHE5        0.0000 
     37 CZ         76.5000   58.7300   75.3700 C.ar      3 PHE5        0.0000 
     38 CZ         77.3900   57.7600   74.6700 C.ar      3 PHE5        0.0000 
     39 CA         71.1400   53.1600   69.8700 C.3       4 GLY6        0.0000 
     40 CA         72.1900   53.1600   68.0300 C.3       4 GLY6        0.0000 
     41 CA         73.8100   49.8800   71.4000 C.3       4 GLY6        0.0000 
     42 CA         73.9700   50.8500   70.2700 C.3       4 GLY6        0.0000 
     43 CA         74.8700   49.8800   69.5600 C.3       4 GLY6        0.0000 
     44 CA         72.3300   53.7600   70.5500 C.3       4 GLY6        0.0000 
     45 CA         73.2300   52.7900   69.8400 C.3       4 GLY6        0.0000 
     46 CA         75.9200   49.8800   67.7200 C.3       4 GLY6        0.0000 
     47 CA         73.3800   53.7600   68.7100 C.3       4 GLY6        0.0000 
     48 CA         74.2800   52.7900   68.0000 C.3       4 GLY6        0.0000 
     49 CA         74.4400   53.7600   66.8700 C.3       4 GLY6        0.0000 
     50 CA         75.3400   52.7900   66.1600 C.3       4 GLY6        0.0000 
     51 CA         75.1600   51.4600   70.9500 C.3       4 GLY6        0.0000 
     52 CA         74.4200   53.4000   70.5300 C.3       4 GLY6        0.0000 
     53 CA         76.2100   51.4500   69.1100 C.3       4 GLY6        0.0000 
     54 CA         75.6300   54.3600   67.5500 C.3       4 GLY6        0.0000 
     55 CA         75.6100   54.0000   71.2100 C.3       4 GLY6        0.0000 
     56 CA         77.4100   52.0600   69.7900 C.3       4 GLY6        0.0000 
     57 CA         75.7700   54.9700   70.0700 C.3       4 GLY6        0.0000 
     58 CA         75.1700   57.5200   72.1700 C.3       4 GLY6        0.0000 
     59 CA         76.0600   56.5500   71.4600 C.3       4 GLY6        0.0000 
     60 CA         74.2500   58.1300   76.5300 C.3       4 GLY6        0.0000 
     61 CA         75.1500   57.1500   75.8300 C.3       4 GLY6        0.0000 
     62 CA         75.2900   57.7600   78.3500 C.3       4 GLY6        0.0000 
     63 CA         76.1800   56.7900   77.6400 C.3       4 GLY6        0.0000 
     64 CA         75.4400   58.7300   77.2200 C.3       4 GLY6        0.0000 
     65 CA         77.2400   56.7900   75.8000 C.3       4 GLY6        0.0000 
     66 DU         72.0400   52.1900   69.1600 H         5 CUB7        0.0000 
     67 DU         73.0900   52.1900   67.3200 H         5 CUB7        0.0000 
     68 DU         74.1300   51.8200   69.1400 H         5 CUB7        0.0000 
     69 DU         75.0200   50.8500   68.4300 H         5 CUB7        0.0000 
     70 DU         75.3200   52.4300   69.8200 H         5 CUB7        0.0000 
     71 DU         75.3000   58.1200   74.6900 H         5 CUB7        0.0000 
@<TRIPOS>BOND
@<TRIPOS>SUBSTRUCTURE
     1 SER1        1 GROUP   
     2 ALA2        8 GROUP   
     3 PHE5       16 GROUP   
     4 GLY6       39 GROUP   
     5 CUB7       66 GROUP   
@<TRIPOS>SET

