#    Name: 6j6j_2_BTN
#    Modification time : Fri May 22 19:33:12 2020

@<TRIPOS>MOLECULE
6j6j_2_BTN
   16    17     1     0     0
SMALL
NO_CHARGES


@<TRIPOS>ATOM
      1 C11        75.9160   81.5790   64.0850 C.2       1 BTN5100     0.0000 
      2 O11        74.7800   81.1300   63.8310 O.co2     1 BTN5100     0.0000 
      3 O12        76.1110   82.0770   65.2140 O.co2     1 BTN5100     0.0000 
      4 C10        77.0340   81.5420   63.0650 C.3       1 BTN5100     0.0000 
      5 C9         76.5780   80.9520   61.7350 C.3       1 BTN5100     0.0000 
      6 C8         76.6690   79.4320   61.7460 C.3       1 BTN5100     0.0000 
      7 C7         76.5050   78.8230   60.3630 C.3       1 BTN5100     0.0000 
      8 C2         75.6100   77.6010   60.4750 C.3       1 BTN5100     0.0000 
      9 S1         76.3770   76.4200   61.3610 S.3       1 BTN5100     0.0000 
     10 C6         75.3570   75.1410   60.5910 C.3       1 BTN5100     0.0000 
     11 C5         74.8750   75.5980   59.2360 C.3       1 BTN5100     0.0000 
     12 N1         75.6710   74.9910   58.2030 N.am      1 BTN5100     0.0000 
     13 C3         76.4840   75.8720   57.6560 C.2       1 BTN5100     0.0000 
     14 O3         77.4180   75.5700   56.6540 O.2       1 BTN5100     0.0000 
     15 N2         76.3000   77.0730   58.1780 N.am      1 BTN5100     0.0000 
     16 C4         75.2060   77.0650   59.1150 C.3       1 BTN5100     0.0000 
@<TRIPOS>BOND
     1    1    2 ar   
     2    1    3 ar   
     3    1    4 1    
     4    4    5 1    
     5    5    6 1    
     6    6    7 1    
     7    7    8 1    
     8    8    9 1    
     9    8   16 1    
    10    9   10 1    
    11   10   11 1    
    12   11   12 1    
    13   11   16 1    
    14   12   13 am   
    15   13   14 2    
    16   13   15 am   
    17   15   16 1    
@<TRIPOS>SUBSTRUCTURE
     1 BTN5100     1 GROUP   
@<TRIPOS>SET

