#    Name: 6j6j_1_BTN
#    Modification time : Fri May 22 19:33:09 2020

@<TRIPOS>MOLECULE
6j6j_1_BTN
   16    17     1     0     0
SMALL
NO_CHARGES


@<TRIPOS>ATOM
      1 C11        75.9060   52.8630   70.3320 C.2       1 BTN5100     0.0000 
      2 O11        76.1020   52.3670   69.2040 O.co2     1 BTN5100     0.0000 
      3 O12        74.7700   53.3130   70.5860 O.co2     1 BTN5100     0.0000 
      4 C10        77.0230   52.9000   71.3530 C.3       1 BTN5100     0.0000 
      5 C9         76.5660   53.4910   72.6840 C.3       1 BTN5100     0.0000 
      6 C8         76.6560   55.0100   72.6740 C.3       1 BTN5100     0.0000 
      7 C7         76.4910   55.6180   74.0570 C.3       1 BTN5100     0.0000 
      8 C2         75.5950   56.8400   73.9450 C.3       1 BTN5100     0.0000 
      9 S1         76.3640   58.0220   73.0600 S.3       1 BTN5100     0.0000 
     10 C6         75.3430   59.3000   73.8290 C.3       1 BTN5100     0.0000 
     11 C5         74.8600   58.8430   75.1840 C.3       1 BTN5100     0.0000 
     12 N1         75.6550   59.4500   76.2170 N.am      1 BTN5100     0.0000 
     13 C3         76.4670   58.5690   76.7640 C.2       1 BTN5100     0.0000 
     14 O3         77.4000   58.8710   77.7680 O.2       1 BTN5100     0.0000 
     15 N2         76.2830   57.3680   76.2420 N.am      1 BTN5100     0.0000 
     16 C4         75.1910   57.3760   75.3040 C.3       1 BTN5100     0.0000 
@<TRIPOS>BOND
     1    1    2 ar   
     2    1    3 ar   
     3    1    4 1    
     4    4    5 1    
     5    5    6 1    
     6    6    7 1    
     7    7    8 1    
     8    8    9 1    
     9    8   16 1    
    10    9   10 1    
    11   10   11 1    
    12   11   12 1    
    13   11   16 1    
    14   12   13 am   
    15   13   14 2    
    16   13   15 am   
    17   15   16 1    
@<TRIPOS>SUBSTRUCTURE
     1 BTN5100     1 GROUP   
@<TRIPOS>SET

