#    Name: 6j6j_4_BTN_CAVITY_N1_4
#    Modification time : Fri May 22 19:33:16 2020

@<TRIPOS>MOLECULE
6j6j_4_BTN_CAVITY_N1_4
   72     0     5     0     0
SMALL
NO_CHARGES


@<TRIPOS>ATOM
      1 OG         57.9200   58.4000   58.6300 O.3       1 SER1        0.0000 
      2 OG         59.0700   52.2100   65.4100 O.3       1 SER1        0.0000 
      3 OG         58.0600   59.0000   61.1600 O.3       1 SER1        0.0000 
      4 N          56.8400   51.9700   62.9100 N.am      2 ALA2        0.0000 
      5 O          57.0000   52.9400   61.7800 O.2       2 ALA2        0.0000 
      6 N          57.1500   53.9100   60.6400 N.am      2 ALA2        0.0000 
      7 N          57.3100   54.8800   59.5100 N.am      2 ALA2        0.0000 
      8 O          58.9300   51.6000   62.8900 O.2       2 ALA2        0.0000 
      9 O          59.8300   50.6300   62.1800 O.2       2 ALA2        0.0000 
     10 O          57.2900   54.5200   63.1700 O.2       2 ALA2        0.0000 
     11 O          58.1900   53.5500   62.4600 O.2       2 ALA2        0.0000 
     12 O          59.0900   52.5700   61.7500 O.2       2 ALA2        0.0000 
     13 O          57.4500   55.4900   62.0300 O.2       2 ALA2        0.0000 
     14 N          58.5000   55.4900   60.1900 N.am      2 ALA2        0.0000 
     15 N          58.6600   56.4500   59.0600 N.am      2 ALA2        0.0000 
     16 CZ         55.9400   52.9400   63.6200 C.ar      3 PHE5        0.0000 
     17 CZ         56.1000   53.9100   62.4900 C.ar      3 PHE5        0.0000 
     18 CZ         56.2600   54.8800   61.3500 C.ar      3 PHE5        0.0000 
     19 CZ         57.1400   53.5500   64.3000 C.ar      3 PHE5        0.0000 
     20 CZ         58.3500   54.5200   61.3300 C.ar      3 PHE5        0.0000 
     21 CZ         59.2400   53.5400   60.6200 C.ar      3 PHE5        0.0000 
     22 CZ         57.6100   56.4600   60.9000 C.ar      3 PHE5        0.0000 
     23 CZ         59.4000   54.5100   59.4900 C.ar      3 PHE5        0.0000 
     24 CZ         56.8600   58.4000   60.4700 C.ar      3 PHE5        0.0000 
     25 CZ         57.7600   57.4300   59.7700 C.ar      3 PHE5        0.0000 
     26 CZ         57.0200   59.3700   59.3400 C.ar      3 PHE5        0.0000 
     27 CZ         60.1200   52.2100   63.5700 C.ar      3 PHE5        0.0000 
     28 CZ         61.0200   51.2400   62.8600 C.ar      3 PHE5        0.0000 
     29 CZ         59.5400   55.1200   62.0100 C.ar      3 PHE5        0.0000 
     30 CZ         58.8000   57.0600   61.5800 C.ar      3 PHE5        0.0000 
     31 CZ         59.6900   56.0900   60.8700 C.ar      3 PHE5        0.0000 
     32 CZ         59.8500   57.0600   59.7400 C.ar      3 PHE5        0.0000 
     33 CZ         59.1100   59.0000   59.3100 C.ar      3 PHE5        0.0000 
     34 CZ         60.0100   58.0300   58.6100 C.ar      3 PHE5        0.0000 
     35 CZ         60.9000   57.0600   57.9000 C.ar      3 PHE5        0.0000 
     36 CZ         62.2100   51.8400   63.5400 C.ar      3 PHE5        0.0000 
     37 CZ         59.2500   59.6100   61.8400 C.ar      3 PHE5        0.0000 
     38 CZ         60.1500   58.6400   61.1300 C.ar      3 PHE5        0.0000 
     39 CZ         60.3000   59.6100   60.0000 C.ar      3 PHE5        0.0000 
     40 CZ         61.2000   58.6300   59.2900 C.ar      3 PHE5        0.0000 
     41 CA         55.8100   52.3400   61.1000 C.3       4 GLY6        0.0000 
     42 CA         56.5700   56.8200   59.0900 C.3       4 GLY6        0.0000 
     43 CA         57.4700   55.8500   58.3800 C.3       4 GLY6        0.0000 
     44 CA         56.7300   57.7900   57.9500 C.3       4 GLY6        0.0000 
     45 CA         57.6200   56.8200   57.2400 C.3       4 GLY6        0.0000 
     46 CA         57.8800   51.6100   64.7300 C.3       4 GLY6        0.0000 
     47 CA         58.7700   50.6300   64.0200 C.3       4 GLY6        0.0000 
     48 CA         58.0300   52.5800   63.5900 C.3       4 GLY6        0.0000 
     49 CA         59.5600   55.4800   58.3500 C.3       4 GLY6        0.0000 
     50 CA         58.8200   57.4200   57.9300 C.3       4 GLY6        0.0000 
     51 CA         58.9700   58.3900   56.7900 C.3       4 GLY6        0.0000 
     52 CA         58.9100   51.2400   66.5400 C.3       4 GLY6        0.0000 
     53 CA         59.9700   51.2400   64.7000 C.3       4 GLY6        0.0000 
     54 CA         60.8600   50.2700   63.9900 C.3       4 GLY6        0.0000 
     55 CA         58.3300   54.1500   64.9800 C.3       4 GLY6        0.0000 
     56 CA         59.2300   53.1800   64.2700 C.3       4 GLY6        0.0000 
     57 CA         58.4800   55.1200   63.8500 C.3       4 GLY6        0.0000 
     58 CA         59.3800   54.1500   63.1400 C.3       4 GLY6        0.0000 
     59 CA         58.6400   56.0900   62.7200 C.3       4 GLY6        0.0000 
     60 CA         57.9000   58.0300   62.2900 C.3       4 GLY6        0.0000 
     61 CA         59.2100   52.8200   67.9300 C.3       4 GLY6        0.0000 
     62 CA         60.1000   51.8400   67.2200 C.3       4 GLY6        0.0000 
     63 CA         59.3600   53.7900   66.8000 C.3       4 GLY6        0.0000 
     64 CA         60.2600   52.8100   66.0900 C.3       4 GLY6        0.0000 
     65 CA         60.4200   53.7800   64.9600 C.3       4 GLY6        0.0000 
     66 CA         61.3100   52.8100   64.2500 C.3       4 GLY6        0.0000 
     67 CA         59.9900   57.6700   62.2600 C.3       4 GLY6        0.0000 
     68 CA         61.3000   52.4500   67.9000 C.3       4 GLY6        0.0000 
     69 CA         61.4500   53.4200   66.7700 C.3       4 GLY6        0.0000 
     70 DU         59.8100   50.2700   65.8300 H         5 CUB7        0.0000 
     71 DU         58.9500   58.0300   60.4500 H         5 CUB7        0.0000 
     72 DU         61.1600   51.8400   65.3800 H         5 CUB7        0.0000 
@<TRIPOS>BOND
@<TRIPOS>SUBSTRUCTURE
     1 SER1        1 GROUP   
     2 ALA2        4 GROUP   
     3 PHE5       16 GROUP   
     4 GLY6       41 GROUP   
     5 CUB7       70 GROUP   
@<TRIPOS>SET

