#    Name: 6j6j_4_BTN
#    Modification time : Fri May 22 19:33:15 2020

@<TRIPOS>MOLECULE
6j6j_4_BTN
   16    17     1     0     0
SMALL
NO_CHARGES


@<TRIPOS>ATOM
      1 C11        58.5420   52.8740   64.0760 C.2       1 BTN5100     0.0000 
      2 O11        59.6780   53.3240   63.8220 O.co2     1 BTN5100     0.0000 
      3 O12        58.3460   52.3790   65.2050 O.co2     1 BTN5100     0.0000 
      4 C10        57.4230   52.9110   63.0550 C.3       1 BTN5100     0.0000 
      5 C9         57.8810   53.5010   61.7240 C.3       1 BTN5100     0.0000 
      6 C8         57.7890   55.0210   61.7350 C.3       1 BTN5100     0.0000 
      7 C7         57.9540   55.6270   60.3510 C.3       1 BTN5100     0.0000 
      8 C2         58.8490   56.8500   60.4620 C.3       1 BTN5100     0.0000 
      9 S1         58.0810   58.0320   61.3470 S.3       1 BTN5100     0.0000 
     10 C6         59.1000   59.3090   60.5760 C.3       1 BTN5100     0.0000 
     11 C5         59.5830   58.8520   59.2220 C.3       1 BTN5100     0.0000 
     12 N1         58.7870   59.4580   58.1880 N.am      1 BTN5100     0.0000 
     13 C3         57.9760   58.5760   57.6420 C.2       1 BTN5100     0.0000 
     14 O3         57.0410   58.8780   56.6390 O.2       1 BTN5100     0.0000 
     15 N2         58.1600   57.3770   58.1640 N.am      1 BTN5100     0.0000 
     16 C4         59.2520   57.3850   59.1020 C.3       1 BTN5100     0.0000 
@<TRIPOS>BOND
     1    1    2 ar   
     2    1    3 ar   
     3    1    4 1    
     4    4    5 1    
     5    5    6 1    
     6    6    7 1    
     7    7    8 1    
     8    8    9 1    
     9    8   16 1    
    10    9   10 1    
    11   10   11 1    
    12   11   12 1    
    13   11   16 1    
    14   12   13 am   
    15   13   14 2    
    16   13   15 am   
    17   15   16 1    
@<TRIPOS>SUBSTRUCTURE
     1 BTN5100     1 GROUP   
@<TRIPOS>SET

