#    Name: 6b5h_1_NAD
#    Modification time : Fri May 22 19:25:50 2020

@<TRIPOS>MOLECULE
6b5h_1_NAD
   44    48     1     0     1
SMALL
NO_CHARGES


@<TRIPOS>ATOM
      1 PA         -9.0870   -0.2070  -35.6240 P.3       1 NAD601      0.0000 
      2 O1A        -8.7170   -0.6980  -34.2390 O.co2     1 NAD601      0.0000 
      3 O2A       -10.5470   -0.5040  -35.8940 O.co2     1 NAD601      0.0000 
      4 O5B        -8.1680   -0.9590  -36.7350 O.3       1 NAD601      0.0000 
      5 C5B        -6.7900   -1.1830  -36.4390 C.3       1 NAD601      0.0000 
      6 C4B        -6.3280   -2.5910  -36.9360 C.3       1 NAD601      0.0000 
      7 O4B        -6.8010   -3.5240  -36.1550 O.3       1 NAD601      0.0000 
      8 C3B        -6.8560   -2.8990  -38.3360 C.3       1 NAD601      0.0000 
      9 O3B        -5.9100   -3.5510  -39.0520 O.3       1 NAD601      0.0000 
     10 C2B        -8.0580   -3.8350  -38.0770 C.3       1 NAD601      0.0000 
     11 O2B        -8.3220   -4.7000  -39.2630 O.3       1 NAD601      0.0000 
     12 C1B        -7.6670   -4.5350  -37.0740 C.3       1 NAD601      0.0000 
     13 N9A        -8.7750   -5.0240  -36.3350 N.pl3     1 NAD601      0.0000 
     14 C8A       -10.0290   -4.5250  -36.3070 C.2       1 NAD601      0.0000 
     15 N7A       -10.7640   -5.2960  -35.4720 N.2       1 NAD601      0.0000 
     16 C5A        -9.9570   -6.2730  -34.9810 C.ar      1 NAD601      0.0000 
     17 C6A       -10.1900   -7.3150  -34.1000 C.ar      1 NAD601      0.0000 
     18 N6A       -11.4430   -7.6010  -33.4680 N.pl3     1 NAD601      0.0000 
     19 N1A        -9.1960   -8.1540  -33.7760 N.ar      1 NAD601      0.0000 
     20 C2A        -7.9540   -7.9820  -34.3160 C.ar      1 NAD601      0.0000 
     21 N3A        -7.7220   -6.9600  -35.1830 N.ar      1 NAD601      0.0000 
     22 C4A        -8.7290   -6.1060  -35.5120 C.ar      1 NAD601      0.0000 
     23 O3         -8.8490    1.3790  -35.7040 O.3       1 NAD601      0.0000 
     24 PN         -9.0500    2.2440  -37.0440 P.3       1 NAD601      0.0000 
     25 O1N       -10.5090    2.2250  -37.4590 O.co2     1 NAD601      0.0000 
     26 O2N        -8.1830    1.6790  -38.1510 O.co2     1 NAD601      0.0000 
     27 O5D        -8.6410    3.7570  -36.7810 O.3       1 NAD601      0.0000 
     28 C5D        -7.2570    4.0570  -36.7360 C.3       1 NAD601      0.0000 
     29 C4D        -6.8550    4.0490  -35.2530 C.3       1 NAD601      0.0000 
     30 O4D        -5.6170    3.6720  -35.1380 O.3       1 NAD601      0.0000 
     31 C3D        -6.8530    5.4570  -34.6690 C.3       1 NAD601      0.0000 
     32 O3D        -8.0750    5.8080  -34.1970 O.3       1 NAD601      0.0000 
     33 C2D        -5.7230    5.4990  -33.6090 C.3       1 NAD601      0.0000 
     34 O2D        -6.4030    5.4650  -32.2960 O.3       1 NAD601      0.0000 
     35 C1D        -5.0070    4.4380  -33.8420 C.3       1 NAD601      0.0000 
     36 N1N        -3.6280    4.8030  -34.0840 N.pl3     1 NAD601      0.0000 
     37 C2N        -2.6250    4.6670  -33.1250 C.ar      1 NAD601      0.0000 
     38 C3N        -1.2990    5.0510  -33.4240 C.ar      1 NAD601      0.0000 
     39 C7N        -0.1550    4.9070  -32.3770 C.2       1 NAD601      0.0000 
     40 O7N        -0.4270    4.7810  -31.2050 O.2       1 NAD601      0.0000 
     41 N7N         1.2290    4.9200  -32.7930 N.am      1 NAD601      0.0000 
     42 C4N        -0.9820    5.5620  -34.6560 C.ar      1 NAD601      0.0000 
     43 C5N        -1.9800    5.6960  -35.5930 C.ar      1 NAD601      0.0000 
     44 C6N        -3.2920    5.3200  -35.3040 C.ar      1 NAD601      0.0000 
@<TRIPOS>BOND
     1    1    2 ar   
     2    1    3 ar   
     3    1    4 1    
     4    1   23 1    
     5    4    5 1    
     6    5    6 1    
     7    6    7 1    
     8    6    8 1    
     9    7   12 1    
    10    8    9 1    
    11    8   10 1    
    12   10   11 1    
    13   10   12 1    
    14   12   13 1    
    15   13   14 1    
    16   13   22 1    
    17   14   15 2    
    18   15   16 1    
    19   16   17 ar   
    20   16   22 ar   
    21   17   18 1    
    22   17   19 ar   
    23   19   20 ar   
    24   20   21 ar   
    25   21   22 ar   
    26   23   24 1    
    27   24   25 ar   
    28   24   26 ar   
    29   24   27 1    
    30   27   28 1    
    31   28   29 1    
    32   29   30 1    
    33   29   31 1    
    34   30   35 1    
    35   31   32 1    
    36   31   33 1    
    37   33   34 1    
    38   33   35 1    
    39   35   36 1    
    40   36   37 ar   
    41   36   44 ar   
    42   37   38 ar   
    43   38   39 1    
    44   38   42 ar   
    45   39   40 2    
    46   39   41 am   
    47   42   43 ar   
    48   43   44 ar   
@<TRIPOS>SUBSTRUCTURE
     1 NAD601      1 GROUP   
@<TRIPOS>SET
ATOM$ORANGE STATIC     ATOMS   COLORGROUP SYSTEM 
42 5 5 6 6 8 8 10 10 12 12 14 14 16 16 17 17 20 \
20 22 22 28 28 29 29 31 31 33 33 35 35 37 37 38 38 39 \
39 42 42 43 43 44 44 

