#    Name: 6b5h_2_NAD
#    Modification time : Fri May 22 19:25:58 2020

@<TRIPOS>MOLECULE
6b5h_2_NAD
   44    48     1     0     1
SMALL
NO_CHARGES


@<TRIPOS>ATOM
      1 PA         -2.5390  -19.0670   -7.0200 P.3       1 NAD601      0.0000 
      2 O1A        -3.0860  -18.7450   -8.3940 O.co2     1 NAD601      0.0000 
      3 O2A        -3.6760  -19.1090   -6.0210 O.co2     1 NAD601      0.0000 
      4 O5B        -1.4750  -17.9130   -6.6000 O.3       1 NAD601      0.0000 
      5 C5B        -1.5900  -17.3340   -5.3030 C.3       1 NAD601      0.0000 
      6 C4B        -1.8430  -15.7990   -5.3730 C.3       1 NAD601      0.0000 
      7 O4B        -2.7000  -15.5000   -6.3140 O.3       1 NAD601      0.0000 
      8 C3B        -2.5080  -15.3950   -4.0630 C.3       1 NAD601      0.0000 
      9 O3B        -2.1600  -14.1330   -3.7200 O.3       1 NAD601      0.0000 
     10 C2B        -4.0040  -15.4710   -4.4270 C.3       1 NAD601      0.0000 
     11 O2B        -4.8010  -14.7140   -3.4260 O.3       1 NAD601      0.0000 
     12 C1B        -4.0170  -14.9080   -5.5810 C.3       1 NAD601      0.0000 
     13 N9A        -5.1900  -15.2310   -6.3160 N.pl3     1 NAD601      0.0000 
     14 C8A        -5.8080  -16.4290   -6.3890 C.2       1 NAD601      0.0000 
     15 N7A        -6.8850  -16.2930   -7.1990 N.2       1 NAD601      0.0000 
     16 C5A        -6.9320  -15.0050   -7.6290 C.ar      1 NAD601      0.0000 
     17 C6A        -7.8110  -14.3350   -8.4650 C.ar      1 NAD601      0.0000 
     18 N6A        -8.9560  -14.9120   -9.1040 N.pl3     1 NAD601      0.0000 
     19 N1A        -7.6220  -13.0340   -8.7330 N.ar      1 NAD601      0.0000 
     20 C2A        -6.5630  -12.3720   -8.1820 C.ar      1 NAD601      0.0000 
     21 N3A        -5.6980  -13.0290   -7.3610 N.ar      1 NAD601      0.0000 
     22 C4A        -5.8850  -14.3500   -7.0880 C.ar      1 NAD601      0.0000 
     23 O3         -1.8120  -20.5010   -7.0830 O.3       1 NAD601      0.0000 
     24 PN         -0.9420  -21.1600   -5.9000 P.3       1 NAD601      0.0000 
     25 O1N        -1.8480  -21.9580   -4.9760 O.co2     1 NAD601      0.0000 
     26 O2N        -0.2280  -20.0890   -5.1030 O.co2     1 NAD601      0.0000 
     27 O5D         0.1520  -22.1260   -6.5350 O.3       1 NAD601      0.0000 
     28 C5D         1.5070  -21.7030   -6.4820 C.3       1 NAD601      0.0000 
     29 C4D         1.8770  -21.0240   -7.8110 C.3       1 NAD601      0.0000 
     30 O4D         2.7560  -20.0760   -7.6070 O.3       1 NAD601      0.0000 
     31 C3D         2.5770  -22.0260   -8.7210 C.3       1 NAD601      0.0000 
     32 O3D         1.7500  -22.4470   -9.7040 O.3       1 NAD601      0.0000 
     33 C2D         3.8190  -21.2830   -9.2900 C.3       1 NAD601      0.0000 
     34 O2D         3.8390  -21.3940  -10.7680 O.3       1 NAD601      0.0000 
     35 C1D         3.6990  -20.0480   -8.9170 C.3       1 NAD601      0.0000 
     36 N1N         4.9830  -19.4770   -8.5870 N.pl3     1 NAD601      0.0000 
     37 C2N         5.7900  -18.9130   -9.5660 C.ar      1 NAD601      0.0000 
     38 C3N         7.0390  -18.3770   -9.2170 C.ar      1 NAD601      0.0000 
     39 C7N         7.9660  -17.7460  -10.2960 C.2       1 NAD601      0.0000 
     40 O7N         7.8480  -18.0590  -11.4620 O.2       1 NAD601      0.0000 
     41 N7N         8.9740  -16.7860   -9.9060 N.am      1 NAD601      0.0000 
     42 C4N         7.4570  -18.4000   -7.9070 C.ar      1 NAD601      0.0000 
     43 C5N         6.6470  -18.9550   -6.9360 C.ar      1 NAD601      0.0000 
     44 C6N         5.4060  -19.4920   -7.2810 C.ar      1 NAD601      0.0000 
@<TRIPOS>BOND
     1    1    2 ar   
     2    1    3 ar   
     3    1    4 1    
     4    1   23 1    
     5    4    5 1    
     6    5    6 1    
     7    6    7 1    
     8    6    8 1    
     9    7   12 1    
    10    8    9 1    
    11    8   10 1    
    12   10   11 1    
    13   10   12 1    
    14   12   13 1    
    15   13   14 1    
    16   13   22 1    
    17   14   15 2    
    18   15   16 1    
    19   16   17 ar   
    20   16   22 ar   
    21   17   18 1    
    22   17   19 ar   
    23   19   20 ar   
    24   20   21 ar   
    25   21   22 ar   
    26   23   24 1    
    27   24   25 ar   
    28   24   26 ar   
    29   24   27 1    
    30   27   28 1    
    31   28   29 1    
    32   29   30 1    
    33   29   31 1    
    34   30   35 1    
    35   31   32 1    
    36   31   33 1    
    37   33   34 1    
    38   33   35 1    
    39   35   36 1    
    40   36   37 ar   
    41   36   44 ar   
    42   37   38 ar   
    43   38   39 1    
    44   38   42 ar   
    45   39   40 2    
    46   39   41 am   
    47   42   43 ar   
    48   43   44 ar   
@<TRIPOS>SUBSTRUCTURE
     1 NAD601      1 GROUP   
@<TRIPOS>SET
ATOM$ORANGE STATIC     ATOMS   COLORGROUP SYSTEM 
42 5 5 6 6 8 8 10 10 12 12 14 14 16 16 17 17 20 \
20 22 22 28 28 29 29 31 31 33 33 35 35 37 37 38 38 39 \
39 42 42 43 43 44 44 

