#    Name: 6ite_2_NAD
#    Modification time : Fri May 22 19:27:22 2020

@<TRIPOS>MOLECULE
6ite_2_NAD
   44    48     1     0     1
SMALL
NO_CHARGES


@<TRIPOS>ATOM
      1 PA        -44.8020    6.7970   17.2310 P.3       1 NAD401      0.0000 
      2 O1A       -45.4890    5.6300   17.8800 O.co2     1 NAD401      0.0000 
      3 O2A       -43.3280    6.5980   17.0350 O.co2     1 NAD401      0.0000 
      4 O5B       -45.5200    7.1130   15.7940 O.3       1 NAD401      0.0000 
      5 C5B       -44.8980    7.9770   14.8660 C.3       1 NAD401      0.0000 
      6 C4B       -45.2250    7.3570   13.4620 C.3       1 NAD401      0.0000 
      7 O4B       -44.8640    8.2220   12.5250 O.3       1 NAD401      0.0000 
      8 C3B       -44.4340    6.0730   13.2270 C.3       1 NAD401      0.0000 
      9 O3B       -45.2760    5.0590   12.8320 O.3       1 NAD401      0.0000 
     10 C2B       -43.4250    6.5010   12.1080 C.3       1 NAD401      0.0000 
     11 O2B       -43.0410    5.3300   11.2670 O.3       1 NAD401      0.0000 
     12 C1B       -44.1010    7.3760   11.4170 C.3       1 NAD401      0.0000 
     13 N9A       -43.3080    8.3930   10.7130 N.pl3     1 NAD401      0.0000 
     14 C8A       -42.1470    8.8860   11.1730 C.2       1 NAD401      0.0000 
     15 N7A       -41.7030    9.8120   10.2820 N.2       1 NAD401      0.0000 
     16 C5A       -42.6120    9.8690    9.2780 C.ar      1 NAD401      0.0000 
     17 C6A       -42.6800   10.6160    8.1200 C.ar      1 NAD401      0.0000 
     18 N6A       -41.6850   11.6040    7.6690 N.pl3     1 NAD401      0.0000 
     19 N1A       -43.7210   10.4680    7.2970 N.ar      1 NAD401      0.0000 
     20 C2A       -44.7070    9.5870    7.5920 C.ar      1 NAD401      0.0000 
     21 N3A       -44.6400    8.8440    8.7280 N.ar      1 NAD401      0.0000 
     22 C4A       -43.5950    9.0000    9.5540 C.ar      1 NAD401      0.0000 
     23 O3        -44.9840    8.1340   18.1230 O.3       1 NAD401      0.0000 
     24 PN        -46.3000    8.5480   18.9710 P.3       1 NAD401      0.0000 
     25 O1N       -46.1030    8.1380   20.4150 O.co2     1 NAD401      0.0000 
     26 O2N       -47.5800    8.0250   18.3570 O.co2     1 NAD401      0.0000 
     27 O5D       -46.2750   10.1590   18.9060 O.3       1 NAD401      0.0000 
     28 C5D       -46.6500   10.7650   17.7160 C.3       1 NAD401      0.0000 
     29 C4D       -47.0320   12.1680   18.0600 C.3       1 NAD401      0.0000 
     30 O4D       -47.9860   12.2110   18.9830 O.3       1 NAD401      0.0000 
     31 C3D       -45.7510   12.9570   18.7450 C.3       1 NAD401      0.0000 
     32 O3D       -45.8300   14.3140   18.1750 O.3       1 NAD401      0.0000 
     33 C2D       -45.9300   12.8960   20.0100 C.3       1 NAD401      0.0000 
     34 O2D       -45.2800   14.0070   20.7730 O.3       1 NAD401      0.0000 
     35 C1D       -47.5210   13.0090   20.1570 C.3       1 NAD401      0.0000 
     36 N1N       -48.0650   12.5070   21.3000 N.pl3     1 NAD401      0.0000 
     37 C2N       -47.6720   11.3010   21.8060 C.ar      1 NAD401      0.0000 
     38 C3N       -48.2800   10.8190   22.9690 C.ar      1 NAD401      0.0000 
     39 C7N       -47.8540    9.4590   23.5650 C.2       1 NAD401      0.0000 
     40 O7N       -47.3690    8.5620   22.9160 O.2       1 NAD401      0.0000 
     41 N7N       -48.0800    9.3290   24.9890 N.am      1 NAD401      0.0000 
     42 C4N       -49.2480   11.5470   23.6220 C.ar      1 NAD401      0.0000 
     43 C5N       -49.6450   12.7560   23.1010 C.ar      1 NAD401      0.0000 
     44 C6N       -49.0460   13.2180   21.9200 C.ar      1 NAD401      0.0000 
@<TRIPOS>BOND
     1    1    2 ar   
     2    1    3 ar   
     3    1    4 1    
     4    1   23 1    
     5    4    5 1    
     6    5    6 1    
     7    6    7 1    
     8    6    8 1    
     9    7   12 1    
    10    8    9 1    
    11    8   10 1    
    12   10   11 1    
    13   10   12 1    
    14   12   13 1    
    15   13   14 1    
    16   13   22 1    
    17   14   15 2    
    18   15   16 1    
    19   16   17 ar   
    20   16   22 ar   
    21   17   18 1    
    22   17   19 ar   
    23   19   20 ar   
    24   20   21 ar   
    25   21   22 ar   
    26   23   24 1    
    27   24   25 ar   
    28   24   26 ar   
    29   24   27 1    
    30   27   28 1    
    31   28   29 1    
    32   29   30 1    
    33   29   31 1    
    34   30   35 1    
    35   31   32 1    
    36   31   33 1    
    37   33   34 1    
    38   33   35 1    
    39   35   36 1    
    40   36   37 ar   
    41   36   44 ar   
    42   37   38 ar   
    43   38   39 1    
    44   38   42 ar   
    45   39   40 2    
    46   39   41 am   
    47   42   43 ar   
    48   43   44 ar   
@<TRIPOS>SUBSTRUCTURE
     1 NAD401      1 GROUP   
@<TRIPOS>SET
ATOM$ORANGE STATIC     ATOMS   COLORGROUP SYSTEM 
42 5 5 6 6 8 8 10 10 12 12 14 14 16 16 17 17 20 \
20 22 22 28 28 29 29 31 31 33 33 35 35 37 37 38 38 39 \
39 42 42 43 43 44 44 

