#    Name: 6n9r_1_OHN
#    Modification time : Fri May 22 19:36:24 2020

@<TRIPOS>MOLECULE
6n9r_1_OHN
   21    21     1     0     0
SMALL
NO_CHARGES


@<TRIPOS>ATOM
      1 C21        69.5230    3.8400   24.0760 C.3       1 OHN303      0.0000 
      2 C20        68.8950    4.1150   22.7070 C.3       1 OHN303      0.0000 
      3 C19        69.3810    3.0710   21.6990 C.3       1 OHN303      0.0000 
      4 C18        68.9870    3.5050   20.2860 C.3       1 OHN303      0.0000 
      5 C17        68.4960    2.2910   19.4930 C.3       1 OHN303      0.0000 
      6 C16        67.4470    1.5320   20.3100 C.3       1 OHN303      0.0000 
      7 C15        66.1210    1.5110   19.5440 C.3       1 OHN303      0.0000 
      8 C14        65.3750    0.2090   19.8440 C.3       1 OHN303      0.0000 
      9 C13        65.4140   -0.6970   18.6100 C.3       1 OHN303      0.0000 
     10 C11        64.0890   -0.5970   17.8520 C.2       1 OHN303      0.0000 
     11 O12        63.1430   -1.3490   18.0880 O.2       1 OHN303      0.0000 
     12 C10        64.0060    0.4950   16.7850 C.3       1 OHN303      0.0000 
     13 C8         62.5400    0.8290   16.5190 C.2       1 OHN303      0.0000 
     14 O9         61.7840    1.1420   17.4390 O.2       1 OHN303      0.0000 
     15 N7         62.1670    0.7460   15.2350 N.am      1 OHN303      0.0000 
     16 C1         60.7890    1.0320   14.8000 C.3       1 OHN303      0.0000 
     17 C5         60.7350    1.2630   13.3000 C.3       1 OHN303      0.0000 
     18 C4         59.9160    0.0910   12.7770 C.3       1 OHN303      0.0000 
     19 C2         59.9810   -0.0860   14.9760 C.2       1 OHN303      0.0000 
     20 O6         60.0150   -0.7410   16.0190 O.2       1 OHN303      0.0000 
     21 OAP        59.1720   -0.3720   13.9170 O.3       1 OHN303      0.0000 
@<TRIPOS>BOND
     1    1    2 1    
     2    2    3 1    
     3    3    4 1    
     4    4    5 1    
     5    5    6 1    
     6    6    7 1    
     7    7    8 1    
     8    8    9 1    
     9    9   10 1    
    10   10   11 2    
    11   10   12 1    
    12   12   13 1    
    13   13   14 2    
    14   13   15 am   
    15   15   16 1    
    16   16   17 1    
    17   16   19 1    
    18   17   18 1    
    19   18   21 1    
    20   19   20 2    
    21   19   21 1    
@<TRIPOS>SUBSTRUCTURE
     1 OHN303      1 GROUP   
@<TRIPOS>SET

