#    Name: 6rop_1_CO8
#    Modification time : Fri May 22 19:33:11 2020

@<TRIPOS>MOLECULE
6rop_1_CO8
   57    59     1     0     0
SMALL
NO_CHARGES


@<TRIPOS>ATOM
      1 N1A      -106.4480   13.8490  -57.2660 N.ar      1 CO8903      0.0000 
      2 C2A      -106.9230   14.5850  -56.2520 C.ar      1 CO8903      0.0000 
      3 N3A      -107.9500   14.3310  -55.4450 N.ar      1 CO8903      0.0000 
      4 C4A      -108.5370   13.1590  -55.7620 C.ar      1 CO8903      0.0000 
      5 C5A      -108.1670   12.2990  -56.7770 C.ar      1 CO8903      0.0000 
      6 C6A      -107.0600   12.6740  -57.5650 C.ar      1 CO8903      0.0000 
      7 N6A      -106.5870   11.9320  -58.5640 N.pl3     1 CO8903      0.0000 
      8 N7A      -109.0070   11.1900  -56.8010 N.2       1 CO8903      0.0000 
      9 C8A      -109.8550   11.3900  -55.8180 C.2       1 CO8903      0.0000 
     10 N9A      -109.6200   12.5730  -55.1560 N.pl3     1 CO8903      0.0000 
     11 C1B      -110.3690   13.0850  -54.0060 C.3       1 CO8903      0.0000 
     12 C2B      -109.5370   13.8180  -52.9570 C.3       1 CO8903      0.0000 
     13 O2B      -108.8610   12.9290  -52.0960 O.3       1 CO8903      0.0000 
     14 C3B      -110.6410   14.6170  -52.2750 C.3       1 CO8903      0.0000 
     15 O3B      -111.4340   13.7690  -51.4450 O.3       1 CO8903      0.0000 
     16 P3B      -111.0980   13.9130  -49.8710 P.3       1 CO8903      0.0000 
     17 O7A      -111.4930   12.6060  -49.1880 O.co2     1 CO8903      0.0000 
     18 O8A      -111.9280   15.0930  -49.3860 O.co2     1 CO8903      0.0000 
     19 O9A      -109.6020   14.1780  -49.7820 O.co2     1 CO8903      0.0000 
     20 C4B      -111.4420   15.0930  -53.4790 C.3       1 CO8903      0.0000 
     21 O4B      -111.3200   14.0250  -54.4560 O.3       1 CO8903      0.0000 
     22 C5B      -110.9590   16.3880  -54.0840 C.3       1 CO8903      0.0000 
     23 O5B      -111.8640   17.4630  -53.7100 O.3       1 CO8903      0.0000 
     24 P1A      -112.6240   18.3340  -54.8280 P.3       1 CO8903      0.0000 
     25 O1A      -114.0770   18.4440  -54.4930 O.co2     1 CO8903      0.0000 
     26 O2A      -112.2620   17.8420  -56.1900 O.co2     1 CO8903      0.0000 
     27 O3A      -111.9620   19.7770  -54.6250 O.3       1 CO8903      0.0000 
     28 P2A      -110.4810   20.2510  -54.2510 P.3       1 CO8903      0.0000 
     29 O4A      -109.8330   19.1860  -53.4260 O.co2     1 CO8903      0.0000 
     30 O5A      -110.5500   21.6680  -53.7700 O.co2     1 CO8903      0.0000 
     31 O6A      -109.7390   20.2320  -55.6740 O.3       1 CO8903      0.0000 
     32 CBP      -107.6250   20.1380  -56.8790 C.3       1 CO8903      0.0000 
     33 CCP      -108.4180   20.8340  -55.7790 C.3       1 CO8903      0.0000 
     34 CDP      -108.5170   19.9690  -58.1140 C.3       1 CO8903      0.0000 
     35 CEP      -107.2130   18.7380  -56.4080 C.3       1 CO8903      0.0000 
     36 CAP      -106.3800   20.9890  -57.2010 C.3       1 CO8903      0.0000 
     37 OAP      -105.4120   20.1470  -57.8030 O.3       1 CO8903      0.0000 
     38 C9P      -106.6510   22.2050  -58.0880 C.2       1 CO8903      0.0000 
     39 O9P      -107.8120   22.5020  -58.3670 O.2       1 CO8903      0.0000 
     40 N8P      -105.6310   22.9420  -58.5200 N.am      1 CO8903      0.0000 
     41 C7P      -104.3320   22.4510  -58.9640 C.3       1 CO8903      0.0000 
     42 C6P      -103.9130   23.0650  -60.2940 C.3       1 CO8903      0.0000 
     43 C5P      -103.7220   24.5690  -60.3290 C.2       1 CO8903      0.0000 
     44 O5P      -103.9150   25.2810  -59.3330 O.2       1 CO8903      0.0000 
     45 N4P      -103.3030   25.0620  -61.5040 N.am      1 CO8903      0.0000 
     46 C3P      -103.4800   26.4470  -61.9210 C.3       1 CO8903      0.0000 
     47 C2P      -102.1840   27.2290  -61.9400 C.3       1 CO8903      0.0000 
     48 S1P      -102.0800   28.3620  -63.3520 S.3       1 CO8903      0.0000 
     49 C1'      -101.0710   29.6960  -62.7500 C.2       1 CO8903      0.0000 
     50 O1'      -100.5000   29.6810  -61.6840 O.2       1 CO8903      0.0000 
     51 C2'      -101.0100   30.8760  -63.6960 C.3       1 CO8903      0.0000 
     52 C3'      -100.3600   30.6060  -65.0270 C.3       1 CO8903      0.0000 
     53 C4'      -101.0720   31.2450  -66.2150 C.3       1 CO8903      0.0000 
     54 C5'      -100.5670   30.7850  -67.5750 C.3       1 CO8903      0.0000 
     55 C6'      -100.3240   31.9060  -68.5730 C.3       1 CO8903      0.0000 
     56 C7'       -99.6300   31.5200  -69.8650 C.3       1 CO8903      0.0000 
     57 C8'       -99.7750   32.5380  -70.9810 C.3       1 CO8903      0.0000 
@<TRIPOS>BOND
     1    1    2 ar   
     2    1    6 ar   
     3    2    3 ar   
     4    3    4 ar   
     5    4    5 ar   
     6    4   10 1    
     7    5    6 ar   
     8    5    8 1    
     9    6    7 1    
    10    8    9 2    
    11    9   10 1    
    12   10   11 1    
    13   11   12 1    
    14   11   21 1    
    15   12   13 1    
    16   12   14 1    
    17   14   15 1    
    18   14   20 1    
    19   15   16 1    
    20   16   17 ar   
    21   16   18 ar   
    22   16   19 ar   
    23   20   21 1    
    24   20   22 1    
    25   22   23 1    
    26   23   24 1    
    27   24   25 ar   
    28   24   26 ar   
    29   24   27 1    
    30   27   28 1    
    31   28   29 ar   
    32   28   30 ar   
    33   28   31 1    
    34   31   33 1    
    35   32   33 1    
    36   32   34 1    
    37   32   35 1    
    38   32   36 1    
    39   36   37 1    
    40   36   38 1    
    41   38   39 2    
    42   38   40 am   
    43   40   41 1    
    44   41   42 1    
    45   42   43 1    
    46   43   44 2    
    47   43   45 am   
    48   45   46 1    
    49   46   47 1    
    50   47   48 1    
    51   48   49 1    
    52   49   50 2    
    53   49   51 1    
    54   51   52 1    
    55   52   53 1    
    56   53   54 1    
    57   54   55 1    
    58   55   56 1    
    59   56   57 1    
@<TRIPOS>SUBSTRUCTURE
     1 CO8903      1 GROUP   
@<TRIPOS>SET

