#    Name: 6gfg_2_ADP
#    Modification time : Fri May 22 19:26:22 2020

@<TRIPOS>MOLECULE
6gfg_2_ADP
   39    41     1     0     1
SMALL
NO_CHARGES


@<TRIPOS>ATOM
      1 PB         -9.6170  -35.2540   34.6800 P.3       1 ADP502      0.0000 
      2 O1B        -8.4080  -35.3250   33.7830 O.co2     1 ADP502      0.0000 
      3 O2B       -10.4790  -34.0690   34.2630 O.co2     1 ADP502      0.0000 
      4 O3B       -10.2840  -36.5820   34.9120 O.co2     1 ADP502      0.0000 
      5 PA         -9.2680  -33.6880   37.0890 P.3       1 ADP502      0.0000 
      6 O1A        -9.2690  -32.4120   36.2790 O.co2     1 ADP502      0.0000 
      7 O2A        -8.3850  -33.7690   38.3130 O.co2     1 ADP502      0.0000 
      8 O3A        -9.0340  -35.0050   36.1680 O.3       1 ADP502      0.0000 
      9 O5'       -10.7920  -33.8780   37.5500 O.3       1 ADP502      0.0000 
     10 C5'       -11.1860  -34.3650   38.8230 C.3       1 ADP502      0.0000 
     11 C4'       -12.1790  -33.4210   39.5200 C.3       1 ADP502      0.0000 
     12 O4'       -11.9310  -33.5010   40.9300 O.3       1 ADP502      0.0000 
     13 C3'       -12.0580  -31.9550   39.1090 C.3       1 ADP502      0.0000 
     14 O3'       -13.0550  -31.5680   38.1460 O.3       1 ADP502      0.0000 
     15 C2'       -12.0820  -31.1880   40.4340 C.3       1 ADP502      0.0000 
     16 O2'       -13.3210  -30.5840   40.7890 O.3       1 ADP502      0.0000 
     17 C1'       -11.7510  -32.2120   41.4970 C.3       1 ADP502      0.0000 
     18 N9        -10.3330  -31.9790   41.8220 N.pl3     1 ADP502      0.0000 
     19 C8         -9.2760  -32.3770   41.0960 C.2       1 ADP502      0.0000 
     20 N7         -8.1240  -31.9640   41.6690 N.2       1 ADP502      0.0000 
     21 C5         -8.4550  -31.2860   42.7720 C.ar      1 ADP502      0.0000 
     22 C6         -7.7280  -30.5800   43.8210 C.ar      1 ADP502      0.0000 
     23 N6         -6.3800  -30.5560   43.7580 N.pl3     1 ADP502      0.0000 
     24 N1         -8.4430  -29.9850   44.8010 N.ar      1 ADP502      0.0000 
     25 C2         -9.7780  -30.0240   44.8390 C.ar      1 ADP502      0.0000 
     26 N3        -10.5040  -30.6470   43.9030 N.ar      1 ADP502      0.0000 
     27 C4         -9.9090  -31.2820   42.8670 C.ar      1 ADP502      0.0000 
     28 H5'1      -10.3010  -34.4850   39.4520 H         1 ADP502      0.0000 
     29 H5'2      -11.6460  -35.3480   38.7060 H         1 ADP502      0.0000 
     30 H4'       -13.2000  -33.7640   39.3030 H         1 ADP502      0.0000 
     31 H3'       -11.0640  -31.8150   38.6620 H         1 ADP502      0.0000 
     32 HO3'      -12.9370  -30.6350   37.9180 H         1 ADP502      0.0000 
     33 H2'       -11.2880  -30.4290   40.4170 H         1 ADP502      0.0000 
     34 HO2'      -13.5650  -29.9310   40.1190 H         1 ADP502      0.0000 
     35 H1'       -12.3930  -32.0660   42.3770 H         1 ADP502      0.0000 
     36 H8         -9.3370  -32.9590   40.1850 H         1 ADP502      0.0000 
     37 HN61       -5.8490  -30.0820   44.4750 H         1 ADP502      0.0000 
     38 HN62       -5.9010  -31.0220   43.0000 H         1 ADP502      0.0000 
     39 H2        -10.2910  -29.5260   45.6520 H         1 ADP502      0.0000 
@<TRIPOS>BOND
     1    1    2 ar   
     2    1    3 ar   
     3    1    4 ar   
     4    1    8 1    
     5    5    6 ar   
     6    5    7 ar   
     7    5    8 1    
     8    5    9 1    
     9    9   10 1    
    10   10   11 1    
    11   10   28 1    
    12   10   29 1    
    13   11   12 1    
    14   11   13 1    
    15   11   30 1    
    16   12   17 1    
    17   13   14 1    
    18   13   15 1    
    19   13   31 1    
    20   14   32 1    
    21   15   16 1    
    22   15   17 1    
    23   15   33 1    
    24   16   34 1    
    25   17   18 1    
    26   17   35 1    
    27   18   19 1    
    28   18   27 1    
    29   19   20 2    
    30   19   36 1    
    31   20   21 1    
    32   21   22 ar   
    33   21   27 ar   
    34   22   23 1    
    35   22   24 ar   
    36   23   37 1    
    37   23   38 1    
    38   24   25 ar   
    39   25   26 ar   
    40   25   39 1    
    41   26   27 ar   
@<TRIPOS>SUBSTRUCTURE
     1 ADP502      1 GROUP   
@<TRIPOS>SET
ATOM$ORANGE STATIC     ATOMS   COLORGROUP SYSTEM 
20 10 10 11 11 13 13 15 15 17 17 19 19 21 21 22 22 25 \
25 27 27 

