#    Name: 6gfg_1_ADP
#    Modification time : Fri May 22 19:26:12 2020

@<TRIPOS>MOLECULE
6gfg_1_ADP
   39    41     1     0     1
SMALL
NO_CHARGES


@<TRIPOS>ATOM
      1 PB         -5.3630   -2.7230   -0.0790 P.3       1 ADP502      0.0000 
      2 O1B        -6.2070   -3.7200   -0.8610 O.co2     1 ADP502      0.0000 
      3 O2B        -6.2300   -1.5990    0.4470 O.co2     1 ADP502      0.0000 
      4 O3B        -4.3640   -3.2780    0.9210 O.co2     1 ADP502      0.0000 
      5 PA         -4.6230   -2.0770   -2.6750 P.3       1 ADP502      0.0000 
      6 O1A        -4.0080   -0.9060   -3.4070 O.co2     1 ADP502      0.0000 
      7 O2A        -6.0820   -2.4330   -2.8210 O.co2     1 ADP502      0.0000 
      8 O3A        -4.3230   -2.0280   -1.1020 O.3       1 ADP502      0.0000 
      9 O5'        -3.8020   -3.3810   -3.0790 O.3       1 ADP502      0.0000 
     10 C5'        -3.9540   -3.9430   -4.3700 C.3       1 ADP502      0.0000 
     11 C4'        -2.5530   -4.1170   -4.9320 C.3       1 ADP502      0.0000 
     12 O4'        -2.6130   -4.0180   -6.3480 O.3       1 ADP502      0.0000 
     13 C3'        -1.5560   -3.0620   -4.4300 C.3       1 ADP502      0.0000 
     14 O3'        -0.7930   -3.4570   -3.2650 O.3       1 ADP502      0.0000 
     15 C2'        -0.7010   -2.7910   -5.6450 C.3       1 ADP502      0.0000 
     16 O2'         0.4790   -3.5990   -5.6320 O.3       1 ADP502      0.0000 
     17 C1'        -1.6000   -3.1550   -6.8080 C.3       1 ADP502      0.0000 
     18 N9         -2.2530   -1.9070   -7.2250 N.pl3     1 ADP502      0.0000 
     19 C8         -3.2540   -1.2760   -6.5740 C.2       1 ADP502      0.0000 
     20 N7         -3.6010   -0.1420   -7.2270 N.2       1 ADP502      0.0000 
     21 C5         -2.8060   -0.0430   -8.3080 C.ar      1 ADP502      0.0000 
     22 C6         -2.6460    0.9090   -9.4190 C.ar      1 ADP502      0.0000 
     23 N6         -3.4320    2.0100   -9.5040 N.pl3     1 ADP502      0.0000 
     24 N1         -1.6960    0.6310  -10.3350 N.ar      1 ADP502      0.0000 
     25 C2         -0.9190   -0.4660  -10.2500 C.ar      1 ADP502      0.0000 
     26 N3         -1.0100   -1.3670   -9.2680 N.ar      1 ADP502      0.0000 
     27 C4         -1.9170   -1.2080   -8.2950 C.ar      1 ADP502      0.0000 
     28 H5'1       -4.5390   -3.2770   -5.0080 H         1 ADP502      0.0000 
     29 H5'2       -4.4610   -4.9080   -4.3070 H         1 ADP502      0.0000 
     30 H4'        -2.1830   -5.1120   -4.6460 H         1 ADP502      0.0000 
     31 H3'        -2.1180   -2.1470   -4.1980 H         1 ADP502      0.0000 
     32 HO3'       -0.1930   -2.7420   -3.0150 H         1 ADP502      0.0000 
     33 H2'        -0.4470   -1.7230   -5.6910 H         1 ADP502      0.0000 
     34 HO2'        1.0070   -3.3860   -4.8510 H         1 ADP502      0.0000 
     35 H1'        -1.0170   -3.6050   -7.6250 H         1 ADP502      0.0000 
     36 H8         -3.7150   -1.6290   -5.6600 H         1 ADP502      0.0000 
     37 HN61       -3.3140    2.6560  -10.2710 H         1 ADP502      0.0000 
     38 HN62       -4.1340    2.1840   -8.8000 H         1 ADP502      0.0000 
     39 H2         -0.1740   -0.6230  -11.0200 H         1 ADP502      0.0000 
@<TRIPOS>BOND
     1    1    2 ar   
     2    1    3 ar   
     3    1    4 ar   
     4    1    8 1    
     5    5    6 ar   
     6    5    7 ar   
     7    5    8 1    
     8    5    9 1    
     9    9   10 1    
    10   10   11 1    
    11   10   28 1    
    12   10   29 1    
    13   11   12 1    
    14   11   13 1    
    15   11   30 1    
    16   12   17 1    
    17   13   14 1    
    18   13   15 1    
    19   13   31 1    
    20   14   32 1    
    21   15   16 1    
    22   15   17 1    
    23   15   33 1    
    24   16   34 1    
    25   17   18 1    
    26   17   35 1    
    27   18   19 1    
    28   18   27 1    
    29   19   20 2    
    30   19   36 1    
    31   20   21 1    
    32   21   22 ar   
    33   21   27 ar   
    34   22   23 1    
    35   22   24 ar   
    36   23   37 1    
    37   23   38 1    
    38   24   25 ar   
    39   25   26 ar   
    40   25   39 1    
    41   26   27 ar   
@<TRIPOS>SUBSTRUCTURE
     1 ADP502      1 GROUP   
@<TRIPOS>SET
ATOM$ORANGE STATIC     ATOMS   COLORGROUP SYSTEM 
20 10 10 11 11 13 13 15 15 17 17 19 19 21 21 22 22 25 \
25 27 27 

