#    Name: 6qgr_3_FAD
#    Modification time : Fri May 22 19:31:06 2020

@<TRIPOS>MOLECULE
6qgr_3_FAD
   53    58     1     0     1
SMALL
NO_CHARGES


@<TRIPOS>ATOM
      1 PA        -32.6450  -65.7060  -23.2550 P.3       1 FAD302      0.0000 
      2 O1A       -33.5960  -66.3600  -22.2040 O.co2     1 FAD302      0.0000 
      3 O2A       -32.7250  -66.2570  -24.6240 O.co2     1 FAD302      0.0000 
      4 O5B       -31.0710  -65.9290  -22.8100 O.3       1 FAD302      0.0000 
      5 C5B       -30.6670  -65.5480  -21.5510 C.3       1 FAD302      0.0000 
      6 C4B       -29.4130  -64.6740  -21.6790 C.3       1 FAD302      0.0000 
      7 O4B       -29.2670  -64.0490  -20.4830 O.3       1 FAD302      0.0000 
      8 C3B       -28.1090  -65.4560  -22.0270 C.3       1 FAD302      0.0000 
      9 O3B       -27.3210  -64.7180  -22.9000 O.3       1 FAD302      0.0000 
     10 C2B       -27.4090  -65.4680  -20.6520 C.3       1 FAD302      0.0000 
     11 O2B       -25.9690  -65.6470  -20.8750 O.3       1 FAD302      0.0000 
     12 C1B       -27.7760  -64.2560  -20.0030 C.3       1 FAD302      0.0000 
     13 N9A       -27.8360  -64.2990  -18.6330 N.pl3     1 FAD302      0.0000 
     14 C8A       -28.8120  -64.9860  -17.8670 C.2       1 FAD302      0.0000 
     15 N7A       -28.4830  -64.7460  -16.4950 N.2       1 FAD302      0.0000 
     16 C5A       -27.3400  -63.9460  -16.4630 C.ar      1 FAD302      0.0000 
     17 C6A       -26.6130  -63.4630  -15.4090 C.ar      1 FAD302      0.0000 
     18 N6A       -26.8150  -63.6050  -13.9940 N.pl3     1 FAD302      0.0000 
     19 N1A       -25.5270  -62.7170  -15.5770 N.ar      1 FAD302      0.0000 
     20 C2A       -25.0790  -62.3890  -16.8600 C.ar      1 FAD302      0.0000 
     21 N3A       -25.7680  -62.8380  -17.9500 N.ar      1 FAD302      0.0000 
     22 C4A       -26.9420  -63.6730  -17.7800 C.ar      1 FAD302      0.0000 
     23 N1        -34.5470  -56.6620  -18.2130 N.2       1 FAD302      0.0000 
     24 C2        -35.4450  -55.4800  -18.1300 C.2       1 FAD302      0.0000 
     25 O2        -36.1650  -55.1840  -19.0850 O.2       1 FAD302      0.0000 
     26 N3        -35.4000  -54.7140  -16.8870 N.am      1 FAD302      0.0000 
     27 C4        -34.6030  -55.0790  -15.7870 C.2       1 FAD302      0.0000 
     28 O4        -34.5890  -54.4500  -14.7780 O.2       1 FAD302      0.0000 
     29 C4X       -33.7160  -56.2710  -15.8670 C.2       1 FAD302      0.0000 
     30 N5        -32.8480  -56.6020  -14.6910 N.2       1 FAD302      0.0000 
     31 C5X       -31.9860  -57.7460  -14.8920 C.ar      1 FAD302      0.0000 
     32 C6        -31.1450  -58.1010  -13.8140 C.ar      1 FAD302      0.0000 
     33 C7        -30.2760  -59.2850  -13.9990 C.ar      1 FAD302      0.0000 
     34 C7M       -29.4800  -59.4010  -12.6300 C.3       1 FAD302      0.0000 
     35 C8        -30.2960  -60.0300  -15.2620 C.ar      1 FAD302      0.0000 
     36 C8M       -29.3360  -61.2060  -15.3270 C.3       1 FAD302      0.0000 
     37 C9        -31.1120  -59.6750  -16.3080 C.ar      1 FAD302      0.0000 
     38 C9A       -31.9910  -58.5200  -16.1100 C.ar      1 FAD302      0.0000 
     39 N10       -32.8510  -58.1820  -17.2330 N.pl3     1 FAD302      0.0000 
     40 C10       -33.6870  -57.0180  -17.0780 C.2       1 FAD302      0.0000 
     41 C1'       -32.8880  -58.8960  -18.5830 C.3       1 FAD302      0.0000 
     42 C2'       -34.0200  -59.8580  -18.7030 C.3       1 FAD302      0.0000 
     43 O2'       -34.2780  -60.5210  -17.4040 O.3       1 FAD302      0.0000 
     44 C3'       -33.5930  -60.9100  -19.7220 C.3       1 FAD302      0.0000 
     45 O3'       -32.3830  -61.5400  -19.3080 O.3       1 FAD302      0.0000 
     46 C4'       -33.3270  -60.2050  -21.0720 C.3       1 FAD302      0.0000 
     47 O4'       -34.5720  -59.6630  -21.5510 O.3       1 FAD302      0.0000 
     48 C5'       -32.7450  -61.1820  -22.1020 C.3       1 FAD302      0.0000 
     49 O5'       -33.7570  -62.1460  -22.3040 O.3       1 FAD302      0.0000 
     50 P         -33.9210  -63.0770  -23.6390 P.3       1 FAD302      0.0000 
     51 O1P       -33.4540  -62.3300  -24.8880 O.co2     1 FAD302      0.0000 
     52 O2P       -35.2360  -63.8200  -23.9440 O.co2     1 FAD302      0.0000 
     53 O3P       -32.6980  -64.1530  -23.3560 O.3       1 FAD302      0.0000 
@<TRIPOS>BOND
     1    1    2 ar   
     2    1    3 ar   
     3    1    4 1    
     4    1   53 1    
     5    4    5 1    
     6    5    6 1    
     7    6    7 1    
     8    6    8 1    
     9    7   12 1    
    10    8    9 1    
    11    8   10 1    
    12   10   11 1    
    13   10   12 1    
    14   12   13 1    
    15   13   14 1    
    16   13   22 1    
    17   14   15 2    
    18   15   16 1    
    19   16   17 ar   
    20   16   22 ar   
    21   17   18 1    
    22   17   19 ar   
    23   19   20 ar   
    24   20   21 ar   
    25   21   22 ar   
    26   23   24 1    
    27   23   40 2    
    28   24   25 2    
    29   24   26 am   
    30   26   27 am   
    31   27   28 2    
    32   27   29 1    
    33   29   30 2    
    34   29   40 1    
    35   30   31 1    
    36   31   32 ar   
    37   31   38 ar   
    38   32   33 ar   
    39   33   34 1    
    40   33   35 ar   
    41   35   36 1    
    42   35   37 ar   
    43   37   38 ar   
    44   38   39 1    
    45   39   40 1    
    46   39   41 1    
    47   41   42 1    
    48   42   43 1    
    49   42   44 1    
    50   44   45 1    
    51   44   46 1    
    52   46   47 1    
    53   46   48 1    
    54   48   49 1    
    55   49   50 1    
    56   50   51 ar   
    57   50   52 ar   
    58   50   53 1    
@<TRIPOS>SUBSTRUCTURE
     1 FAD302      1 GROUP   
@<TRIPOS>SET
ATOM$ORANGE STATIC     ATOMS   COLORGROUP SYSTEM 
54 5 5 6 6 8 8 10 10 12 12 14 14 16 16 17 17 20 \
20 22 22 24 24 27 27 29 29 31 31 32 32 33 33 34 34 35 \
35 36 36 37 37 38 38 40 40 41 41 42 42 44 44 46 46 48 \
48 

