#    Name: 6vpp_1_GTP
#    Modification time : Fri May 22 19:26:18 2020

@<TRIPOS>MOLECULE
6vpp_1_GTP
   32    34     1     0     1
SMALL
NO_CHARGES


@<TRIPOS>ATOM
      1 PG        102.3760  105.9730  116.3620 P.3       1 GTP501      0.0000 
      2 O1G       103.3100  106.7550  117.2490 O.co2     1 GTP501      0.0000 
      3 O2G       103.0070  104.6490  116.0200 O.co2     1 GTP501      0.0000 
      4 O3G       102.1020  106.7530  115.1040 O.co2     1 GTP501      0.0000 
      5 O3B       101.0110  105.7680  117.1680 O.3       1 GTP501      0.0000 
      6 PB        100.0380  107.0350  117.2490 P.3       1 GTP501      0.0000 
      7 O1B       100.8780  108.2660  117.4530 O.co2     1 GTP501      0.0000 
      8 O2B        99.0110  106.8880  118.3420 O.co2     1 GTP501      0.0000 
      9 O3A        99.4000  107.0780  115.7810 O.3       1 GTP501      0.0000 
     10 PA         98.4210  105.9520  115.2100 P.3       1 GTP501      0.0000 
     11 O1A        97.5760  105.3770  116.3170 O.co2     1 GTP501      0.0000 
     12 O2A        99.1880  104.8880  114.4650 O.co2     1 GTP501      0.0000 
     13 O5'        97.4800  106.8120  114.2390 O.3       1 GTP501      0.0000 
     14 C5'        96.1940  107.1610  114.6770 C.3       1 GTP501      0.0000 
     15 C4'        95.1920  106.3250  113.9020 C.3       1 GTP501      0.0000 
     16 O4'        95.7970  105.1750  113.3550 O.3       1 GTP501      0.0000 
     17 C3'        94.0930  105.7910  114.7920 C.3       1 GTP501      0.0000 
     18 O3'        92.9720  106.6380  114.7370 O.3       1 GTP501      0.0000 
     19 C2'        93.7520  104.4390  114.2090 C.3       1 GTP501      0.0000 
     20 O2'        92.4670  104.4600  113.6400 O.3       1 GTP501      0.0000 
     21 C1'        94.7920  104.2090  113.1330 C.3       1 GTP501      0.0000 
     22 N9         95.3220  102.8490  113.2640 N.pl3     1 GTP501      0.0000 
     23 C8         96.2050  102.4010  114.2030 C.2       1 GTP501      0.0000 
     24 N7         96.4330  101.0900  113.9700 N.2       1 GTP501      0.0000 
     25 C5         95.7150  100.7080  112.8970 C.2       1 GTP501      0.0000 
     26 C6         95.5930   99.5000  112.2380 C.2       1 GTP501      0.0000 
     27 O6         96.2060   98.5190  112.6410 O.2       1 GTP501      0.0000 
     28 N1         94.7640   99.3910  111.1490 N.am      1 GTP501      0.0000 
     29 C2         94.0760  100.4990  110.7150 C.2       1 GTP501      0.0000 
     30 N2         93.2790  100.4070  109.6590 N.pl3     1 GTP501      0.0000 
     31 N3         94.2060  101.7030  111.3700 N.2       1 GTP501      0.0000 
     32 C4         95.0130  101.8050  112.4440 C.2       1 GTP501      0.0000 
@<TRIPOS>BOND
     1    1    2 ar   
     2    1    3 ar   
     3    1    4 ar   
     4    1    5 1    
     5    5    6 1    
     6    6    7 ar   
     7    6    8 ar   
     8    6    9 1    
     9    9   10 1    
    10   10   11 ar   
    11   10   12 ar   
    12   10   13 1    
    13   13   14 1    
    14   14   15 1    
    15   15   16 1    
    16   15   17 1    
    17   16   21 1    
    18   17   18 1    
    19   17   19 1    
    20   19   20 1    
    21   19   21 1    
    22   21   22 1    
    23   22   23 1    
    24   22   32 1    
    25   23   24 2    
    26   24   25 1    
    27   25   26 1    
    28   25   32 2    
    29   26   27 2    
    30   26   28 am   
    31   28   29 1    
    32   29   30 1    
    33   29   31 2    
    34   31   32 1    
@<TRIPOS>SUBSTRUCTURE
     1 GTP501      1 GROUP   
@<TRIPOS>SET
ATOM$ORANGE STATIC     ATOMS   COLORGROUP SYSTEM 
20 14 14 15 15 17 17 19 19 21 21 23 23 25 25 26 26 29 \
29 32 32 

