#    Name: 6vpp_2_GDP
#    Modification time : Fri May 22 19:26:22 2020

@<TRIPOS>MOLECULE
6vpp_2_GDP
   28    30     1     0     1
SMALL
NO_CHARGES


@<TRIPOS>ATOM
      1 PB        102.0380  107.1430  157.6250 P.3       1 GDP501      0.0000 
      2 O1B       102.7270  107.1470  156.2900 O.co2     1 GDP501      0.0000 
      3 O2B       102.2260  105.8060  158.2910 O.co2     1 GDP501      0.0000 
      4 O3B       102.6150  108.2340  158.4880 O.co2     1 GDP501      0.0000 
      5 O3A       100.4890  107.4090  157.3500 O.3       1 GDP501      0.0000 
      6 PA         99.6040  106.2180  156.7530 P.3       1 GDP501      0.0000 
      7 O1A       100.3340  105.5310  155.6270 O.co2     1 GDP501      0.0000 
      8 O2A        99.2300  105.2300  157.8240 O.co2     1 GDP501      0.0000 
      9 O5'        98.3100  106.9940  156.2140 O.3       1 GDP501      0.0000 
     10 C5'        97.0510  106.6880  156.7920 C.3       1 GDP501      0.0000 
     11 C4'        96.0660  106.3720  155.6850 C.3       1 GDP501      0.0000 
     12 O4'        96.5580  105.2640  154.9370 O.3       1 GDP501      0.0000 
     13 C3'        94.7310  105.9530  156.2660 C.3       1 GDP501      0.0000 
     14 O3'        93.7390  106.9220  155.9260 O.3       1 GDP501      0.0000 
     15 C2'        94.4000  104.6180  155.6340 C.3       1 GDP501      0.0000 
     16 O2'        93.1450  104.6860  154.9610 O.3       1 GDP501      0.0000 
     17 C1'        95.5000  104.3600  154.6280 C.3       1 GDP501      0.0000 
     18 N9         95.9760  102.9730  154.7850 N.pl3     1 GDP501      0.0000 
     19 C8         96.8410  102.5520  155.7180 C.2       1 GDP501      0.0000 
     20 N7         97.0720  101.2240  155.5980 N.2       1 GDP501      0.0000 
     21 C5         96.3420  100.7810  154.5650 C.2       1 GDP501      0.0000 
     22 C6         96.1340   99.4840  153.8990 C.2       1 GDP501      0.0000 
     23 O6         96.7140   98.4610  154.3090 O.2       1 GDP501      0.0000 
     24 N1         95.2980   99.4330  152.8650 N.am      1 GDP501      0.0000 
     25 C2         94.6620  100.5260  152.4170 C.2       1 GDP501      0.0000 
     26 N2         93.8350  100.3920  151.3550 N.pl3     1 GDP501      0.0000 
     27 N3         94.8080  101.7530  152.9740 N.2       1 GDP501      0.0000 
     28 C4         95.6230  101.9360  154.0320 C.2       1 GDP501      0.0000 
@<TRIPOS>BOND
     1    1    2 ar   
     2    1    3 ar   
     3    1    4 ar   
     4    1    5 1    
     5    5    6 1    
     6    6    7 ar   
     7    6    8 ar   
     8    6    9 1    
     9    9   10 1    
    10   10   11 1    
    11   11   12 1    
    12   11   13 1    
    13   12   17 1    
    14   13   14 1    
    15   13   15 1    
    16   15   16 1    
    17   15   17 1    
    18   17   18 1    
    19   18   19 1    
    20   18   28 1    
    21   19   20 2    
    22   20   21 1    
    23   21   22 1    
    24   21   28 2    
    25   22   23 2    
    26   22   24 am   
    27   24   25 1    
    28   25   26 1    
    29   25   27 2    
    30   27   28 1    
@<TRIPOS>SUBSTRUCTURE
     1 GDP501      1 GROUP   
@<TRIPOS>SET
ATOM$ORANGE STATIC     ATOMS   COLORGROUP SYSTEM 
20 10 10 11 11 13 13 15 15 17 17 19 19 21 21 22 22 25 \
25 28 28 

