#    Name: 6no0_2_ADP
#    Modification time : Fri May 22 19:32:44 2020

@<TRIPOS>MOLECULE
6no0_2_ADP
   42    44     1     0     1
SMALL
NO_CHARGES


@<TRIPOS>ATOM
      1 PB         -2.9650   28.4600    0.4910 P.3       1 ADP301      0.0000 
      2 O1B        -1.5570   28.5660    0.9760 O.co2     1 ADP301      0.0000 
      3 O2B        -3.0590   28.2870   -1.0290 O.co2     1 ADP301      0.0000 
      4 O3B        -3.8220   29.6690    0.8830 O.co2     1 ADP301      0.0000 
      5 PA         -3.5040   26.4200    2.5130 P.3       1 ADP301      0.0000 
      6 O1A        -3.3910   24.9610    2.3050 O.co2     1 ADP301      0.0000 
      7 O2A        -2.3080   27.0630    3.2220 O.co2     1 ADP301      0.0000 
      8 O3A        -3.6870   27.1900    1.1320 O.3       1 ADP301      0.0000 
      9 O5'        -4.8060   26.7790    3.3850 O.3       1 ADP301      0.0000 
     10 C5'        -5.1630   28.0860    3.8790 C.3       1 ADP301      0.0000 
     11 C4'        -5.2160   28.0450    5.3860 C.3       1 ADP301      0.0000 
     12 O4'        -6.2850   27.1810    5.8170 O.3       1 ADP301      0.0000 
     13 C3'        -3.9820   27.4790    6.0720 C.3       1 ADP301      0.0000 
     14 O3'        -2.9750   28.4760    6.2000 O.3       1 ADP301      0.0000 
     15 C2'        -4.5350   27.0530    7.4360 C.3       1 ADP301      0.0000 
     16 O2'        -4.5070   28.1250    8.3720 O.3       1 ADP301      0.0000 
     17 C1'        -5.9880   26.6710    7.1060 C.3       1 ADP301      0.0000 
     18 N9         -6.2460   25.2340    7.1030 N.pl3     1 ADP301      0.0000 
     19 C8         -5.6720   24.2890    6.2940 C.2       1 ADP301      0.0000 
     20 N7         -6.1000   23.0680    6.5090 N.2       1 ADP301      0.0000 
     21 C5         -7.0230   23.2200    7.5340 C.ar      1 ADP301      0.0000 
     22 C6         -7.8370   22.3000    8.2230 C.ar      1 ADP301      0.0000 
     23 N6         -7.8650   20.9900    7.9600 N.pl3     1 ADP301      0.0000 
     24 N1         -8.6430   22.7810    9.1950 N.ar      1 ADP301      0.0000 
     25 C2         -8.6310   24.0920    9.4510 C.ar      1 ADP301      0.0000 
     26 N3         -7.9100   25.0520    8.8660 N.ar      1 ADP301      0.0000 
     27 C4         -7.1220   24.5480    7.9110 C.ar      1 ADP301      0.0000 
     28 HOB2       -2.3230   28.6430   -1.5930 H         1 ADP301      0.0000 
     29 HOB3       -3.7610   30.6100    0.5700 H         1 ADP301      0.0000 
     30 HOA2       -1.4030   26.6690    3.3310 H         1 ADP301      0.0000 
     31 H5'1       -4.4160   28.8140    3.5670 H         1 ADP301      0.0000 
     32 H5'2       -6.1400   28.3720    3.4940 H         1 ADP301      0.0000 
     33 H4'        -5.4850   29.0270    5.7720 H         1 ADP301      0.0000 
     34 H3'        -3.5510   26.6410    5.5270 H         1 ADP301      0.0000 
     35 HO3'       -2.1250   27.9940    6.3770 H         1 ADP301      0.0000 
     36 H2'        -3.9860   26.1910    7.8150 H         1 ADP301      0.0000 
     37 HO2'       -4.3420   27.6870    9.2470 H         1 ADP301      0.0000 
     38 H1'        -6.6910   27.1320    7.7980 H         1 ADP301      0.0000 
     39 H8         -4.9260   24.5270    5.5370 H         1 ADP301      0.0000 
     40 HN61       -7.2780   20.6020    7.2290 H         1 ADP301      0.0000 
     41 HN62       -8.4730   20.3750    8.4910 H         1 ADP301      0.0000 
     42 H2         -9.3050   24.4070   10.2460 H         1 ADP301      0.0000 
@<TRIPOS>BOND
     1    1    2 ar   
     2    1    3 ar   
     3    1    4 ar   
     4    1    8 1    
     5    3   28 1    
     6    4   29 1    
     7    5    6 ar   
     8    5    7 ar   
     9    5    8 1    
    10    5    9 1    
    11    7   30 1    
    12    9   10 1    
    13   10   11 1    
    14   10   31 1    
    15   10   32 1    
    16   11   12 1    
    17   11   13 1    
    18   11   33 1    
    19   12   17 1    
    20   13   14 1    
    21   13   15 1    
    22   13   34 1    
    23   14   35 1    
    24   15   16 1    
    25   15   17 1    
    26   15   36 1    
    27   16   37 1    
    28   17   18 1    
    29   17   38 1    
    30   18   19 1    
    31   18   27 1    
    32   19   20 2    
    33   19   39 1    
    34   20   21 1    
    35   21   22 ar   
    36   21   27 ar   
    37   22   23 1    
    38   22   24 ar   
    39   23   40 1    
    40   23   41 1    
    41   24   25 ar   
    42   25   26 ar   
    43   25   42 1    
    44   26   27 ar   
@<TRIPOS>SUBSTRUCTURE
     1 ADP301      1 GROUP   
@<TRIPOS>SET
ATOM$ORANGE STATIC     ATOMS   COLORGROUP SYSTEM 
20 10 10 11 11 13 13 15 15 17 17 19 19 21 21 22 22 25 \
25 27 27 

