#    Name: 6no0_1_ADP
#    Modification time : Fri May 22 19:32:37 2020

@<TRIPOS>MOLECULE
6no0_1_ADP
   42    44     1     0     1
SMALL
NO_CHARGES


@<TRIPOS>ATOM
      1 PB        -21.0160   -2.2010   25.8840 P.3       1 ADP301      0.0000 
      2 O1B       -21.8160   -3.2590   25.2000 O.co2     1 ADP301      0.0000 
      3 O2B       -19.9240   -2.7750   26.7940 O.co2     1 ADP301      0.0000 
      4 O3B       -21.8810   -1.2500   26.7210 O.co2     1 ADP301      0.0000 
      5 PA        -20.2310    0.2830   24.5530 P.3       1 ADP301      0.0000 
      6 O1A       -20.5910    0.6040   23.1550 O.co2     1 ADP301      0.0000 
      7 O2A       -21.1270    0.9280   25.6130 O.co2     1 ADP301      0.0000 
      8 O3A       -20.2600   -1.2870   24.8160 O.3       1 ADP301      0.0000 
      9 O5'       -18.7260    0.7310   24.8810 O.3       1 ADP301      0.0000 
     10 C5'       -18.1090    0.7290   26.1840 C.3       1 ADP301      0.0000 
     11 C4'       -17.7390    2.1440   26.5510 C.3       1 ADP301      0.0000 
     12 O4'       -16.7190    2.6310   25.6570 O.3       1 ADP301      0.0000 
     13 C3'       -18.8560    3.1680   26.4300 C.3       1 ADP301      0.0000 
     14 O3'       -19.6880    3.1510   27.5840 O.3       1 ADP301      0.0000 
     15 C2'       -18.0790    4.4830   26.3110 C.3       1 ADP301      0.0000 
     16 O2'       -17.7660    5.0250   27.5880 O.3       1 ADP301      0.0000 
     17 C1'       -16.7920    4.0460   25.5890 C.3       1 ADP301      0.0000 
     18 N9        -16.7270    4.4440   24.1860 N.pl3     1 ADP301      0.0000 
     19 C8        -17.5630    4.0540   23.1730 C.2       1 ADP301      0.0000 
     20 N7        -17.2720    4.5780   22.0070 N.2       1 ADP301      0.0000 
     21 C5        -16.1640    5.3710   22.2710 C.ar      1 ADP301      0.0000 
     22 C6        -15.3720    6.1990   21.4530 C.ar      1 ADP301      0.0000 
     23 N6        -15.5830    6.3720   20.1440 N.pl3     1 ADP301      0.0000 
     24 N1        -14.3420    6.8540   22.0320 N.ar      1 ADP301      0.0000 
     25 C2        -14.1260    6.6840   23.3400 C.ar      1 ADP301      0.0000 
     26 N3        -14.8040    5.9310   24.2090 N.ar      1 ADP301      0.0000 
     27 C4        -15.8170    5.2960   23.6100 C.ar      1 ADP301      0.0000 
     28 HOB2      -20.1990   -3.2800   27.6030 H         1 ADP301      0.0000 
     29 HOB3      -22.6060   -1.4640   27.3650 H         1 ADP301      0.0000 
     30 HOA2      -22.0080    1.3590   25.4600 H         1 ADP301      0.0000 
     31 H5'1      -17.2090    0.1160   26.1660 H         1 ADP301      0.0000 
     32 H5'2      -18.8070    0.3380   26.9230 H         1 ADP301      0.0000 
     33 H4'       -17.2730    2.1600   27.5350 H         1 ADP301      0.0000 
     34 H3'       -19.4920    2.9890   25.5650 H         1 ADP301      0.0000 
     35 HO3'      -20.5660    3.5190   27.3020 H         1 ADP301      0.0000 
     36 H2'       -18.6350    5.2000   25.7090 H         1 ADP301      0.0000 
     37 HO2'      -17.7520    6.0080   27.4450 H         1 ADP301      0.0000 
     38 H1'       -15.9020    4.4310   26.0850 H         1 ADP301      0.0000 
     39 H8        -18.3970    3.3690   23.3200 H         1 ADP301      0.0000 
     40 HN61      -14.9780    6.9830   19.6040 H         1 ADP301      0.0000 
     41 HN62      -16.3490    5.8930   19.6810 H         1 ADP301      0.0000 
     42 H2        -13.2790    7.2410   23.7370 H         1 ADP301      0.0000 
@<TRIPOS>BOND
     1    1    2 ar   
     2    1    3 ar   
     3    1    4 ar   
     4    1    8 1    
     5    3   28 1    
     6    4   29 1    
     7    5    6 ar   
     8    5    7 ar   
     9    5    8 1    
    10    5    9 1    
    11    7   30 1    
    12    9   10 1    
    13   10   11 1    
    14   10   31 1    
    15   10   32 1    
    16   11   12 1    
    17   11   13 1    
    18   11   33 1    
    19   12   17 1    
    20   13   14 1    
    21   13   15 1    
    22   13   34 1    
    23   14   35 1    
    24   15   16 1    
    25   15   17 1    
    26   15   36 1    
    27   16   37 1    
    28   17   18 1    
    29   17   38 1    
    30   18   19 1    
    31   18   27 1    
    32   19   20 2    
    33   19   39 1    
    34   20   21 1    
    35   21   22 ar   
    36   21   27 ar   
    37   22   23 1    
    38   22   24 ar   
    39   23   40 1    
    40   23   41 1    
    41   24   25 ar   
    42   25   26 ar   
    43   25   42 1    
    44   26   27 ar   
@<TRIPOS>SUBSTRUCTURE
     1 ADP301      1 GROUP   
@<TRIPOS>SET
ATOM$ORANGE STATIC     ATOMS   COLORGROUP SYSTEM 
20 10 10 11 11 13 13 15 15 17 17 19 19 21 21 22 22 25 \
25 27 27 

