#    Name: 6j9v_1_ADP_CAVITY_N1_4
#    Modification time : Fri May 22 19:37:02 2020

@<TRIPOS>MOLECULE
6j9v_1_ADP_CAVITY_N1_4
   44     0     5     0     0
SMALL
NO_CHARGES


@<TRIPOS>ATOM
      1 OG          3.8300  -15.3600   21.1800 O.3       1 SER1        0.0000 
      2 O           0.0100  -13.5200   21.2600 O.2       2 ALA2        0.0000 
      3 O           2.9500   -9.8300   20.8300 O.2       2 ALA2        0.0000 
      4 O           3.8600  -10.4300   21.8600 O.2       2 ALA2        0.0000 
      5 O           3.9500  -10.1400   19.7600 O.2       2 ALA2        0.0000 
      6 O           4.9600  -10.4600   18.6900 O.2       2 ALA2        0.0000 
      7 CZ          2.6600  -12.8200   19.3300 C.ar      3 PHE5        0.0000 
      8 CZ          1.3900  -10.5600   19.5800 C.ar      3 PHE5        0.0000 
      9 CZ          3.3100  -11.4800   19.5500 C.ar      3 PHE5        0.0000 
     10 CA         -2.0000  -12.8900   23.4000 C.3       4 GLY6        0.0000 
     11 CA         -1.0000  -13.2100   22.3300 C.3       4 GLY6        0.0000 
     12 CA         -2.3600  -11.2400   24.6800 C.3       4 GLY6        0.0000 
     13 CA         -1.4500  -11.8400   25.7100 C.3       4 GLY6        0.0000 
     14 CA         -1.3500  -11.5500   23.6100 C.3       4 GLY6        0.0000 
     15 CA         -0.3500  -11.8700   22.5400 C.3       4 GLY6        0.0000 
     16 CA         -0.2600  -11.5800   20.4400 C.3       4 GLY6        0.0000 
     17 CA          0.6500  -12.1900   21.4700 C.3       4 GLY6        0.0000 
     18 CA         -1.8000  -10.1900   26.9900 C.3       4 GLY6        0.0000 
     19 CA         -0.8000  -10.5000   25.9200 C.3       4 GLY6        0.0000 
     20 CA         -0.7100  -10.2200   23.8200 C.3       4 GLY6        0.0000 
     21 CA          0.2000  -10.8200   24.8500 C.3       4 GLY6        0.0000 
     22 CA          0.3000  -10.5300   22.7500 C.3       4 GLY6        0.0000 
     23 CA          1.2100  -11.1400   23.7800 C.3       4 GLY6        0.0000 
     24 CA          0.3900  -10.2500   20.6500 C.3       4 GLY6        0.0000 
     25 CA          1.3000  -10.8500   21.6800 C.3       4 GLY6        0.0000 
     26 CA          2.2100  -11.4500   22.7100 C.3       4 GLY6        0.0000 
     27 CA          0.8500   -9.4800   25.0700 C.3       4 GLY6        0.0000 
     28 CA          3.0400   -9.5400   18.7300 C.3       4 GLY6        0.0000 
     29 CA          4.8600  -10.7500   20.7900 C.3       4 GLY6        0.0000 
     30 CA          5.8600  -11.0600   19.7200 C.3       4 GLY6        0.0000 
     31 DU         -0.0900  -13.8100   23.3600 H         5 CUB7        0.0000 
     32 DU          1.9200  -14.4400   21.2200 H         5 CUB7        0.0000 
     33 DU          2.8300  -15.0400   22.2500 H         5 CUB7        0.0000 
     34 DU         -0.5400  -12.4400   26.7400 H         5 CUB7        0.0000 
     35 DU         -0.4400  -12.1600   24.6400 H         5 CUB7        0.0000 
     36 DU          0.5600  -12.4700   23.5700 H         5 CUB7        0.0000 
     37 DU          1.5600  -12.7900   22.5000 H         5 CUB7        0.0000 
     38 DU          1.6600  -12.5000   20.4000 H         5 CUB7        0.0000 
     39 DU          3.5700  -13.4200   20.3600 H         5 CUB7        0.0000 
     40 DU          4.4800  -14.0200   21.3900 H         5 CUB7        0.0000 
     41 DU          2.3000  -11.1700   20.6200 H         5 CUB7        0.0000 
     42 DU          3.2100  -11.7700   21.6500 H         5 CUB7        0.0000 
     43 DU          4.2100  -12.0800   20.5800 H         5 CUB7        0.0000 
     44 DU          5.2200  -12.4000   19.5100 H         5 CUB7        0.0000 
@<TRIPOS>BOND
@<TRIPOS>SUBSTRUCTURE
     1 SER1        1 GROUP   
     2 ALA2        2 GROUP   
     3 PHE5        7 GROUP   
     4 GLY6       10 GROUP   
     5 CUB7       31 GROUP   
@<TRIPOS>SET

