#    Name: 6j9v_1_ADP
#    Modification time : Fri May 22 19:37:01 2020

@<TRIPOS>MOLECULE
6j9v_1_ADP
   27    29     1     0     1
SMALL
NO_CHARGES


@<TRIPOS>ATOM
      1 PB          3.0110  -11.3600   23.6090 P.3       1 ADP701      0.0000 
      2 O1B         3.4960  -10.6230   22.3740 O.co2     1 ADP701      0.0000 
      3 O2B         1.4960  -11.2570   23.7730 O.co2     1 ADP701      0.0000 
      4 O3B         3.5800  -12.7640   23.6010 O.co2     1 ADP701      0.0000 
      5 PA          2.8900   -9.8240   26.1680 P.3       1 ADP701      0.0000 
      6 O1A         1.4130   -9.5730   25.9000 O.co2     1 ADP701      0.0000 
      7 O2A         3.3220  -10.2350   27.5600 O.co2     1 ADP701      0.0000 
      8 O3A         3.6350  -10.7120   24.9950 O.3       1 ADP701      0.0000 
      9 O5'         3.6210   -8.4220   25.9690 O.3       1 ADP701      0.0000 
     10 C5'         3.2810   -7.3760   26.8540 C.3       1 ADP701      0.0000 
     11 C4'         4.1620   -6.2060   26.5000 C.3       1 ADP701      0.0000 
     12 O4'         3.5400   -5.0720   27.0700 O.3       1 ADP701      0.0000 
     13 C3'         5.5740   -6.3200   27.0530 C.3       1 ADP701      0.0000 
     14 O3'         6.5030   -6.2270   25.9610 O.3       1 ADP701      0.0000 
     15 C2'         5.6970   -5.1900   28.0720 C.3       1 ADP701      0.0000 
     16 O2'         6.7020   -4.2460   27.7130 O.3       1 ADP701      0.0000 
     17 C1'         4.3640   -4.4560   28.0550 C.3       1 ADP701      0.0000 
     18 N9          3.5920   -4.4620   29.3310 N.pl3     1 ADP701      0.0000 
     19 C8          3.3320   -5.5050   30.1650 C.2       1 ADP701      0.0000 
     20 N7          2.5700   -5.0930   31.2250 N.2       1 ADP701      0.0000 
     21 C5          2.3240   -3.7720   31.0570 C.ar      1 ADP701      0.0000 
     22 C6          1.5890   -2.7040   31.7630 C.ar      1 ADP701      0.0000 
     23 N6          0.9390   -2.9660   32.9170 N.pl3     1 ADP701      0.0000 
     24 N1          1.5860   -1.4620   31.2240 N.ar      1 ADP701      0.0000 
     25 C2          2.2170   -1.1400   30.0830 C.ar      1 ADP701      0.0000 
     26 N3          2.8970   -2.0590   29.3830 N.ar      1 ADP701      0.0000 
     27 C4          2.9900   -3.3600   29.8060 C.ar      1 ADP701      0.0000 
@<TRIPOS>BOND
     1    1    2 ar   
     2    1    3 ar   
     3    1    4 ar   
     4    1    8 1    
     5    5    6 ar   
     6    5    7 ar   
     7    5    8 1    
     8    5    9 1    
     9    9   10 1    
    10   10   11 1    
    11   11   12 1    
    12   11   13 1    
    13   12   17 1    
    14   13   14 1    
    15   13   15 1    
    16   15   16 1    
    17   15   17 1    
    18   17   18 1    
    19   18   19 1    
    20   18   27 1    
    21   19   20 2    
    22   20   21 1    
    23   21   22 ar   
    24   21   27 ar   
    25   22   23 1    
    26   22   24 ar   
    27   24   25 ar   
    28   25   26 ar   
    29   26   27 ar   
@<TRIPOS>SUBSTRUCTURE
     1 ADP701      1 GROUP   
@<TRIPOS>SET
ATOM$ORANGE STATIC     ATOMS   COLORGROUP SYSTEM 
20 10 10 11 11 13 13 15 15 17 17 19 19 21 21 22 22 25 \
25 27 27 

