#    Name: 6j9v_1_ADP_CAVITY_N1_6
#    Modification time : Fri May 22 19:37:02 2020

@<TRIPOS>MOLECULE
6j9v_1_ADP_CAVITY_N1_6
   96     0     7     0     0
SMALL
NO_CHARGES


@<TRIPOS>ATOM
      1 OG         -2.6500  -14.2300   23.1900 O.3       1 SER1        0.0000 
      2 OG         -2.5500  -13.9400   21.0900 O.3       1 SER1        0.0000 
      3 OG         -1.6400  -14.5400   22.1200 O.3       1 SER1        0.0000 
      4 OG          3.1800  -16.7000   20.9700 O.3       1 SER1        0.0000 
      5 OG          3.2800  -16.4100   18.8700 O.3       1 SER1        0.0000 
      6 OG         -3.0000  -12.5700   24.4700 O.3       1 SER1        0.0000 
      7 OG          3.8300  -15.3600   21.1800 O.3       1 SER1        0.0000 
      8 OG          4.8300  -15.6800   20.1100 O.3       1 SER1        0.0000 
      9 O          -0.6400  -14.8600   21.0500 O.2       2 ALA2        0.0000 
     10 O           0.3600  -15.1800   19.9800 O.2       2 ALA2        0.0000 
     11 N          -4.0100  -12.2600   25.5400 N.am      2 ALA2        0.0000 
     12 O          -0.9000  -12.9200   20.2300 O.2       2 ALA2        0.0000 
     13 O           0.0100  -13.5200   21.2600 O.2       2 ALA2        0.0000 
     14 O           1.0100  -13.8400   20.1900 O.2       2 ALA2        0.0000 
     15 O           2.0100  -14.1600   19.1200 O.2       2 ALA2        0.0000 
     16 N          -4.3600  -10.6100   26.8200 N.am      2 ALA2        0.0000 
     17 N          -3.4500  -11.2100   27.8500 N.am      2 ALA2        0.0000 
     18 O          -3.3600  -10.9200   25.7500 O.2       2 ALA2        0.0000 
     19 O          -1.9000  -10.4700   29.0900 O.2       2 ALA2        0.0000 
     20 N          -3.1600   -8.2200   29.3400 N.am      2 ALA2        0.0000 
     21 O           2.9500   -9.8300   20.8300 O.2       2 ALA2        0.0000 
     22 O           3.8600  -10.4300   21.8600 O.2       2 ALA2        0.0000 
     23 O           3.9500  -10.1400   19.7600 O.2       2 ALA2        0.0000 
     24 O           4.9600  -10.4600   18.6900 O.2       2 ALA2        0.0000 
     25 OD1        -0.2800  -14.3800   27.5600 O.co2     3 ASP3        0.0000 
     26 NZ          1.2700  -15.7800   21.0100 N.4       4 LYS4        0.0000 
     27 NZ          1.3700  -15.4900   18.9100 N.4       4 LYS4        0.0000 
     28 NZ          2.2800  -16.0900   19.9400 N.4       4 LYS4        0.0000 
     29 NZ         -2.1900  -13.4600   27.6000 N.4       4 LYS4        0.0000 
     30 NZ         -3.9100  -11.9700   23.4400 N.4       4 LYS4        0.0000 
     31 NZ         -3.2600  -10.6400   23.6500 N.4       4 LYS4        0.0000 
     32 CZ          3.0200  -14.4700   18.0500 C.ar      5 PHE5        0.0000 
     33 CZ          3.9200  -15.0700   19.0800 C.ar      5 PHE5        0.0000 
     34 CZ         -2.5400  -11.8100   28.8800 C.ar      5 PHE5        0.0000 
     35 CZ          0.7500  -11.9000   19.3700 C.ar      5 PHE5        0.0000 
     36 CZ          2.6600  -12.8200   19.3300 C.ar      5 PHE5        0.0000 
     37 CZ          3.6600  -13.1300   18.2600 C.ar      5 PHE5        0.0000 
     38 CZ          4.5700  -13.7400   19.2900 C.ar      5 PHE5        0.0000 
     39 CZ          5.4800  -14.3400   20.3200 C.ar      5 PHE5        0.0000 
     40 CZ          1.3900  -10.5600   19.5800 C.ar      5 PHE5        0.0000 
     41 CZ          2.4000  -10.8800   18.5200 C.ar      5 PHE5        0.0000 
     42 CZ          3.3100  -11.4800   19.5500 C.ar      5 PHE5        0.0000 
     43 CZ          4.3100  -11.8000   18.4800 C.ar      5 PHE5        0.0000 
     44 CZ          5.3100  -12.1100   17.4100 C.ar      5 PHE5        0.0000 
     45 CZ          6.2200  -12.7200   18.4400 C.ar      5 PHE5        0.0000 
     46 CA         -2.9100  -12.2900   22.3700 C.3       6 GLY6        0.0000 
     47 CA         -2.0000  -12.8900   23.4000 C.3       6 GLY6        0.0000 
     48 CA         -1.9000  -12.6000   21.3000 C.3       6 GLY6        0.0000 
     49 CA         -1.0000  -13.2100   22.3300 C.3       6 GLY6        0.0000 
     50 CA         -2.4500  -11.5200   26.7800 C.3       6 GLY6        0.0000 
     51 CA         -2.3600  -11.2400   24.6800 C.3       6 GLY6        0.0000 
     52 CA         -1.4500  -11.8400   25.7100 C.3       6 GLY6        0.0000 
     53 CA         -1.3500  -11.5500   23.6100 C.3       6 GLY6        0.0000 
     54 CA         -0.3500  -11.8700   22.5400 C.3       6 GLY6        0.0000 
     55 CA         -0.2600  -11.5800   20.4400 C.3       6 GLY6        0.0000 
     56 CA          0.6500  -12.1900   21.4700 C.3       6 GLY6        0.0000 
     57 CA         -2.8100   -9.8700   28.0600 C.3       6 GLY6        0.0000 
     58 CA         -1.8000  -10.1900   26.9900 C.3       6 GLY6        0.0000 
     59 CA         -0.8000  -10.5000   25.9200 C.3       6 GLY6        0.0000 
     60 CA         -0.7100  -10.2200   23.8200 C.3       6 GLY6        0.0000 
     61 CA          0.2000  -10.8200   24.8500 C.3       6 GLY6        0.0000 
     62 CA          0.3000  -10.5300   22.7500 C.3       6 GLY6        0.0000 
     63 CA          1.2100  -11.1400   23.7800 C.3       6 GLY6        0.0000 
     64 CA          0.3900  -10.2500   20.6500 C.3       6 GLY6        0.0000 
     65 CA          1.3000  -10.8500   21.6800 C.3       6 GLY6        0.0000 
     66 CA          2.2100  -11.4500   22.7100 C.3       6 GLY6        0.0000 
     67 CA         -2.2500   -8.8200   30.3700 C.3       6 GLY6        0.0000 
     68 CA          0.8500   -9.4800   25.0700 C.3       6 GLY6        0.0000 
     69 CA          3.0400   -9.5400   18.7300 C.3       6 GLY6        0.0000 
     70 CA          4.8600  -10.7500   20.7900 C.3       6 GLY6        0.0000 
     71 CA          4.0500   -9.8600   17.6600 C.3       6 GLY6        0.0000 
     72 CA          5.8600  -11.0600   19.7200 C.3       6 GLY6        0.0000 
     73 CA          6.8700  -11.3800   18.6500 C.3       6 GLY6        0.0000 
     74 DU          0.2700  -15.4600   22.0800 H         7 CUB7        0.0000 
     75 DU          1.1800  -16.0600   23.1100 H         7 CUB7        0.0000 
     76 DU          2.1800  -16.3800   22.0400 H         7 CUB7        0.0000 
     77 DU         -3.1000  -12.8600   26.5700 H         7 CUB7        0.0000 
     78 DU         -2.0900  -13.1800   25.5000 H         7 CUB7        0.0000 
     79 DU         -1.1800  -13.7800   26.5300 H         7 CUB7        0.0000 
     80 DU         -0.0900  -13.8100   23.3600 H         7 CUB7        0.0000 
     81 DU          1.9200  -14.4400   21.2200 H         7 CUB7        0.0000 
     82 DU          2.8300  -15.0400   22.2500 H         7 CUB7        0.0000 
     83 DU          2.9200  -14.7600   20.1500 H         7 CUB7        0.0000 
     84 DU         -1.5400  -12.1300   27.8100 H         7 CUB7        0.0000 
     85 DU         -0.5400  -12.4400   26.7400 H         7 CUB7        0.0000 
     86 DU         -0.4400  -12.1600   24.6400 H         7 CUB7        0.0000 
     87 DU          0.5600  -12.4700   23.5700 H         7 CUB7        0.0000 
     88 DU          1.5600  -12.7900   22.5000 H         7 CUB7        0.0000 
     89 DU          1.6600  -12.5000   20.4000 H         7 CUB7        0.0000 
     90 DU          3.5700  -13.4200   20.3600 H         7 CUB7        0.0000 
     91 DU          4.4800  -14.0200   21.3900 H         7 CUB7        0.0000 
     92 DU          2.3000  -11.1700   20.6200 H         7 CUB7        0.0000 
     93 DU          3.2100  -11.7700   21.6500 H         7 CUB7        0.0000 
     94 DU          4.2100  -12.0800   20.5800 H         7 CUB7        0.0000 
     95 DU          5.2200  -12.4000   19.5100 H         7 CUB7        0.0000 
     96 DU          5.9600  -10.7800   17.6200 H         7 CUB7        0.0000 
@<TRIPOS>BOND
@<TRIPOS>SUBSTRUCTURE
     1 SER1        1 GROUP   
     2 ALA2        9 GROUP   
     3 ASP3       25 GROUP   
     4 LYS4       26 GROUP   
     5 PHE5       32 GROUP   
     6 GLY6       46 GROUP   
     7 CUB7       74 GROUP   
@<TRIPOS>SET

