#    Name: 6r4p_1_GSP
#    Modification time : Fri May 22 19:29:02 2020

@<TRIPOS>MOLECULE
6r4p_1_GSP
   32    34     1     0     0
SMALL
NO_CHARGES


@<TRIPOS>ATOM
      1 PG         54.3130  159.6910  125.4860 P.3       1 GSP501      0.0000 
      2 O3B        54.1270  160.7500  126.6650 O.3       1 GSP501      0.0000 
      3 S1G        52.8870  159.5750  124.5810 S.2       1 GSP501      0.0000 
      4 O2G        55.4660  160.2090  124.6290 O.3       1 GSP501      0.0000 
      5 O3G        54.6750  158.3210  126.0660 O.3       1 GSP501      0.0000 
      6 PB         55.4500  161.3330  127.3400 P.3       1 GSP501      0.0000 
      7 O1B        56.1960  160.2220  127.9440 O.co2     1 GSP501      0.0000 
      8 O2B        56.2590  162.0330  126.3330 O.co2     1 GSP501      0.0000 
      9 PA         54.9360  163.9200  128.2010 P.3       1 GSP501      0.0000 
     10 O1A        56.2930  164.4520  128.3950 O.co2     1 GSP501      0.0000 
     11 O2A        54.4090  164.2410  126.8660 O.co2     1 GSP501      0.0000 
     12 O3A        54.9270  162.3430  128.4660 O.3       1 GSP501      0.0000 
     13 O5'        53.9970  164.4940  129.3590 O.3       1 GSP501      0.0000 
     14 C5'        52.6040  164.4350  129.2180 C.3       1 GSP501      0.0000 
     15 C4'        51.9590  165.5150  130.0680 C.3       1 GSP501      0.0000 
     16 O4'        52.3600  165.3560  131.4070 O.3       1 GSP501      0.0000 
     17 C3'        52.3710  166.9050  129.6410 C.3       1 GSP501      0.0000 
     18 O3'        51.2180  167.6950  129.5530 O.3       1 GSP501      0.0000 
     19 C2'        53.1890  167.4440  130.7760 C.3       1 GSP501      0.0000 
     20 O2'        52.8260  168.7740  131.0250 O.3       1 GSP501      0.0000 
     21 C1'        52.7590  166.5940  131.9410 C.3       1 GSP501      0.0000 
     22 N9         53.8780  166.4210  132.8670 N.pl3     1 GSP501      0.0000 
     23 C8         55.0510  165.7670  132.6320 C.2       1 GSP501      0.0000 
     24 N7         55.8050  165.8470  133.7450 N.2       1 GSP501      0.0000 
     25 C5         55.1280  166.5470  134.6770 C.2       1 GSP501      0.0000 
     26 C6         55.4300  166.9230  135.9710 C.2       1 GSP501      0.0000 
     27 O6         56.5050  166.6060  136.4670 O.2       1 GSP501      0.0000 
     28 N1         54.5250  167.6520  136.7010 N.am      1 GSP501      0.0000 
     29 C2         53.3260  168.0040  136.1380 C.2       1 GSP501      0.0000 
     30 N2         52.4490  168.7060  136.8390 N.pl3     1 GSP501      0.0000 
     31 N3         53.0280  167.6320  134.8540 N.2       1 GSP501      0.0000 
     32 C4         53.9170  166.9150  134.1350 C.2       1 GSP501      0.0000 
@<TRIPOS>BOND
     1    1    2 1    
     2    1    3 2    
     3    1    4 1    
     4    1    5 1    
     5    2    6 1    
     6    6    7 ar   
     7    6    8 ar   
     8    6   12 1    
     9    9   10 ar   
    10    9   11 ar   
    11    9   12 1    
    12    9   13 1    
    13   13   14 1    
    14   14   15 1    
    15   15   16 1    
    16   15   17 1    
    17   16   21 1    
    18   17   18 1    
    19   17   19 1    
    20   19   20 1    
    21   19   21 1    
    22   21   22 1    
    23   22   23 1    
    24   22   32 1    
    25   23   24 2    
    26   24   25 1    
    27   25   26 1    
    28   25   32 2    
    29   26   27 2    
    30   26   28 am   
    31   28   29 1    
    32   29   30 1    
    33   29   31 2    
    34   31   32 1    
@<TRIPOS>SUBSTRUCTURE
     1 GSP501      1 GROUP   
@<TRIPOS>SET

