#    Name: 6c67_4_5ID
#    Modification time : Fri May 22 19:39:38 2020

@<TRIPOS>MOLECULE
6c67_4_5ID
   20    22     1     0     0
SMALL
NO_CHARGES


@<TRIPOS>ATOM
      1 O5'       -12.8090   -7.1180  -17.2930 O.3       1 5ID402      0.0000 
      2 C5'       -13.7220   -8.2000  -17.1820 C.3       1 5ID402      0.0000 
      3 C4'       -15.0700   -7.8410  -17.7530 C.3       1 5ID402      0.0000 
      4 O4'       -14.8860   -7.0770  -18.9730 O.3       1 5ID402      0.0000 
      5 C1'       -15.8110   -7.4870  -19.9520 C.3       1 5ID402      0.0000 
      6 N9        -15.0540   -8.1080  -21.0500 N.pl3     1 5ID402      0.0000 
      7 C8        -13.7190   -8.0930  -21.0640 C.2       1 5ID402      0.0000 
      8 C7        -13.2950   -8.7430  -22.2340 C.2       1 5ID402      0.0000 
      9 C5        -14.4640   -9.1610  -22.9530 C.ar      1 5ID402      0.0000 
     10 C6        -14.7190   -9.8560  -24.1850 C.ar      1 5ID402      0.0000 
     11 N1        -15.9780  -10.0870  -24.5670 N.ar      1 5ID402      0.0000 
     12 C2        -17.0020   -9.6700  -23.8000 C.ar      1 5ID402      0.0000 
     13 N3        -16.8160   -9.0200  -22.6400 N.ar      1 5ID402      0.0000 
     14 C4        -15.5540   -8.7530  -22.1940 C.ar      1 5ID402      0.0000 
     15 N6        -13.6030  -10.2960  -25.0000 N.pl3     1 5ID402      0.0000 
     16 C2'       -16.7950   -8.4450  -19.2900 C.3       1 5ID402      0.0000 
     17 O2'       -17.8670   -7.6760  -18.7630 O.3       1 5ID402      0.0000 
     18 C3'       -15.9470   -9.0170  -18.1610 C.3       1 5ID402      0.0000 
     19 O3'       -16.7120   -9.5250  -17.0840 O.3       1 5ID402      0.0000 
     20 IAE       -11.2720   -9.0150  -22.7800 I         1 5ID402      0.0000 
@<TRIPOS>BOND
     1    1    2 1    
     2    2    3 1    
     3    3    4 1    
     4    3   18 1    
     5    4    5 1    
     6    5    6 1    
     7    5   16 1    
     8    6    7 1    
     9    6   14 1    
    10    7    8 2    
    11    8    9 1    
    12    8   20 1    
    13    9   10 ar   
    14    9   14 ar   
    15   10   11 ar   
    16   10   15 1    
    17   11   12 ar   
    18   12   13 ar   
    19   13   14 ar   
    20   16   17 1    
    21   16   18 1    
    22   18   19 1    
@<TRIPOS>SUBSTRUCTURE
     1 5ID402      1 GROUP   
@<TRIPOS>SET

