#    Name: 6c67_3_5ID_CAVITY_N1_4
#    Modification time : Fri May 22 19:39:33 2020

@<TRIPOS>MOLECULE
6c67_3_5ID_CAVITY_N1_4
   38     0     4     0     0
SMALL
NO_CHARGES


@<TRIPOS>ATOM
      1 OG         -0.8800   -8.7500   -9.3300 O.3       1 SER1        0.0000 
      2 OG         -5.9900   -6.9500   -6.0000 O.3       1 SER1        0.0000 
      3 OG         -5.6000   -5.7100   -6.7500 O.3       1 SER1        0.0000 
      4 OG         -0.2900   -8.1700   -8.0800 O.3       1 SER1        0.0000 
      5 OG         -5.9700   -3.2800   -5.9200 O.3       1 SER1        0.0000 
      6 O          -5.8400   -6.1800  -13.6100 O.2       2 ALA2        0.0000 
      7 O          -7.1500   -8.1200   -8.5000 O.2       2 ALA2        0.0000 
      8 O          -1.8400  -10.5700   -9.8300 O.2       2 ALA2        0.0000 
      9 N          -7.5100   -5.6800   -7.6700 N.am      2 ALA2        0.0000 
     10 O          -3.5300   -7.5200   -8.6700 O.2       2 ALA2        0.0000 
     11 N          -6.5500   -3.8600   -7.1700 N.am      2 ALA2        0.0000 
     12 N          -1.4000   -4.5400   -5.6600 N.am      2 ALA2        0.0000 
     13 CZ         -3.1700   -9.9600   -9.5000 C.ar      3 PHE5        0.0000 
     14 CZ         -6.5700   -7.5300   -7.2500 C.ar      3 PHE5        0.0000 
     15 CZ         -5.2400   -8.1500   -7.5800 C.ar      3 PHE5        0.0000 
     16 CZ         -3.9200   -8.7600   -7.9100 C.ar      3 PHE5        0.0000 
     17 CZ         -2.5900   -9.3800   -8.2400 C.ar      3 PHE5        0.0000 
     18 CZ         -1.2600   -9.9900   -8.5800 C.ar      3 PHE5        0.0000 
     19 CZ         -4.6600   -7.5700   -6.3300 C.ar      3 PHE5        0.0000 
     20 CZ         -3.3300   -8.1800   -6.6600 C.ar      3 PHE5        0.0000 
     21 CZ         -1.6200   -7.5600   -7.7400 C.ar      3 PHE5        0.0000 
     22 CZ         -2.3700   -6.3600   -6.1600 C.ar      3 PHE5        0.0000 
     23 CZ         -1.0400   -6.9700   -6.4900 C.ar      3 PHE5        0.0000 
     24 CZ         -1.7800   -5.7800   -4.9100 C.ar      3 PHE5        0.0000 
     25 CZ         -0.0700   -5.1500   -5.9900 C.ar      3 PHE5        0.0000 
     26 CA         -3.7500  -10.5400  -10.7500 C.3       4 GLY6        0.0000 
     27 CA         -2.7900   -8.7200  -10.2500 C.3       4 GLY6        0.0000 
     28 CA         -1.4600   -9.3400  -10.5800 C.3       4 GLY6        0.0000 
     29 CA         -7.9000   -6.9200   -6.9200 C.3       4 GLY6        0.0000 
     30 CA         -2.2000   -8.1400   -9.0000 C.3       4 GLY6        0.0000 
     31 CA         -1.8200   -6.9000   -9.7500 C.3       4 GLY6        0.0000 
     32 CA         -4.2800   -6.3300   -7.0800 C.3       4 GLY6        0.0000 
     33 CA         -2.9500   -6.9400   -7.4100 C.3       4 GLY6        0.0000 
     34 CA         -1.2400   -6.3200   -8.5000 C.3       4 GLY6        0.0000 
     35 CA         -4.0800   -6.9800   -5.0700 C.3       4 GLY6        0.0000 
     36 CA         -3.6900   -5.7400   -5.8300 C.3       4 GLY6        0.0000 
     37 CA         -1.9800   -5.1200   -6.9100 C.3       4 GLY6        0.0000 
     38 CA         -0.6500   -5.7300   -7.2500 C.3       4 GLY6        0.0000 
@<TRIPOS>BOND
@<TRIPOS>SUBSTRUCTURE
     1 SER1        1 GROUP   
     2 ALA2        6 GROUP   
     3 PHE5       13 GROUP   
     4 GLY6       26 GROUP   
@<TRIPOS>SET

