#    Name: 6c67_3_5ID
#    Modification time : Fri May 22 19:39:31 2020

@<TRIPOS>MOLECULE
6c67_3_5ID
   20    22     1     0     0
SMALL
NO_CHARGES


@<TRIPOS>ATOM
      1 O5'        -3.6540   -8.6150  -13.0810 O.3       1 5ID401      0.0000 
      2 C5'        -3.9120   -9.7880  -12.3130 C.3       1 5ID401      0.0000 
      3 C4'        -2.7550  -10.1110  -11.4010 C.3       1 5ID401      0.0000 
      4 O4'        -2.5010   -8.9880  -10.5420 O.3       1 5ID401      0.0000 
      5 C1'        -1.9310   -9.4350   -9.3360 C.3       1 5ID401      0.0000 
      6 N9         -2.2970   -8.4470   -8.3230 N.pl3     1 5ID401      0.0000 
      7 C8         -3.5340   -8.2790   -7.8330 C.2       1 5ID401      0.0000 
      8 C7         -3.4940   -7.1890   -6.9380 C.2       1 5ID401      0.0000 
      9 C5         -2.1540   -6.6790   -6.9270 C.ar      1 5ID401      0.0000 
     10 C6         -1.4620   -5.6120   -6.2560 C.ar      1 5ID401      0.0000 
     11 N1         -0.1670   -5.4170   -6.5000 N.ar      1 5ID401      0.0000 
     12 C2          0.4920   -6.2140   -7.3650 C.ar      1 5ID401      0.0000 
     13 N3         -0.1070   -7.2190   -8.0130 N.ar      1 5ID401      0.0000 
     14 C4         -1.4320   -7.4710   -7.8090 C.ar      1 5ID401      0.0000 
     15 N6         -2.1720   -4.7600   -5.3250 N.pl3     1 5ID401      0.0000 
     16 C2'        -2.4520  -10.8580   -9.0970 C.3       1 5ID401      0.0000 
     17 O2'        -1.4460  -11.6780   -8.5420 O.3       1 5ID401      0.0000 
     18 C3'        -2.9350  -11.3250  -10.4880 C.3       1 5ID401      0.0000 
     19 O3'        -2.1070  -12.3900  -10.9600 O.3       1 5ID401      0.0000 
     20 IAE        -5.1510   -6.4510   -5.8340 I         1 5ID401      0.0000 
@<TRIPOS>BOND
     1    1    2 1    
     2    2    3 1    
     3    3    4 1    
     4    3   18 1    
     5    4    5 1    
     6    5    6 1    
     7    5   16 1    
     8    6    7 1    
     9    6   14 1    
    10    7    8 2    
    11    8    9 1    
    12    8   20 1    
    13    9   10 ar   
    14    9   14 ar   
    15   10   11 ar   
    16   10   15 1    
    17   11   12 ar   
    18   12   13 ar   
    19   13   14 ar   
    20   16   17 1    
    21   16   18 1    
    22   18   19 1    
@<TRIPOS>SUBSTRUCTURE
     1 5ID401      1 GROUP   
@<TRIPOS>SET

