#    Name: 6c67_1_5ID
#    Modification time : Fri May 22 19:39:19 2020

@<TRIPOS>MOLECULE
6c67_1_5ID
   20    22     1     0     0
SMALL
NO_CHARGES


@<TRIPOS>ATOM
      1 O5'       -15.9010  -20.8720   13.5340 O.3       1 5ID401      0.0000 
      2 C5'       -14.7220  -20.6160   12.7740 C.3       1 5ID401      0.0000 
      3 C4'       -14.3950  -21.7770   11.8690 C.3       1 5ID401      0.0000 
      4 O4'       -15.5130  -22.0260   11.0020 O.3       1 5ID401      0.0000 
      5 C1'       -15.0620  -22.5890    9.7970 C.3       1 5ID401      0.0000 
      6 N9        -16.0490  -22.2140    8.7860 N.pl3     1 5ID401      0.0000 
      7 C8        -16.2210  -20.9750    8.3030 C.2       1 5ID401      0.0000 
      8 C7        -17.3160  -21.0140    7.4130 C.2       1 5ID401      0.0000 
      9 C5        -17.8250  -22.3530    7.4020 C.ar      1 5ID401      0.0000 
     10 C6        -18.8920  -23.0470    6.7340 C.ar      1 5ID401      0.0000 
     11 N1        -19.0830  -24.3430    6.9760 N.ar      1 5ID401      0.0000 
     12 C2        -18.2790  -25.0020    7.8340 C.ar      1 5ID401      0.0000 
     13 N3        -17.2740  -24.3990    8.4770 N.ar      1 5ID401      0.0000 
     14 C4        -17.0270  -23.0760    8.2750 C.ar      1 5ID401      0.0000 
     15 N6        -19.7510  -22.3390    5.8090 N.pl3     1 5ID401      0.0000 
     16 C2'       -13.6400  -22.0670    9.5660 C.3       1 5ID401      0.0000 
     17 O2'       -12.8240  -23.0650    8.9910 O.3       1 5ID401      0.0000 
     18 C3'       -13.1730  -21.6070   10.9670 C.3       1 5ID401      0.0000 
     19 O3'       -12.1200  -22.4510   11.4410 O.3       1 5ID401      0.0000 
     20 IAE       -18.0700  -19.3700    6.3140 I         1 5ID401      0.0000 
@<TRIPOS>BOND
     1    1    2 1    
     2    2    3 1    
     3    3    4 1    
     4    3   18 1    
     5    4    5 1    
     6    5    6 1    
     7    5   16 1    
     8    6    7 1    
     9    6   14 1    
    10    7    8 2    
    11    8    9 1    
    12    8   20 1    
    13    9   10 ar   
    14    9   14 ar   
    15   10   11 ar   
    16   10   15 1    
    17   11   12 ar   
    18   12   13 ar   
    19   13   14 ar   
    20   16   17 1    
    21   16   18 1    
    22   18   19 1    
@<TRIPOS>SUBSTRUCTURE
     1 5ID401      1 GROUP   
@<TRIPOS>SET

