#    Name: 6c67_1_5ID_CAVITY_N1_6
#    Modification time : Fri May 22 19:39:21 2020

@<TRIPOS>MOLECULE
6c67_1_5ID_CAVITY_N1_6
   56     0     6     0     0
SMALL
NO_CHARGES


@<TRIPOS>ATOM
      1 OG        -16.8700  -23.7200    8.6500 O.3       1 SER1        0.0000 
      2 OG        -15.5500  -24.3400    8.3200 O.3       1 SER1        0.0000 
      3 OG        -18.3700  -18.7800    7.0500 O.3       1 SER1        0.0000 
      4 OG        -14.9600  -23.7500    9.5700 O.3       1 SER1        0.0000 
      5 OG        -19.4800  -15.1500    9.4600 O.3       1 SER1        0.0000 
      6 OG        -17.7700  -14.5200    8.3800 O.3       1 SER1        0.0000 
      7 N         -20.3100  -22.4200    6.0500 N.am      2 ALA2        0.0000 
      8 O         -17.4300  -20.6300    7.4700 O.2       2 ALA2        0.0000 
      9 O         -15.9100  -21.9000    9.1500 O.2       2 ALA2        0.0000 
     10 O         -17.7900  -18.2000    8.3000 O.2       2 ALA2        0.0000 
     11 O         -15.3200  -21.3200   10.4000 O.2       2 ALA2        0.0000 
     12 N         -18.1500  -15.7600    9.1300 N.am      2 ALA2        0.0000 
     13 O         -16.8300  -16.3800    8.8000 O.2       2 ALA2        0.0000 
     14 O         -13.8000  -22.5900   12.0800 O.2       2 ALA2        0.0000 
     15 O         -14.7400  -20.7400   11.6500 O.2       2 ALA2        0.0000 
     16 O         -17.9600  -16.4200   11.1400 O.2       2 ALA2        0.0000 
     17 N         -17.5700  -15.1800   10.3900 N.am      2 ALA2        0.0000 
     18 N         -16.2400  -15.7900   10.0500 N.am      2 ALA2        0.0000 
     19 N         -19.0900  -16.4600   13.4800 N.am      2 ALA2        0.0000 
     20 O         -18.3100  -16.5300   16.7400 O.2       2 ALA2        0.0000 
     21 N         -16.5900  -15.9100   15.6500 N.am      2 ALA2        0.0000 
     22 NZ        -14.0000  -21.9300   10.0700 N.4       3 LYS4        0.0000 
     23 NZ        -15.1300  -21.9800   12.4100 N.4       3 LYS4        0.0000 
     24 NZ        -13.4100  -21.3500   11.3200 N.4       3 LYS4        0.0000 
     25 CZ        -18.9800  -23.0400    5.7200 C.ar      4 PHE5        0.0000 
     26 CZ        -17.4600  -24.3100    7.3900 C.ar      4 PHE5        0.0000 
     27 CZ        -17.0700  -23.0700    6.6400 C.ar      4 PHE5        0.0000 
     28 CZ        -18.0100  -21.2200    6.2200 C.ar      4 PHE5        0.0000 
     29 CZ        -16.4900  -22.4900    7.8900 C.ar      4 PHE5        0.0000 
     30 CZ        -16.1000  -21.2500    7.1400 C.ar      4 PHE5        0.0000 
     31 CZ        -17.0500  -19.3900    6.7200 C.ar      4 PHE5        0.0000 
     32 CZ        -14.5800  -22.5200    8.8200 C.ar      4 PHE5        0.0000 
     33 CZ        -15.5200  -20.6600    8.3900 C.ar      4 PHE5        0.0000 
     34 CZ        -17.4100  -16.9600    7.5500 C.ar      4 PHE5        0.0000 
     35 CZ        -14.9400  -20.0800    9.6500 C.ar      4 PHE5        0.0000 
     36 CZ        -13.6100  -20.7000    9.3200 C.ar      4 PHE5        0.0000 
     37 CZ        -15.8800  -18.2300    9.2200 C.ar      4 PHE5        0.0000 
     38 CA        -18.7800  -23.6900    7.7300 C.3       5 GLY6        0.0000 
     39 CA        -18.4000  -22.4500    6.9700 C.3       5 GLY6        0.0000 
     40 CA        -19.3400  -20.6000    6.5500 C.3       5 GLY6        0.0000 
     41 CA        -18.2000  -23.1100    8.9800 C.3       5 GLY6        0.0000 
     42 CA        -17.8200  -21.8700    8.2300 C.3       5 GLY6        0.0000 
     43 CA        -18.7600  -20.0200    7.8000 C.3       5 GLY6        0.0000 
     44 CA        -17.6200  -22.5300   10.2300 C.3       5 GLY6        0.0000 
     45 CA        -16.2900  -23.1400    9.9000 C.3       5 GLY6        0.0000 
     46 CA        -17.2300  -21.2900    9.4800 C.3       5 GLY6        0.0000 
     47 CA        -18.7400  -16.3500    7.8800 C.3       5 GLY6        0.0000 
     48 CA        -18.3500  -15.1100    7.1200 C.3       5 GLY6        0.0000 
     49 CA        -17.0200  -15.7200    6.7900 C.3       5 GLY6        0.0000 
     50 CA        -17.0400  -21.9400   11.4900 C.3       5 GLY6        0.0000 
     51 CA        -15.7100  -22.5600   11.1600 C.3       5 GLY6        0.0000 
     52 CA        -14.3800  -23.1700   10.8200 C.3       5 GLY6        0.0000 
     53 CA        -14.3600  -19.5000   10.9000 C.3       5 GLY6        0.0000 
     54 CA        -13.0300  -20.1100   10.5700 C.3       5 GLY6        0.0000 
     55 DU        -18.8900  -17.1100   15.4900 H         6 CUB7        0.0000 
     56 DU        -18.5000  -15.8800   14.7300 H         6 CUB7        0.0000 
@<TRIPOS>BOND
@<TRIPOS>SUBSTRUCTURE
     1 SER1        1 GROUP   
     2 ALA2        7 GROUP   
     3 LYS4       22 GROUP   
     4 PHE5       25 GROUP   
     5 GLY6       38 GROUP   
     6 CUB7       55 GROUP   
@<TRIPOS>SET

