#    Name: 6c67_3_5ID_CAVITY_N1_6
#    Modification time : Fri May 22 19:39:33 2020

@<TRIPOS>MOLECULE
6c67_3_5ID_CAVITY_N1_6
   67     0     6     0     0
SMALL
NO_CHARGES


@<TRIPOS>ATOM
      1 OG         -9.8100   -6.8900   -7.8400 O.3       1 SER1        0.0000 
      2 OG         -9.4200   -5.6500   -8.6000 O.3       1 SER1        0.0000 
      3 OG         -0.8800   -8.7500   -9.3300 O.3       1 SER1        0.0000 
      4 OG         -9.7900   -3.2100   -7.7700 O.3       1 SER1        0.0000 
      5 OG         -5.9900   -6.9500   -6.0000 O.3       1 SER1        0.0000 
      6 OG         -5.6000   -5.7100   -6.7500 O.3       1 SER1        0.0000 
      7 OG         -0.2900   -8.1700   -8.0800 O.3       1 SER1        0.0000 
      8 OG         -7.2900   -2.6600   -5.5900 O.3       1 SER1        0.0000 
      9 OG         -5.9700   -3.2800   -5.9200 O.3       1 SER1        0.0000 
     10 OG         -6.7100   -2.0800   -4.3400 O.3       1 SER1        0.0000 
     11 N          -8.7100   -7.9700  -15.0300 N.am      2 ALA2        0.0000 
     12 O          -8.3300   -6.7300  -15.7800 O.2       2 ALA2        0.0000 
     13 N          -9.2600   -7.4300  -11.4300 N.am      2 ALA2        0.0000 
     14 O          -8.8800   -6.1900  -12.1900 O.2       2 ALA2        0.0000 
     15 O          -7.1600   -5.5700  -13.2700 O.2       2 ALA2        0.0000 
     16 O          -5.8400   -6.1800  -13.6100 O.2       2 ALA2        0.0000 
     17 N          -9.0600   -8.0800   -9.4300 N.am      2 ALA2        0.0000 
     18 O          -8.6800   -6.8500  -10.1800 O.2       2 ALA2        0.0000 
     19 N          -8.2900   -5.6100  -10.9400 N.am      2 ALA2        0.0000 
     20 O          -8.4800   -7.5000   -8.1700 O.2       2 ALA2        0.0000 
     21 O          -7.1500   -8.1200   -8.5000 O.2       2 ALA2        0.0000 
     22 O          -1.8400  -10.5700   -9.8300 O.2       2 ALA2        0.0000 
     23 N          -8.1000   -6.2600   -8.9300 N.am      2 ALA2        0.0000 
     24 N          -9.0400   -4.4100   -9.3500 N.am      2 ALA2        0.0000 
     25 N          -7.5100   -5.6800   -7.6700 N.am      2 ALA2        0.0000 
     26 O          -3.5300   -7.5200   -8.6700 O.2       2 ALA2        0.0000 
     27 N          -8.4600   -3.8300   -8.1000 N.am      2 ALA2        0.0000 
     28 N          -6.5500   -3.8600   -7.1700 N.am      2 ALA2        0.0000 
     29 N          -7.4900   -2.0100   -7.6000 N.am      2 ALA2        0.0000 
     30 N          -6.9100   -1.4300   -6.3400 N.am      2 ALA2        0.0000 
     31 N          -1.4000   -4.5400   -5.6600 N.am      2 ALA2        0.0000 
     32 NZ         -6.7800   -4.3300  -14.0300 N.4       3 LYS4        0.0000 
     33 CZ         -3.1700   -9.9600   -9.5000 C.ar      4 PHE5        0.0000 
     34 CZ         -6.5700   -7.5300   -7.2500 C.ar      4 PHE5        0.0000 
     35 CZ         -5.2400   -8.1500   -7.5800 C.ar      4 PHE5        0.0000 
     36 CZ         -3.9200   -8.7600   -7.9100 C.ar      4 PHE5        0.0000 
     37 CZ         -2.5900   -9.3800   -8.2400 C.ar      4 PHE5        0.0000 
     38 CZ         -1.2600   -9.9900   -8.5800 C.ar      4 PHE5        0.0000 
     39 CZ         -4.6600   -7.5700   -6.3300 C.ar      4 PHE5        0.0000 
     40 CZ         -3.3300   -8.1800   -6.6600 C.ar      4 PHE5        0.0000 
     41 CZ         -1.6200   -7.5600   -7.7400 C.ar      4 PHE5        0.0000 
     42 CZ         -2.3700   -6.3600   -6.1600 C.ar      4 PHE5        0.0000 
     43 CZ         -1.0400   -6.9700   -6.4900 C.ar      4 PHE5        0.0000 
     44 CZ         -1.7800   -5.7800   -4.9100 C.ar      4 PHE5        0.0000 
     45 CZ         -0.0700   -5.1500   -5.9900 C.ar      4 PHE5        0.0000 
     46 CA         -6.0300   -5.5300  -15.6100 C.3       5 GLY6        0.0000 
     47 CA         -5.4500   -4.9400  -14.3600 C.3       5 GLY6        0.0000 
     48 CA         -3.7500  -10.5400  -10.7500 C.3       5 GLY6        0.0000 
     49 CA         -2.7900   -8.7200  -10.2500 C.3       5 GLY6        0.0000 
     50 CA         -1.4600   -9.3400  -10.5800 C.3       5 GLY6        0.0000 
     51 CA         -7.9000   -6.9200   -6.9200 C.3       5 GLY6        0.0000 
     52 CA         -8.8400   -5.0700   -7.3400 C.3       5 GLY6        0.0000 
     53 CA         -2.2000   -8.1400   -9.0000 C.3       5 GLY6        0.0000 
     54 CA         -1.8200   -6.9000   -9.7500 C.3       5 GLY6        0.0000 
     55 CA         -4.2800   -6.3300   -7.0800 C.3       5 GLY6        0.0000 
     56 CA         -2.9500   -6.9400   -7.4100 C.3       5 GLY6        0.0000 
     57 CA         -9.2000   -2.6300   -6.5100 C.3       5 GLY6        0.0000 
     58 CA         -7.8800   -3.2500   -6.8400 C.3       5 GLY6        0.0000 
     59 CA         -1.2400   -6.3200   -8.5000 C.3       5 GLY6        0.0000 
     60 CA         -4.0800   -6.9800   -5.0700 C.3       5 GLY6        0.0000 
     61 CA         -3.6900   -5.7400   -5.8300 C.3       5 GLY6        0.0000 
     62 CA         -8.6200   -2.0500   -5.2600 C.3       5 GLY6        0.0000 
     63 CA         -1.9800   -5.1200   -6.9100 C.3       5 GLY6        0.0000 
     64 CA         -0.6500   -5.7300   -7.2500 C.3       5 GLY6        0.0000 
     65 CA         -6.3300   -0.8400   -5.0900 C.3       5 GLY6        0.0000 
     66 DU         -7.7500   -6.1500  -14.5300 H         6 CUB7        0.0000 
     67 DU         -7.3600   -4.9100  -15.2800 H         6 CUB7        0.0000 
@<TRIPOS>BOND
@<TRIPOS>SUBSTRUCTURE
     1 SER1        1 GROUP   
     2 ALA2       11 GROUP   
     3 LYS4       32 GROUP   
     4 PHE5       33 GROUP   
     5 GLY6       46 GROUP   
     6 CUB7       66 GROUP   
@<TRIPOS>SET

