#    Name: 6c67_1_5ID_CAVITY_N1_8
#    Modification time : Fri May 22 19:39:21 2020

@<TRIPOS>MOLECULE
6c67_1_5ID_CAVITY_N1_8
   77     0     6     0     0
SMALL
NO_CHARGES


@<TRIPOS>ATOM
      1 OG        -16.8700  -23.7200    8.6500 O.3       1 SER1        0.0000 
      2 OG        -15.5500  -24.3400    8.3200 O.3       1 SER1        0.0000 
      3 OG        -18.3700  -18.7800    7.0500 O.3       1 SER1        0.0000 
      4 OG        -14.9600  -23.7500    9.5700 O.3       1 SER1        0.0000 
      5 OG        -19.4800  -15.1500    9.4600 O.3       1 SER1        0.0000 
      6 OG        -17.7700  -14.5200    8.3800 O.3       1 SER1        0.0000 
      7 OG        -18.9000  -14.5700   10.7200 O.3       1 SER1        0.0000 
      8 OG        -18.3200  -13.9800   11.9700 O.3       1 SER1        0.0000 
      9 N         -20.3100  -22.4200    6.0500 N.am      2 ALA2        0.0000 
     10 O         -17.4300  -20.6300    7.4700 O.2       2 ALA2        0.0000 
     11 O         -15.9100  -21.9000    9.1500 O.2       2 ALA2        0.0000 
     12 O         -17.7900  -18.2000    8.3000 O.2       2 ALA2        0.0000 
     13 O         -15.3200  -21.3200   10.4000 O.2       2 ALA2        0.0000 
     14 N         -18.1500  -15.7600    9.1300 N.am      2 ALA2        0.0000 
     15 O         -16.8300  -16.3800    8.8000 O.2       2 ALA2        0.0000 
     16 O         -13.8000  -22.5900   12.0800 O.2       2 ALA2        0.0000 
     17 O         -14.7400  -20.7400   11.6500 O.2       2 ALA2        0.0000 
     18 N         -20.6100  -15.1900   11.8000 N.am      2 ALA2        0.0000 
     19 N         -19.2800  -15.8000   11.4700 N.am      2 ALA2        0.0000 
     20 O         -17.9600  -16.4200   11.1400 O.2       2 ALA2        0.0000 
     21 N         -17.5700  -15.1800   10.3900 N.am      2 ALA2        0.0000 
     22 N         -16.2400  -15.7900   10.0500 N.am      2 ALA2        0.0000 
     23 N         -17.1900  -13.9400    9.6300 N.am      2 ALA2        0.0000 
     24 O         -20.4100  -15.8500   13.8100 O.2       2 ALA2        0.0000 
     25 N         -19.0900  -16.4600   13.4800 N.am      2 ALA2        0.0000 
     26 O         -20.0300  -14.6100   13.0600 O.2       2 ALA2        0.0000 
     27 O         -20.2200  -16.5000   15.8200 O.2       2 ALA2        0.0000 
     28 O         -19.8300  -15.2600   15.0600 O.2       2 ALA2        0.0000 
     29 O         -19.4500  -14.0200   14.3100 O.2       2 ALA2        0.0000 
     30 N         -17.7300  -13.4000   13.2200 N.am      2 ALA2        0.0000 
     31 O         -18.3100  -16.5300   16.7400 O.2       2 ALA2        0.0000 
     32 O         -19.2500  -14.6800   16.3200 O.2       2 ALA2        0.0000 
     33 N         -17.9200  -15.2900   15.9900 N.am      2 ALA2        0.0000 
     34 N         -16.5900  -15.9100   15.6500 N.am      2 ALA2        0.0000 
     35 N         -17.5400  -14.0600   15.2300 N.am      2 ALA2        0.0000 
     36 O         -19.0500  -15.3400   18.3200 O.2       2 ALA2        0.0000 
     37 O         -17.7200  -15.9500   17.9900 O.2       2 ALA2        0.0000 
     38 NZ        -14.0000  -21.9300   10.0700 N.4       3 LYS4        0.0000 
     39 NZ        -15.1300  -21.9800   12.4100 N.4       3 LYS4        0.0000 
     40 NZ        -13.4100  -21.3500   11.3200 N.4       3 LYS4        0.0000 
     41 CZ        -18.9800  -23.0400    5.7200 C.ar      4 PHE5        0.0000 
     42 CZ        -17.4600  -24.3100    7.3900 C.ar      4 PHE5        0.0000 
     43 CZ        -17.0700  -23.0700    6.6400 C.ar      4 PHE5        0.0000 
     44 CZ        -18.0100  -21.2200    6.2200 C.ar      4 PHE5        0.0000 
     45 CZ        -16.4900  -22.4900    7.8900 C.ar      4 PHE5        0.0000 
     46 CZ        -16.1000  -21.2500    7.1400 C.ar      4 PHE5        0.0000 
     47 CZ        -17.0500  -19.3900    6.7200 C.ar      4 PHE5        0.0000 
     48 CZ        -14.5800  -22.5200    8.8200 C.ar      4 PHE5        0.0000 
     49 CZ        -15.5200  -20.6600    8.3900 C.ar      4 PHE5        0.0000 
     50 CZ        -17.4100  -16.9600    7.5500 C.ar      4 PHE5        0.0000 
     51 CZ        -14.9400  -20.0800    9.6500 C.ar      4 PHE5        0.0000 
     52 CZ        -13.6100  -20.7000    9.3200 C.ar      4 PHE5        0.0000 
     53 CZ        -15.8800  -18.2300    9.2200 C.ar      4 PHE5        0.0000 
     54 CA        -18.7800  -23.6900    7.7300 C.3       5 GLY6        0.0000 
     55 CA        -18.4000  -22.4500    6.9700 C.3       5 GLY6        0.0000 
     56 CA        -19.3400  -20.6000    6.5500 C.3       5 GLY6        0.0000 
     57 CA        -18.2000  -23.1100    8.9800 C.3       5 GLY6        0.0000 
     58 CA        -17.8200  -21.8700    8.2300 C.3       5 GLY6        0.0000 
     59 CA        -18.7600  -20.0200    7.8000 C.3       5 GLY6        0.0000 
     60 CA        -17.6200  -22.5300   10.2300 C.3       5 GLY6        0.0000 
     61 CA        -16.2900  -23.1400    9.9000 C.3       5 GLY6        0.0000 
     62 CA        -17.2300  -21.2900    9.4800 C.3       5 GLY6        0.0000 
     63 CA        -18.7400  -16.3500    7.8800 C.3       5 GLY6        0.0000 
     64 CA        -18.3500  -15.1100    7.1200 C.3       5 GLY6        0.0000 
     65 CA        -17.0200  -15.7200    6.7900 C.3       5 GLY6        0.0000 
     66 CA        -17.0400  -21.9400   11.4900 C.3       5 GLY6        0.0000 
     67 CA        -15.7100  -22.5600   11.1600 C.3       5 GLY6        0.0000 
     68 CA        -14.3800  -23.1700   10.8200 C.3       5 GLY6        0.0000 
     69 CA        -14.3600  -19.5000   10.9000 C.3       5 GLY6        0.0000 
     70 CA        -13.0300  -20.1100   10.5700 C.3       5 GLY6        0.0000 
     71 CA        -15.8200  -13.4300   14.1500 C.3       5 GLY6        0.0000 
     72 CA        -17.3400  -14.7100   17.2400 C.3       5 GLY6        0.0000 
     73 DU        -18.7000  -15.2200   12.7200 H         6 CUB7        0.0000 
     74 DU        -18.8900  -17.1100   15.4900 H         6 CUB7        0.0000 
     75 DU        -18.5000  -15.8800   14.7300 H         6 CUB7        0.0000 
     76 DU        -18.1200  -14.6400   13.9800 H         6 CUB7        0.0000 
     77 DU        -19.6300  -15.9200   17.0700 H         6 CUB7        0.0000 
@<TRIPOS>BOND
@<TRIPOS>SUBSTRUCTURE
     1 SER1        1 GROUP   
     2 ALA2        9 GROUP   
     3 LYS4       38 GROUP   
     4 PHE5       41 GROUP   
     5 GLY6       54 GROUP   
     6 CUB7       73 GROUP   
@<TRIPOS>SET

