#    Name: 6auu_2_H4B_CAVITY_N1_12
#    Modification time : Fri May 22 19:35:20 2020

@<TRIPOS>MOLECULE
6auu_2_H4B_CAVITY_N1_12
   82     0     6     0     0
SMALL
NO_CHARGES


@<TRIPOS>ATOM
      1 OG         12.7400    7.2200   55.8700 O.3       1 SER1        0.0000 
      2 N          12.9500    1.1400   51.7500 N.am      2 ALA2        0.0000 
      3 O           8.2300    1.1400   54.7700 O.2       2 ALA2        0.0000 
      4 N          11.4800    4.8000   53.9100 N.am      2 ALA2        0.0000 
      5 N          10.9800    3.5700   54.6100 N.am      2 ALA2        0.0000 
      6 N          10.4700    2.3400   55.3000 N.am      2 ALA2        0.0000 
      7 N           8.6000    1.7400   56.1000 N.am      2 ALA2        0.0000 
      8 N           8.0900    0.5100   56.8000 N.am      2 ALA2        0.0000 
      9 N           8.9700    2.3300   57.4300 N.am      2 ALA2        0.0000 
     10 N           8.4600    1.1000   58.1200 N.am      2 ALA2        0.0000 
     11 N           9.8500    4.1600   58.0600 N.am      2 ALA2        0.0000 
     12 N           9.3400    2.9300   58.7500 N.am      2 ALA2        0.0000 
     13 N           7.9800    3.5500   58.8500 N.am      2 ALA2        0.0000 
     14 N           8.8400    1.7000   59.4500 N.am      2 ALA2        0.0000 
     15 N           7.4800    2.3200   59.5500 N.am      2 ALA2        0.0000 
     16 NZ         12.8200    0.5100   53.7700 N.4       3 LYS4        0.0000 
     17 NZ         11.4600    1.1300   53.8700 N.4       3 LYS4        0.0000 
     18 NZ         10.9500   -0.1000   54.5700 N.4       3 LYS4        0.0000 
     19 NZ         13.1900    1.1000   55.0900 N.4       3 LYS4        0.0000 
     20 NZ         11.8300    1.7200   55.2000 N.4       3 LYS4        0.0000 
     21 NZ         11.3200    0.5000   55.8900 N.4       3 LYS4        0.0000 
     22 NZ          9.4500   -0.1100   56.6900 N.4       3 LYS4        0.0000 
     23 CZ         13.3300    1.7400   53.0700 C.ar      4 PHE5        0.0000 
     24 CZ         11.9700    2.3600   53.1800 C.ar      4 PHE5        0.0000 
     25 CZ         15.5700    2.9400   53.6000 C.ar      4 PHE5        0.0000 
     26 CZ         13.7000    2.3300   54.4000 C.ar      4 PHE5        0.0000 
     27 CZ         12.3400    2.9500   54.5000 C.ar      4 PHE5        0.0000 
     28 CZ         12.3600    6.6300   54.5400 C.ar      4 PHE5        0.0000 
     29 CZ         14.5800    4.1600   55.0300 C.ar      4 PHE5        0.0000 
     30 CZ         13.2200    4.7800   55.1300 C.ar      4 PHE5        0.0000 
     31 CZ         11.8600    5.4000   55.2400 C.ar      4 PHE5        0.0000 
     32 CZ         15.4600    5.9800   55.6600 C.ar      4 PHE5        0.0000 
     33 CZ         14.1000    6.6000   55.7600 C.ar      4 PHE5        0.0000 
     34 CZ         13.5900    5.3700   56.4600 C.ar      4 PHE5        0.0000 
     35 CZ         12.0900    5.3600   58.5800 C.ar      4 PHE5        0.0000 
     36 CZ         10.7300    5.9800   58.6900 C.ar      4 PHE5        0.0000 
     37 CZ          9.3700    6.6000   58.7900 C.ar      4 PHE5        0.0000 
     38 CZ         11.5900    4.1300   59.2800 C.ar      4 PHE5        0.0000 
     39 CZ         10.2200    4.7500   59.3800 C.ar      4 PHE5        0.0000 
     40 CZ          8.8600    5.3700   59.4800 C.ar      4 PHE5        0.0000 
     41 CZ          7.5000    6.0000   59.5900 C.ar      4 PHE5        0.0000 
     42 CZ          9.7200    3.5300   60.0800 C.ar      4 PHE5        0.0000 
     43 CZ          8.3600    4.1500   60.1800 C.ar      4 PHE5        0.0000 
     44 CZ          9.7400    7.2000   60.1100 C.ar      4 PHE5        0.0000 
     45 CA         12.4500   -0.0900   52.4400 C.3       5 GLY6        0.0000 
     46 CA         10.5800   -0.7000   53.2400 C.3       5 GLY6        0.0000 
     47 CA          9.5900    0.5200   54.6700 C.3       5 GLY6        0.0000 
     48 CA          9.0800   -0.7100   55.3700 C.3       5 GLY6        0.0000 
     49 CA          9.1100    2.9700   55.4000 C.3       5 GLY6        0.0000 
     50 CA         11.0000    7.2500   54.6400 C.3       5 GLY6        0.0000 
     51 CA         10.4900    6.0200   55.3400 C.3       5 GLY6        0.0000 
     52 CA          9.9900    4.7900   56.0300 C.3       5 GLY6        0.0000 
     53 CA          9.4800    3.5600   56.7300 C.3       5 GLY6        0.0000 
     54 CA         11.3700    7.8400   55.9700 C.3       5 GLY6        0.0000 
     55 CA          9.5000    7.2400   56.7700 C.3       5 GLY6        0.0000 
     56 CA          9.0000    6.0100   57.4600 C.3       5 GLY6        0.0000 
     57 CA          8.4900    4.7800   58.1600 C.3       5 GLY6        0.0000 
     58 CA         14.4700    7.2000   57.0900 C.3       5 GLY6        0.0000 
     59 CA         13.1100    7.8200   57.1900 C.3       5 GLY6        0.0000 
     60 CA         11.7500    8.4400   57.2900 C.3       5 GLY6        0.0000 
     61 CA         10.3800    9.0600   57.4000 C.3       5 GLY6        0.0000 
     62 CA         15.3200    5.3500   57.6800 C.3       5 GLY6        0.0000 
     63 CA         13.9600    5.9700   57.7800 C.3       5 GLY6        0.0000 
     64 CA         12.6000    6.5900   57.8900 C.3       5 GLY6        0.0000 
     65 CA         11.2400    7.2100   57.9900 C.3       5 GLY6        0.0000 
     66 CA          9.8800    7.8300   58.0900 C.3       5 GLY6        0.0000 
     67 CA          8.5200    8.4500   58.2000 C.3       5 GLY6        0.0000 
     68 CA         13.4500    4.7400   58.4800 C.3       5 GLY6        0.0000 
     69 CA          8.0100    7.2200   58.8900 C.3       5 GLY6        0.0000 
     70 CA         10.2500    8.4300   59.4200 C.3       5 GLY6        0.0000 
     71 DU         14.3200    0.5200   51.6500 H         6 CUB7        0.0000 
     72 DU          9.9600    1.1200   56.0000 H         6 CUB7        0.0000 
     73 DU         12.7100    3.5500   55.8300 H         6 CUB7        0.0000 
     74 DU         11.3500    4.1700   55.9300 H         6 CUB7        0.0000 
     75 DU         10.8400    2.9400   56.6300 H         6 CUB7        0.0000 
     76 DU         10.3300    1.7100   57.3200 H         6 CUB7        0.0000 
     77 DU         12.2300    5.9900   56.5600 H         6 CUB7        0.0000 
     78 DU         10.8700    6.6100   56.6600 H         6 CUB7        0.0000 
     79 DU         13.0800    4.1400   57.1500 H         6 CUB7        0.0000 
     80 DU         11.7200    4.7700   57.2600 H         6 CUB7        0.0000 
     81 DU         10.3600    5.3900   57.3600 H         6 CUB7        0.0000 
     82 DU         11.2100    3.5400   57.9500 H         6 CUB7        0.0000 
@<TRIPOS>BOND
@<TRIPOS>SUBSTRUCTURE
     1 SER1        1 GROUP   
     2 ALA2        2 GROUP   
     3 LYS4       16 GROUP   
     4 PHE5       23 GROUP   
     5 GLY6       45 GROUP   
     6 CUB7       71 GROUP   
@<TRIPOS>SET

