#    Name: 6auu_2_H4B_CAVITY_N1_4
#    Modification time : Fri May 22 19:35:20 2020

@<TRIPOS>MOLECULE
6auu_2_H4B_CAVITY_N1_4
    6     0     4     0     0
SMALL
NO_CHARGES


@<TRIPOS>ATOM
      1 N          12.9500    1.1400   51.7500 N.am      1 ALA2        0.0000 
      2 CZ         13.3300    1.7400   53.0700 C.ar      2 PHE5        0.0000 
      3 CZ         11.9700    2.3600   53.1800 C.ar      2 PHE5        0.0000 
      4 CZ         15.5700    2.9400   53.6000 C.ar      2 PHE5        0.0000 
      5 CA         12.4500   -0.0900   52.4400 C.3       3 GLY6        0.0000 
      6 DU         14.3200    0.5200   51.6500 H         4 CUB7        0.0000 
@<TRIPOS>BOND
@<TRIPOS>SUBSTRUCTURE
     1 ALA2        1 GROUP   
     2 PHE5        2 GROUP   
     3 GLY6        5 GROUP   
     4 CUB7        6 GROUP   
@<TRIPOS>SET

