#    Name: 6auu_2_H4B
#    Modification time : Fri May 22 19:35:19 2020

@<TRIPOS>MOLECULE
6auu_2_H4B
   17    18     1     0     1
SMALL
NO_CHARGES


@<TRIPOS>ATOM
      1 N1         14.4370    3.3870   48.3140 N.2       1 H4B802      0.0000 
      2 C2         14.5040    2.8980   49.5810 C.2       1 H4B802      0.0000 
      3 N2         13.4630    2.1980   50.0940 N.pl3     1 H4B802      0.0000 
      4 N3         15.6000    3.1090   50.3470 N.am      1 H4B802      0.0000 
      5 C4         16.6560    3.8060   49.8780 C.2       1 H4B802      0.0000 
      6 O4         17.6680    3.9960   50.5970 O.2       1 H4B802      0.0000 
      7 C4A        16.6030    4.3210   48.5900 C.2       1 H4B802      0.0000 
      8 C8A        15.4740    4.0930   47.8090 C.2       1 H4B802      0.0000 
      9 N5         17.6400    5.0340   48.0990 N.3       1 H4B802      0.0000 
     10 N8         15.4000    4.5790   46.5440 N.pl3     1 H4B802      0.0000 
     11 C6         17.3380    5.9580   47.0030 C.3       1 H4B802      0.0000 
     12 C7         16.5420    5.2420   45.9170 C.3       1 H4B802      0.0000 
     13 C9         18.5850    6.5890   46.4040 C.3       1 H4B802      0.0000 
     14 O9         19.4870    5.5710   45.9710 O.3       1 H4B802      0.0000 
     15 C10        18.2110    7.4270   45.1930 C.3       1 H4B802      0.0000 
     16 C11        19.4180    8.2060   44.6730 C.3       1 H4B802      0.0000 
     17 O10        17.1550    8.3250   45.5470 O.3       1 H4B802      0.0000 
@<TRIPOS>BOND
     1    1    2 2    
     2    1    8 1    
     3    2    3 1    
     4    2    4 1    
     5    4    5 am   
     6    5    6 2    
     7    5    7 1    
     8    7    8 2    
     9    7    9 1    
    10    8   10 1    
    11    9   11 1    
    12   10   12 1    
    13   11   12 1    
    14   11   13 1    
    15   13   14 1    
    16   13   15 1    
    17   15   16 1    
    18   15   17 1    
@<TRIPOS>SUBSTRUCTURE
     1 H4B802      1 GROUP   
@<TRIPOS>SET
ATOM$ORANGE STATIC     ATOMS   COLORGROUP SYSTEM 
18 2 2 5 5 7 7 8 8 11 11 12 12 13 13 15 15 16 \
16 

