#    Name: 6auu_2_H4B_CAVITY_N1_8
#    Modification time : Fri May 22 19:35:20 2020

@<TRIPOS>MOLECULE
6auu_2_H4B_CAVITY_N1_8
   45     0     6     0     0
SMALL
NO_CHARGES


@<TRIPOS>ATOM
      1 OG         12.7400    7.2200   55.8700 O.3       1 SER1        0.0000 
      2 N          12.9500    1.1400   51.7500 N.am      2 ALA2        0.0000 
      3 O           8.2300    1.1400   54.7700 O.2       2 ALA2        0.0000 
      4 N          11.4800    4.8000   53.9100 N.am      2 ALA2        0.0000 
      5 N          10.9800    3.5700   54.6100 N.am      2 ALA2        0.0000 
      6 N          10.4700    2.3400   55.3000 N.am      2 ALA2        0.0000 
      7 N           8.6000    1.7400   56.1000 N.am      2 ALA2        0.0000 
      8 NZ         12.8200    0.5100   53.7700 N.4       3 LYS4        0.0000 
      9 NZ         11.4600    1.1300   53.8700 N.4       3 LYS4        0.0000 
     10 NZ         10.9500   -0.1000   54.5700 N.4       3 LYS4        0.0000 
     11 NZ         13.1900    1.1000   55.0900 N.4       3 LYS4        0.0000 
     12 NZ         11.8300    1.7200   55.2000 N.4       3 LYS4        0.0000 
     13 NZ         11.3200    0.5000   55.8900 N.4       3 LYS4        0.0000 
     14 CZ         13.3300    1.7400   53.0700 C.ar      4 PHE5        0.0000 
     15 CZ         11.9700    2.3600   53.1800 C.ar      4 PHE5        0.0000 
     16 CZ         15.5700    2.9400   53.6000 C.ar      4 PHE5        0.0000 
     17 CZ         13.7000    2.3300   54.4000 C.ar      4 PHE5        0.0000 
     18 CZ         12.3400    2.9500   54.5000 C.ar      4 PHE5        0.0000 
     19 CZ         12.3600    6.6300   54.5400 C.ar      4 PHE5        0.0000 
     20 CZ         14.5800    4.1600   55.0300 C.ar      4 PHE5        0.0000 
     21 CZ         13.2200    4.7800   55.1300 C.ar      4 PHE5        0.0000 
     22 CZ         11.8600    5.4000   55.2400 C.ar      4 PHE5        0.0000 
     23 CZ         15.4600    5.9800   55.6600 C.ar      4 PHE5        0.0000 
     24 CZ         14.1000    6.6000   55.7600 C.ar      4 PHE5        0.0000 
     25 CZ         13.5900    5.3700   56.4600 C.ar      4 PHE5        0.0000 
     26 CA         12.4500   -0.0900   52.4400 C.3       5 GLY6        0.0000 
     27 CA         10.5800   -0.7000   53.2400 C.3       5 GLY6        0.0000 
     28 CA          9.5900    0.5200   54.6700 C.3       5 GLY6        0.0000 
     29 CA          9.0800   -0.7100   55.3700 C.3       5 GLY6        0.0000 
     30 CA          9.1100    2.9700   55.4000 C.3       5 GLY6        0.0000 
     31 CA         11.0000    7.2500   54.6400 C.3       5 GLY6        0.0000 
     32 CA         10.4900    6.0200   55.3400 C.3       5 GLY6        0.0000 
     33 CA          9.9900    4.7900   56.0300 C.3       5 GLY6        0.0000 
     34 CA          9.4800    3.5600   56.7300 C.3       5 GLY6        0.0000 
     35 CA         14.4700    7.2000   57.0900 C.3       5 GLY6        0.0000 
     36 CA         15.3200    5.3500   57.6800 C.3       5 GLY6        0.0000 
     37 DU         14.3200    0.5200   51.6500 H         6 CUB7        0.0000 
     38 DU          9.9600    1.1200   56.0000 H         6 CUB7        0.0000 
     39 DU         12.7100    3.5500   55.8300 H         6 CUB7        0.0000 
     40 DU         11.3500    4.1700   55.9300 H         6 CUB7        0.0000 
     41 DU         10.8400    2.9400   56.6300 H         6 CUB7        0.0000 
     42 DU         10.3300    1.7100   57.3200 H         6 CUB7        0.0000 
     43 DU         12.2300    5.9900   56.5600 H         6 CUB7        0.0000 
     44 DU         13.0800    4.1400   57.1500 H         6 CUB7        0.0000 
     45 DU         11.7200    4.7700   57.2600 H         6 CUB7        0.0000 
@<TRIPOS>BOND
@<TRIPOS>SUBSTRUCTURE
     1 SER1        1 GROUP   
     2 ALA2        2 GROUP   
     3 LYS4        8 GROUP   
     4 PHE5       14 GROUP   
     5 GLY6       26 GROUP   
     6 CUB7       37 GROUP   
@<TRIPOS>SET

