#    Name: 6auu_2_H4B_CAVITY_N1_6
#    Modification time : Fri May 22 19:35:20 2020

@<TRIPOS>MOLECULE
6auu_2_H4B_CAVITY_N1_6
   20     0     5     0     0
SMALL
NO_CHARGES


@<TRIPOS>ATOM
      1 N          12.9500    1.1400   51.7500 N.am      1 ALA2        0.0000 
      2 N          11.4800    4.8000   53.9100 N.am      1 ALA2        0.0000 
      3 N          10.9800    3.5700   54.6100 N.am      1 ALA2        0.0000 
      4 NZ         12.8200    0.5100   53.7700 N.4       2 LYS4        0.0000 
      5 NZ         11.4600    1.1300   53.8700 N.4       2 LYS4        0.0000 
      6 NZ         10.9500   -0.1000   54.5700 N.4       2 LYS4        0.0000 
      7 NZ         13.1900    1.1000   55.0900 N.4       2 LYS4        0.0000 
      8 NZ         11.8300    1.7200   55.2000 N.4       2 LYS4        0.0000 
      9 CZ         13.3300    1.7400   53.0700 C.ar      3 PHE5        0.0000 
     10 CZ         11.9700    2.3600   53.1800 C.ar      3 PHE5        0.0000 
     11 CZ         15.5700    2.9400   53.6000 C.ar      3 PHE5        0.0000 
     12 CZ         13.7000    2.3300   54.4000 C.ar      3 PHE5        0.0000 
     13 CZ         12.3400    2.9500   54.5000 C.ar      3 PHE5        0.0000 
     14 CZ         14.5800    4.1600   55.0300 C.ar      3 PHE5        0.0000 
     15 CZ         13.2200    4.7800   55.1300 C.ar      3 PHE5        0.0000 
     16 CZ         15.4600    5.9800   55.6600 C.ar      3 PHE5        0.0000 
     17 CA         12.4500   -0.0900   52.4400 C.3       4 GLY6        0.0000 
     18 CA         10.5800   -0.7000   53.2400 C.3       4 GLY6        0.0000 
     19 DU         14.3200    0.5200   51.6500 H         5 CUB7        0.0000 
     20 DU         12.7100    3.5500   55.8300 H         5 CUB7        0.0000 
@<TRIPOS>BOND
@<TRIPOS>SUBSTRUCTURE
     1 ALA2        1 GROUP   
     2 LYS4        4 GROUP   
     3 PHE5        9 GROUP   
     4 GLY6       17 GROUP   
     5 CUB7       19 GROUP   
@<TRIPOS>SET

