#    Name: 6fw7_2_FAD
#    Modification time : Fri May 22 19:27:45 2020

@<TRIPOS>MOLECULE
6fw7_2_FAD
   53    58     1     0     1
SMALL
NO_CHARGES


@<TRIPOS>ATOM
      1 PA         34.8960   26.6210  -18.9380 P.3       1 FAD501      0.0000 
      2 O1A        34.9530   28.1350  -18.9900 O.co2     1 FAD501      0.0000 
      3 O2A        35.9090   25.9210  -18.0730 O.co2     1 FAD501      0.0000 
      4 O5B        33.4470   26.2420  -18.5140 O.3       1 FAD501      0.0000 
      5 C5B        33.1200   24.8770  -18.6380 C.3       1 FAD501      0.0000 
      6 C4B        31.6810   24.8400  -18.2910 C.3       1 FAD501      0.0000 
      7 O4B        31.2010   23.4250  -18.3220 O.3       1 FAD501      0.0000 
      8 C3B        31.5030   25.3450  -16.9260 C.3       1 FAD501      0.0000 
      9 O3B        30.3810   26.2350  -16.9300 O.3       1 FAD501      0.0000 
     10 C2B        31.1730   24.2050  -16.0580 C.3       1 FAD501      0.0000 
     11 O2B        30.2570   24.6770  -15.0490 O.3       1 FAD501      0.0000 
     12 C1B        30.5280   23.2690  -16.9990 C.3       1 FAD501      0.0000 
     13 N9A        30.5050   21.9100  -16.6350 N.pl3     1 FAD501      0.0000 
     14 C8A        31.3650   21.1130  -16.2950 C.2       1 FAD501      0.0000 
     15 N7A        31.0990   20.0800  -16.0680 N.2       1 FAD501      0.0000 
     16 C5A        29.9780   19.6690  -16.1510 C.ar      1 FAD501      0.0000 
     17 C6A        28.9160   18.5000  -16.0210 C.ar      1 FAD501      0.0000 
     18 N6A        29.2700   17.1940  -15.6190 N.pl3     1 FAD501      0.0000 
     19 N1A        27.5580   18.8310  -16.3270 N.ar      1 FAD501      0.0000 
     20 C2A        27.3060   19.9910  -16.6640 C.ar      1 FAD501      0.0000 
     21 N3A        28.0150   20.9370  -16.7960 N.ar      1 FAD501      0.0000 
     22 C4A        29.1960   21.0170  -16.6300 C.ar      1 FAD501      0.0000 
     23 N1         42.1320   33.0000  -20.2220 N.2       1 FAD501      0.0000 
     24 C2         42.6160   34.1170  -21.0510 C.2       1 FAD501      0.0000 
     25 O2         42.5260   34.0280  -22.2520 O.2       1 FAD501      0.0000 
     26 N3         43.2040   35.2590  -20.4470 N.am      1 FAD501      0.0000 
     27 C4         43.3000   35.3770  -19.1020 C.2       1 FAD501      0.0000 
     28 O4         43.6780   36.4290  -18.6230 O.2       1 FAD501      0.0000 
     29 C4X        42.8560   34.2590  -18.2640 C.2       1 FAD501      0.0000 
     30 N5         42.9330   34.3130  -16.9540 N.2       1 FAD501      0.0000 
     31 C5X        42.4000   33.1820  -16.1820 C.ar      1 FAD501      0.0000 
     32 C6         42.4930   33.2500  -14.8070 C.ar      1 FAD501      0.0000 
     33 C7         42.0290   32.2070  -13.9940 C.ar      1 FAD501      0.0000 
     34 C7M        42.1570   32.3400  -12.4780 C.3       1 FAD501      0.0000 
     35 C8         41.4560   31.0950  -14.5680 C.ar      1 FAD501      0.0000 
     36 C8M        40.9490   29.9730  -13.6550 C.3       1 FAD501      0.0000 
     37 C9         41.3560   31.0070  -15.9670 C.ar      1 FAD501      0.0000 
     38 C9A        41.8310   32.0580  -16.7730 C.ar      1 FAD501      0.0000 
     39 N10        41.7310   31.9880  -18.1730 N.pl3     1 FAD501      0.0000 
     40 C10        42.2330   33.0610  -18.9280 C.2       1 FAD501      0.0000 
     41 C1'        41.1530   30.7860  -18.8400 C.3       1 FAD501      0.0000 
     42 C2'        39.8160   30.9540  -19.5340 C.3       1 FAD501      0.0000 
     43 O2'        38.9180   31.4180  -18.5980 O.3       1 FAD501      0.0000 
     44 C3'        39.4200   29.5360  -19.9550 C.3       1 FAD501      0.0000 
     45 O3'        40.3880   28.9820  -20.8110 O.3       1 FAD501      0.0000 
     46 C4'        38.0680   29.4570  -20.6030 C.3       1 FAD501      0.0000 
     47 O4'        37.0660   30.1890  -19.9270 O.3       1 FAD501      0.0000 
     48 C5'        37.6340   28.0020  -20.5720 C.3       1 FAD501      0.0000 
     49 O5'        36.3960   28.0340  -21.2750 O.3       1 FAD501      0.0000 
     50 P          35.6420   26.6920  -21.6510 P.3       1 FAD501      0.0000 
     51 O1P        34.4790   27.1690  -22.4680 O.co2     1 FAD501      0.0000 
     52 O2P        36.5380   25.6390  -22.2460 O.co2     1 FAD501      0.0000 
     53 O3P        35.0090   25.9750  -20.3670 O.3       1 FAD501      0.0000 
@<TRIPOS>BOND
     1    1   53 1    
     2    1    2 ar   
     3    1    3 ar   
     4    1    4 1    
     5    4    5 1    
     6    5    6 1    
     7    6    7 1    
     8    6    8 1    
     9    7   12 1    
    10    8    9 1    
    11    8   10 1    
    12   10   11 1    
    13   10   12 1    
    14   12   13 1    
    15   13   14 1    
    16   13   22 1    
    17   14   15 2    
    18   15   16 1    
    19   16   17 ar   
    20   16   22 ar   
    21   17   18 1    
    22   17   19 ar   
    23   19   20 ar   
    24   20   21 ar   
    25   21   22 ar   
    26   23   24 1    
    27   23   40 2    
    28   24   25 2    
    29   24   26 am   
    30   26   27 am   
    31   27   28 2    
    32   27   29 1    
    33   29   30 2    
    34   29   40 1    
    35   30   31 1    
    36   31   32 ar   
    37   31   38 ar   
    38   32   33 ar   
    39   33   34 1    
    40   33   35 ar   
    41   35   36 1    
    42   35   37 ar   
    43   37   38 ar   
    44   38   39 1    
    45   39   40 1    
    46   39   41 1    
    47   41   42 1    
    48   42   43 1    
    49   42   44 1    
    50   44   45 1    
    51   44   46 1    
    52   46   47 1    
    53   46   48 1    
    54   48   49 1    
    55   49   50 1    
    56   50   52 ar   
    57   50   53 1    
    58   50   51 ar   
@<TRIPOS>SUBSTRUCTURE
     1 FAD501      1 GROUP   
@<TRIPOS>SET
ATOM$ORANGE STATIC     ATOMS   COLORGROUP SYSTEM 
54 5 5 6 6 8 8 10 10 12 12 14 14 16 16 17 17 20 \
20 22 22 24 24 27 27 29 29 31 31 32 32 33 33 34 34 35 \
35 36 36 37 37 38 38 40 40 41 41 42 42 44 44 46 46 48 \
48 

