#    Name: 6fw7_1_FAD
#    Modification time : Fri May 22 19:27:37 2020

@<TRIPOS>MOLECULE
6fw7_1_FAD
   53    58     1     0     1
SMALL
NO_CHARGES


@<TRIPOS>ATOM
      1 PA         17.9150   20.9780    8.3970 P.3       1 FAD501      0.0000 
      2 O1A        17.3090   22.3510    8.3180 O.co2     1 FAD501      0.0000 
      3 O2A        17.1010   19.8740    7.7820 O.co2     1 FAD501      0.0000 
      4 O5B        19.3470   20.9930    7.7530 O.3       1 FAD501      0.0000 
      5 C5B        20.4850   20.7140    8.5480 C.3       1 FAD501      0.0000 
      6 C4B        21.6810   21.2720    7.8640 C.3       1 FAD501      0.0000 
      7 O4B        22.6780   20.1750    7.6900 O.3       1 FAD501      0.0000 
      8 C3B        21.4170   21.7870    6.5110 C.3       1 FAD501      0.0000 
      9 O3B        21.9950   23.1140    6.3930 O.3       1 FAD501      0.0000 
     10 C2B        22.0430   20.8080    5.5870 C.3       1 FAD501      0.0000 
     11 O2B        22.5200   21.3490    4.3410 O.3       1 FAD501      0.0000 
     12 C1B        23.2080   20.3900    6.3350 C.3       1 FAD501      0.0000 
     13 N9A        23.7550   19.1910    5.8980 N.pl3     1 FAD501      0.0000 
     14 C8A        23.2130   18.1450    5.5850 C.2       1 FAD501      0.0000 
     15 N7A        23.8150   17.2880    5.2870 N.2       1 FAD501      0.0000 
     16 C5A        25.0110   17.3210    5.2550 C.ar      1 FAD501      0.0000 
     17 C6A        26.3880   16.6000    4.9920 C.ar      1 FAD501      0.0000 
     18 N6A        26.4030   15.2560    4.5420 N.pl3     1 FAD501      0.0000 
     19 N1A        27.5790   17.3740    5.2170 N.ar      1 FAD501      0.0000 
     20 C2A        27.4370   18.5310    5.6170 C.ar      1 FAD501      0.0000 
     21 N3A        26.4610   19.1610    5.8440 N.ar      1 FAD501      0.0000 
     22 C4A        25.3100   18.8410    5.7490 C.ar      1 FAD501      0.0000 
     23 N1          8.7110   23.3590   10.2940 N.2       1 FAD501      0.0000 
     24 C2          7.8560   24.0030   11.3140 C.2       1 FAD501      0.0000 
     25 O2          8.0580   23.7730   12.5060 O.2       1 FAD501      0.0000 
     26 N3          6.7840   24.8400   10.8660 N.am      1 FAD501      0.0000 
     27 C4          6.5710   25.0910    9.5350 C.2       1 FAD501      0.0000 
     28 O4          5.7310   25.9020    9.1660 O.2       1 FAD501      0.0000 
     29 C4X         7.4200   24.4420    8.5420 C.2       1 FAD501      0.0000 
     30 N5          7.2210   24.6530    7.2450 N.2       1 FAD501      0.0000 
     31 C5X         8.1420   23.9980    6.2950 C.ar      1 FAD501      0.0000 
     32 C6          7.9780   24.1990    4.9340 C.ar      1 FAD501      0.0000 
     33 C7          8.8490   23.5870    4.0140 C.ar      1 FAD501      0.0000 
     34 C7M         8.6410   23.8290    2.5170 C.3       1 FAD501      0.0000 
     35 C8          9.8840   22.7900    4.4770 C.ar      1 FAD501      0.0000 
     36 C8M        10.8480   22.0960    3.5170 C.3       1 FAD501      0.0000 
     37 C9         10.0510   22.5790    5.8350 C.ar      1 FAD501      0.0000 
     38 C9A         9.1860   23.1850    6.7390 C.ar      1 FAD501      0.0000 
     39 N10         9.4030   22.9580    8.1100 N.pl3     1 FAD501      0.0000 
     40 C10         8.5330   23.5660    9.0360 C.2       1 FAD501      0.0000 
     41 C1'        10.5230   22.0490    8.5000 C.3       1 FAD501      0.0000 
     42 C2'        11.5550   22.6690    9.4010 C.3       1 FAD501      0.0000 
     43 O2'        12.2780   23.5540    8.6600 O.3       1 FAD501      0.0000 
     44 C3'        12.4400   21.5150    9.8010 C.3       1 FAD501      0.0000 
     45 O3'        11.6720   20.5840   10.5110 O.3       1 FAD501      0.0000 
     46 C4'        13.5900   22.0350   10.6110 C.3       1 FAD501      0.0000 
     47 O4'        14.2450   23.0880    9.9270 O.3       1 FAD501      0.0000 
     48 C5'        14.5950   20.9050   10.7780 C.3       1 FAD501      0.0000 
     49 O5'        15.8630   21.5020   10.5810 O.3       1 FAD501      0.0000 
     50 P          17.1280   20.7030   11.1010 P.3       1 FAD501      0.0000 
     51 O1P        17.7760   21.5530   12.1430 O.co2     1 FAD501      0.0000 
     52 O2P        16.7540   19.3220   11.5440 O.co2     1 FAD501      0.0000 
     53 O3P        18.1770   20.5830    9.9150 O.3       1 FAD501      0.0000 
@<TRIPOS>BOND
     1    1    2 ar   
     2    1    3 ar   
     3    1    4 1    
     4    1   53 1    
     5    4    5 1    
     6    5    6 1    
     7    6    7 1    
     8    6    8 1    
     9    7   12 1    
    10    8    9 1    
    11    8   10 1    
    12   10   11 1    
    13   10   12 1    
    14   12   13 1    
    15   13   14 1    
    16   13   22 1    
    17   14   15 2    
    18   15   16 1    
    19   16   17 ar   
    20   16   22 ar   
    21   17   18 1    
    22   17   19 ar   
    23   19   20 ar   
    24   20   21 ar   
    25   21   22 ar   
    26   23   24 1    
    27   23   40 2    
    28   24   25 2    
    29   24   26 am   
    30   26   27 am   
    31   27   28 2    
    32   27   29 1    
    33   29   30 2    
    34   29   40 1    
    35   30   31 1    
    36   31   32 ar   
    37   31   38 ar   
    38   32   33 ar   
    39   33   34 1    
    40   33   35 ar   
    41   35   36 1    
    42   35   37 ar   
    43   37   38 ar   
    44   38   39 1    
    45   39   40 1    
    46   39   41 1    
    47   41   42 1    
    48   42   43 1    
    49   42   44 1    
    50   44   45 1    
    51   44   46 1    
    52   46   47 1    
    53   46   48 1    
    54   48   49 1    
    55   49   50 1    
    56   50   51 ar   
    57   50   52 ar   
    58   50   53 1    
@<TRIPOS>SUBSTRUCTURE
     1 FAD501      1 GROUP   
@<TRIPOS>SET
ATOM$ORANGE STATIC     ATOMS   COLORGROUP SYSTEM 
54 5 5 6 6 8 8 10 10 12 12 14 14 16 16 17 17 20 \
20 22 22 24 24 27 27 29 29 31 31 32 32 33 33 34 34 35 \
35 36 36 37 37 38 38 40 40 41 41 42 42 44 44 46 46 48 \
48 

