#    Name: 6ps5_1_SNP_CAVITY_N1_6
#    Modification time : Fri May 22 19:34:51 2020

@<TRIPOS>MOLECULE
6ps5_1_SNP_CAVITY_N1_6
  114     0     6     0     0
SMALL
NO_CHARGES


@<TRIPOS>ATOM
      1 OG          0.2900   -0.4000   50.0200 O.3       1 SER1        0.0000 
      2 OG          1.7500   -1.1400   51.3800 O.3       1 SER1        0.0000 
      3 OG         -0.3100   -1.1700   51.9100 O.3       1 SER1        0.0000 
      4 OG          3.1900    4.6500   52.9900 O.3       1 SER1        0.0000 
      5 OG          3.3200    2.5700   53.3800 O.3       1 SER1        0.0000 
      6 OG          5.2300   11.2100   52.7200 O.3       1 SER1        0.0000 
      7 OG          4.2700   10.1600   53.1800 O.3       1 SER1        0.0000 
      8 OG          3.3100    9.1000   53.6400 O.3       1 SER1        0.0000 
      9 OG          3.5600    4.9400   54.4200 O.3       1 SER1        0.0000 
     10 OG         -0.3100    7.2600   56.5200 O.3       1 SER1        0.0000 
     11 OG          4.7600   10.2600   59.3400 O.3       1 SER1        0.0000 
     12 N           3.7900    5.4200   51.1100 N.am      2 ALA2        0.0000 
     13 N           3.0800    0.2000   52.3500 N.am      2 ALA2        0.0000 
     14 O           2.1100   -0.8500   52.8100 O.2       2 ALA2        0.0000 
     15 N           3.0700    6.7300   52.6000 N.am      2 ALA2        0.0000 
     16 N           3.4400    0.4900   53.7700 N.am      2 ALA2        0.0000 
     17 N           5.3600    9.1300   53.1100 N.am      2 ALA2        0.0000 
     18 N           3.4300    7.0200   54.0300 N.am      2 ALA2        0.0000 
     19 O           6.5600   12.5500   53.6900 O.2       2 ALA2        0.0000 
     20 O           5.6000   11.5000   54.1500 O.2       2 ALA2        0.0000 
     21 N           6.8100    8.3900   54.4700 N.am      2 ALA2        0.0000 
     22 N           5.7200    9.4200   54.5400 N.am      2 ALA2        0.0000 
     23 N           4.8700   12.8200   55.6400 N.am      2 ALA2        0.0000 
     24 O           3.0700    8.6300   56.9500 O.2       2 ALA2        0.0000 
     25 N           1.0200    8.6000   57.4800 N.am      2 ALA2        0.0000 
     26 O           4.5200    7.8900   58.3100 O.2       2 ALA2        0.0000 
     27 N           3.4400    8.9200   58.3800 N.am      2 ALA2        0.0000 
     28 O           4.6500    5.8100   58.7000 O.2       2 ALA2        0.0000 
     29 O           5.9800    7.1500   59.6600 O.2       2 ALA2        0.0000 
     30 NZ          3.4300    5.1300   49.6800 N.4       3 LYS4        0.0000 
     31 NZ          1.3700    5.1000   50.2100 N.4       3 LYS4        0.0000 
     32 NZ          2.7000    6.4400   51.1800 N.4       3 LYS4        0.0000 
     33 NZ          1.7400    5.3900   51.6400 N.4       3 LYS4        0.0000 
     34 NZ          0.6500    6.4200   51.7100 N.4       3 LYS4        0.0000 
     35 NZ          1.9800    7.7600   52.6700 N.4       3 LYS4        0.0000 
     36 NZ          1.0100    6.7100   53.1300 N.4       3 LYS4        0.0000 
     37 NZ          2.3400    8.0500   54.1000 N.4       3 LYS4        0.0000 
     38 CZ          1.8600    1.4200   47.6800 C.ar      4 PHE5        0.0000 
     39 CZ          0.8900    0.3600   48.1400 C.ar      4 PHE5        0.0000 
     40 CZ          3.1900    2.7600   48.6400 C.ar      4 PHE5        0.0000 
     41 CZ          2.2200    1.7000   49.1000 C.ar      4 PHE5        0.0000 
     42 CZ          1.2600    0.6500   49.5600 C.ar      4 PHE5        0.0000 
     43 CZ          1.3800   -1.4300   49.9500 C.ar      4 PHE5        0.0000 
     44 CZ          3.5500    3.0500   50.0700 C.ar      4 PHE5        0.0000 
     45 CZ          2.4600    4.0700   50.1400 C.ar      4 PHE5        0.0000 
     46 CZ          2.5900    1.9900   50.5300 C.ar      4 PHE5        0.0000 
     47 CZ          2.7100   -0.0900   50.9200 C.ar      4 PHE5        0.0000 
     48 CZ          2.8300    4.3600   51.5700 C.ar      4 PHE5        0.0000 
     49 CZ          4.0400    1.2500   51.8900 C.ar      4 PHE5        0.0000 
     50 CZ          2.9500    2.2800   51.9600 C.ar      4 PHE5        0.0000 
     51 CZ          1.8600    3.3100   52.0300 C.ar      4 PHE5        0.0000 
     52 CZ          1.9900    1.2300   52.4200 C.ar      4 PHE5        0.0000 
     53 CZ          0.9000    2.2600   52.4900 C.ar      4 PHE5        0.0000 
     54 CZ          1.0200    0.1800   52.8800 C.ar      4 PHE5        0.0000 
     55 CZ         -0.0700    1.2000   52.9500 C.ar      4 PHE5        0.0000 
     56 CZ          1.1500   -1.9100   53.2600 C.ar      4 PHE5        0.0000 
     57 CZ          0.0600   -0.8800   53.3400 C.ar      4 PHE5        0.0000 
     58 CZ          2.1000    5.6800   53.0600 C.ar      4 PHE5        0.0000 
     59 CZ          1.1400    4.6300   53.5200 C.ar      4 PHE5        0.0000 
     60 CZ          6.3200   10.1800   52.6500 C.ar      4 PHE5        0.0000 
     61 CZ          1.2500    9.0800   54.1700 C.ar      4 PHE5        0.0000 
     62 CZ          2.4700    5.9700   54.4900 C.ar      4 PHE5        0.0000 
     63 CZ          0.2900    8.0300   54.6300 C.ar      4 PHE5        0.0000 
     64 CZ          0.4100    5.9400   55.0200 C.ar      4 PHE5        0.0000 
     65 CZ          4.6300   10.4500   54.6100 C.ar      4 PHE5        0.0000 
     66 CZ          3.6700    9.3900   55.0700 C.ar      4 PHE5        0.0000 
     67 CZ          2.7100    8.3400   55.5300 C.ar      4 PHE5        0.0000 
     68 CZ          0.6500    8.3200   56.0600 C.ar      4 PHE5        0.0000 
     69 CZ          3.9100   11.7600   56.1000 C.ar      4 PHE5        0.0000 
     70 CZ          6.2100    7.6200   56.3500 C.ar      4 PHE5        0.0000 
     71 CZ          2.9500   10.7100   56.5600 C.ar      4 PHE5        0.0000 
     72 CZ          1.9800    9.6600   57.0200 C.ar      4 PHE5        0.0000 
     73 CZ          6.3300   12.0800   57.0000 C.ar      4 PHE5        0.0000 
     74 CZ          5.3600   11.0200   57.4600 C.ar      4 PHE5        0.0000 
     75 CZ          6.5800    7.9100   57.7800 C.ar      4 PHE5        0.0000 
     76 CZ          4.4000    9.9700   57.9200 C.ar      4 PHE5        0.0000 
     77 CZ          3.3100   11.0000   57.9900 C.ar      4 PHE5        0.0000 
     78 CZ          5.6100    6.8600   58.2400 C.ar      4 PHE5        0.0000 
     79 CZ          5.7400    4.7800   58.6300 C.ar      4 PHE5        0.0000 
     80 CA          0.7700    2.4400   47.7500 C.3       5 GLY6        0.0000 
     81 CA         -0.2000    1.3900   48.2100 C.3       5 GLY6        0.0000 
     82 CA          2.1000    3.7900   48.7100 C.3       5 GLY6        0.0000 
     83 CA          1.1300    2.7300   49.1700 C.3       5 GLY6        0.0000 
     84 CA          0.1700    1.6800   49.6300 C.3       5 GLY6        0.0000 
     85 CA         -0.8000    0.6300   50.0900 C.3       5 GLY6        0.0000 
     86 CA          1.5000    3.0200   50.6000 C.3       5 GLY6        0.0000 
     87 CA          0.5300    1.9700   51.0600 C.3       5 GLY6        0.0000 
     88 CA         -0.4300    0.9200   51.5200 C.3       5 GLY6        0.0000 
     89 CA          0.7800   -2.1900   51.8400 C.3       5 GLY6        0.0000 
     90 CA          0.7700    4.3400   52.1000 C.3       5 GLY6        0.0000 
     91 CA         -0.3200    5.3700   52.1700 C.3       5 GLY6        0.0000 
     92 CA          0.0500    5.6600   53.5900 C.3       5 GLY6        0.0000 
     93 CA          1.3800    7.0000   54.5600 C.3       5 GLY6        0.0000 
     94 CA          7.6500   11.5200   53.6200 C.3       5 GLY6        0.0000 
     95 CA          7.7800    9.4400   54.0100 C.3       5 GLY6        0.0000 
     96 CA          6.6900   10.4700   54.0800 C.3       5 GLY6        0.0000 
     97 CA          4.5100   12.5300   54.2200 C.3       5 GLY6        0.0000 
     98 CA          3.8000    7.3100   55.4600 C.3       5 GLY6        0.0000 
     99 CA          1.7400    7.2900   55.9900 C.3       5 GLY6        0.0000 
    100 CA          7.0500   10.7600   55.5000 C.3       5 GLY6        0.0000 
    101 CA          5.9600   11.7900   55.5700 C.3       5 GLY6        0.0000 
    102 CA          7.1800    8.6800   55.8900 C.3       5 GLY6        0.0000 
    103 CA          6.0900    9.7100   55.9600 C.3       5 GLY6        0.0000 
    104 CA          4.1600    7.6000   56.8800 C.3       5 GLY6        0.0000 
    105 CA          2.1100    7.5800   57.4100 C.3       5 GLY6        0.0000 
    106 CA          6.4500    9.9900   57.3900 C.3       5 GLY6        0.0000 
    107 CA          5.8500    9.2300   59.2700 C.3       5 GLY6        0.0000 
    108 CA          4.8900    8.1800   59.7300 C.3       5 GLY6        0.0000 
    109 DU          1.6200    0.9400   50.9900 H         6 CUB7        0.0000 
    110 DU          0.6600   -0.1100   51.4500 H         6 CUB7        0.0000 
    111 DU          5.0000   10.7300   56.0300 H         6 CUB7        0.0000 
    112 DU          5.1200    8.6500   56.4200 H         6 CUB7        0.0000 
    113 DU          4.0300    9.6800   56.4900 H         6 CUB7        0.0000 
    114 DU          5.4900    8.9400   57.8500 H         6 CUB7        0.0000 
@<TRIPOS>BOND
@<TRIPOS>SUBSTRUCTURE
     1 SER1        1 GROUP   
     2 ALA2       12 GROUP   
     3 LYS4       30 GROUP   
     4 PHE5       38 GROUP   
     5 GLY6       80 GROUP   
     6 CUB7      109 GROUP   
@<TRIPOS>SET

