#    Name: 6ps5_1_SNP
#    Modification time : Fri May 22 19:34:50 2020

@<TRIPOS>MOLECULE
6ps5_1_SNP
   19    20     1     0     0
SMALL
NO_CHARGES


@<TRIPOS>ATOM
      1 C1          1.9150    1.7230   49.7180 C.ar      1 SNP1201     0.0000 
      2 C2          1.2010    1.5090   48.5220 C.ar      1 SNP1201     0.0000 
      3 C3          0.3990    0.3830   48.3640 C.ar      1 SNP1201     0.0000 
      4 C4          0.2910   -0.5450   49.3900 C.ar      1 SNP1201     0.0000 
      5 C5          0.8830   -1.3100   51.6060 C.ar      1 SNP1201     0.0000 
      6 C6          1.5730   -1.1570   52.8000 C.ar      1 SNP1201     0.0000 
      7 C7          2.3890   -0.0530   52.9850 C.ar      1 SNP1201     0.0000 
      8 C8          2.5140    0.9020   51.9800 C.ar      1 SNP1201     0.0000 
      9 C9          1.8230    0.7700   50.7590 C.ar      1 SNP1201     0.0000 
     10 C10         0.9940   -0.3640   50.5840 C.ar      1 SNP1201     0.0000 
     11 O1          2.7740    2.8150   49.9380 O.3       1 SNP1201     0.0000 
     12 C11         2.3460    4.1310   49.5590 C.3       1 SNP1201     0.0000 
     13 C12         3.1080    5.1120   50.4370 C.3       1 SNP1201     0.0000 
     14 O2          3.5660    6.2010   49.6320 O.3       1 SNP1201     0.0000 
     15 C13         2.2110    5.5720   51.6030 C.3       1 SNP1201     0.0000 
     16 N1          2.6760    6.8160   52.2440 N.4       1 SNP1201     0.0000 
     17 C14         2.2610    6.9330   53.6600 C.3       1 SNP1201     0.0000 
     18 C15         3.3470    7.7090   54.4030 C.3       1 SNP1201     0.0000 
     19 C16         0.9160    7.6400   53.8810 C.3       1 SNP1201     0.0000 
@<TRIPOS>BOND
     1    1    2 ar   
     2    1    9 ar   
     3    1   11 1    
     4    2    3 ar   
     5    3    4 ar   
     6    4   10 ar   
     7    5    6 ar   
     8    5   10 ar   
     9    6    7 ar   
    10    7    8 ar   
    11    8    9 ar   
    12    9   10 ar   
    13   11   12 1    
    14   12   13 1    
    15   13   14 1    
    16   13   15 1    
    17   15   16 1    
    18   16   17 1    
    19   17   18 1    
    20   17   19 1    
@<TRIPOS>SUBSTRUCTURE
     1 SNP1201     1 GROUP   
@<TRIPOS>SET

