#    Name: 6aqs_1_IM5
#    Modification time : Fri May 22 19:25:59 2020

@<TRIPOS>MOLECULE
6aqs_1_IM5
   20    22     1     0     0
SMALL
NO_CHARGES


@<TRIPOS>ATOM
      1 N1         -5.5450   33.6540   10.6530 N.am      1 IM5302      0.0000 
      2 C2         -5.3220   33.5130   11.9900 C.2       1 IM5302      0.0000 
      3 N2         -5.1340   34.6430   12.7380 N.pl3     1 IM5302      0.0000 
      4 N3         -5.2910   32.2880   12.5990 N.2       1 IM5302      0.0000 
      5 C4         -5.4650   31.1720   11.8380 C.2       1 IM5302      0.0000 
      6 C5         -5.7100   31.2410   10.3910 C.2       1 IM5302      0.0000 
      7 C6         -5.7380   32.6080    9.8240 C.2       1 IM5302      0.0000 
      8 O6         -5.9390   32.7850    8.6100 O.2       1 IM5302      0.0000 
      9 N7         -5.8520   29.9820    9.9290 N.pl3     1 IM5302      0.0000 
     10 C8         -5.7300   29.0820   10.9440 C.2       1 IM5302      0.0000 
     11 C9         -5.5070   29.7280   12.1670 C.2       1 IM5302      0.0000 
     12 N1'        -6.3570   28.8340   14.4680 N.4       1 IM5302      0.0000 
     13 C10        -5.2850   29.0190   13.4740 C.3       1 IM5302      0.0000 
     14 C2'        -6.5490   30.0230   15.3230 C.3       1 IM5302      0.0000 
     15 C3'        -7.9890   29.9020   15.8240 C.3       1 IM5302      0.0000 
     16 O3'        -8.0530   29.2220   17.0850 O.3       1 IM5302      0.0000 
     17 C4'        -8.7260   29.1390   14.7330 C.3       1 IM5302      0.0000 
     18 C5'        -9.5430   30.0540   13.8320 C.3       1 IM5302      0.0000 
     19 O5'       -10.0670   29.2970   12.7270 O.3       1 IM5302      0.0000 
     20 C6'        -7.6610   28.4040   13.9150 C.3       1 IM5302      0.0000 
@<TRIPOS>BOND
     1    1    2 1    
     2    1    7 am   
     3    2    3 1    
     4    2    4 2    
     5    4    5 1    
     6    5    6 2    
     7    5   11 1    
     8    6    7 1    
     9    6    9 1    
    10    7    8 2    
    11    9   10 1    
    12   10   11 2    
    13   11   13 1    
    14   12   13 1    
    15   12   14 1    
    16   12   20 1    
    17   14   15 1    
    18   15   16 1    
    19   15   17 1    
    20   17   18 1    
    21   17   20 1    
    22   18   19 1    
@<TRIPOS>SUBSTRUCTURE
     1 IM5302      1 GROUP   
@<TRIPOS>SET

