#    Name: 6aqs_1_IM5_CAVITY_N1_12
#    Modification time : Fri May 22 19:26:00 2020

@<TRIPOS>MOLECULE
6aqs_1_IM5_CAVITY_N1_12
   80     0     7     0     0
SMALL
NO_CHARGES


@<TRIPOS>ATOM
      1 OG         -7.0900   31.2600    6.9500 O.3       1 SER1        0.0000 
      2 OG         -7.7900   25.3800   16.1400 O.3       1 SER1        0.0000 
      3 OG         -7.9300   26.8600   14.6200 O.3       1 SER1        0.0000 
      4 OG         -8.0600   28.3400   13.1000 O.3       1 SER1        0.0000 
      5 OG         -6.5100   32.2700    7.8900 O.3       1 SER1        0.0000 
      6 OG         -7.3500   27.8800   15.5600 O.3       1 SER1        0.0000 
      7 OG         -6.3000   26.8900   15.9900 O.3       1 SER1        0.0000 
      8 OG         -6.4400   28.3700   14.4700 O.3       1 SER1        0.0000 
      9 OG         -5.5300   28.8500   13.3800 O.3       1 SER1        0.0000 
     10 O          -5.1400   30.7500    6.2900 O.2       2 ALA2        0.0000 
     11 O         -10.6500   25.3900   17.8900 O.2       2 ALA2        0.0000 
     12 O          -9.7400   25.8800   16.8000 O.2       2 ALA2        0.0000 
     13 O          -5.3400   29.8000    9.8400 O.2       2 ALA2        0.0000 
     14 O          -4.4300   30.2900    8.7500 O.2       2 ALA2        0.0000 
     15 N          -4.5600   31.7700    7.2300 N.am      2 ALA2        0.0000 
     16 O          -4.7600   30.8200   10.7800 O.2       2 ALA2        0.0000 
     17 N          -8.0200   35.2700    7.9800 N.am      2 ALA2        0.0000 
     18 N          -6.9800   34.2800    8.4100 N.am      2 ALA2        0.0000 
     19 N          -5.0300   33.7800    7.7400 N.am      2 ALA2        0.0000 
     20 N          -3.9800   32.7900    8.1700 N.am      2 ALA2        0.0000 
     21 N          -5.1600   35.2500    6.2300 N.am      2 ALA2        0.0000 
     22 N          -4.1800   31.8400   11.7100 N.am      2 ALA2        0.0000 
     23 OD1        -8.3700   24.3700   15.2000 O.co2     3 ASP3        0.0000 
     24 NZ         -6.6300   29.2500    6.4400 N.4       4 LYS4        0.0000 
     25 NZ         -6.9600   29.7800    8.4700 N.4       4 LYS4        0.0000 
     26 NZ         -6.0500   30.2700    7.3800 N.4       4 LYS4        0.0000 
     27 NZ         -6.2400   29.3200   10.9300 N.4       4 LYS4        0.0000 
     28 NZ         -5.9400   33.2900    8.8300 N.4       4 LYS4        0.0000 
     29 NZ         -4.8900   32.3000    9.2600 N.4       4 LYS4        0.0000 
     30 NZ         -8.7200   29.3900   17.1600 N.4       4 LYS4        0.0000 
     31 NZ         -7.6800   28.4000   17.5900 N.4       4 LYS4        0.0000 
     32 NZ         -7.8100   29.8800   16.0700 N.4       4 LYS4        0.0000 
     33 NZ         -6.7700   28.8900   16.5000 N.4       4 LYS4        0.0000 
     34 NZ         -5.8600   29.3800   15.4100 N.4       4 LYS4        0.0000 
     35 NZ         -5.2200   32.8300   11.2900 N.4       4 LYS4        0.0000 
     36 CZ        -10.1500   30.3200   12.2500 C.ar      5 PHE5        0.0000 
     37 CZ         -9.1000   29.3300   12.6800 C.ar      5 PHE5        0.0000 
     38 CZ         -7.4200   31.7800    8.9800 C.ar      5 PHE5        0.0000 
     39 CZ         -6.3800   30.7900    9.4100 C.ar      5 PHE5        0.0000 
     40 CZ         -7.5600   33.2600    7.4700 C.ar      5 PHE5        0.0000 
     41 CZ         -9.5700   31.3300   13.1900 C.ar      5 PHE5        0.0000 
     42 CZ         -8.5300   30.3400   13.6200 C.ar      5 PHE5        0.0000 
     43 CZ         -7.6200   30.8300   12.5300 C.ar      5 PHE5        0.0000 
     44 CZ         -6.7100   31.3200   11.4400 C.ar      5 PHE5        0.0000 
     45 CZ         -6.8400   32.8000    9.9200 C.ar      5 PHE5        0.0000 
     46 CZ         -5.8000   31.8100   10.3500 C.ar      5 PHE5        0.0000 
     47 CZ         -6.1300   32.3400   12.3800 C.ar      5 PHE5        0.0000 
     48 CZ         -6.2700   33.8200   10.8600 C.ar      5 PHE5        0.0000 
     49 CA        -10.3200   24.8700   15.8600 C.3       6 GLY6        0.0000 
     50 CA        -11.6900   26.3800   17.4600 C.3       6 GLY6        0.0000 
     51 CA        -10.7900   26.8700   16.3700 C.3       6 GLY6        0.0000 
     52 CA        -10.9200   28.3500   14.8500 C.3       6 GLY6        0.0000 
     53 CA         -9.8800   27.3600   15.2800 C.3       6 GLY6        0.0000 
     54 CA         -5.4700   31.2800    8.3200 C.3       6 GLY6        0.0000 
     55 CA         -5.6100   32.7600    6.8000 C.3       6 GLY6        0.0000 
     56 CA         -9.1600   26.9000   17.7400 C.3       6 GLY6        0.0000 
     57 CA         -9.3000   28.3800   16.2200 C.3       6 GLY6        0.0000 
     58 CA         -7.2100   26.4000   17.0700 C.3       6 GLY6        0.0000 
     59 CA        -10.4800   30.8400   14.2800 C.3       6 GLY6        0.0000 
     60 CA         -9.4300   29.8600   14.7000 C.3       6 GLY6        0.0000 
     61 CA         -4.6200   29.3400   12.2900 C.3       6 GLY6        0.0000 
     62 CA         -8.8600   30.8700   15.6400 C.3       6 GLY6        0.0000 
     63 CA         -6.9000   30.3700   14.9800 C.3       6 GLY6        0.0000 
     64 CA         -7.0400   31.8500   13.4700 C.3       6 GLY6        0.0000 
     65 CA         -5.9900   30.8600   13.8900 C.3       6 GLY6        0.0000 
     66 CA         -4.9500   29.8700   14.3200 C.3       6 GLY6        0.0000 
     67 CA         -5.0900   31.3500   12.8000 C.3       6 GLY6        0.0000 
     68 CA         -4.0400   30.3600   13.2300 C.3       6 GLY6        0.0000 
     69 CA         -5.5500   33.3500   13.3200 C.3       6 GLY6        0.0000 
     70 DU         -9.4100   25.3600   14.7700 H         7 CUB7        0.0000 
     71 DU         -8.8300   26.3700   15.7100 H         7 CUB7        0.0000 
     72 DU        -10.0100   28.8400   13.7700 H         7 CUB7        0.0000 
     73 DU         -8.9700   27.8500   14.1900 H         7 CUB7        0.0000 
     74 DU         -6.6500   33.7500    6.3800 H         7 CUB7        0.0000 
     75 DU         -8.2600   27.3900   16.6500 H         7 CUB7        0.0000 
     76 DU         -8.3900   28.8700   15.1300 H         7 CUB7        0.0000 
     77 DU         -7.4800   29.3500   14.0400 H         7 CUB7        0.0000 
     78 DU         -6.5700   29.8400   12.9500 H         7 CUB7        0.0000 
     79 DU         -5.6700   30.3300   11.8600 H         7 CUB7        0.0000 
     80 DU         -6.0700   34.7700    7.3200 H         7 CUB7        0.0000 
@<TRIPOS>BOND
@<TRIPOS>SUBSTRUCTURE
     1 SER1        1 GROUP   
     2 ALA2       10 GROUP   
     3 ASP3       23 GROUP   
     4 LYS4       24 GROUP   
     5 PHE5       36 GROUP   
     6 GLY6       49 GROUP   
     7 CUB7       70 GROUP   
@<TRIPOS>SET

