#    Name: 6s5c_1_ATP
#    Modification time : Fri May 22 19:27:36 2020

@<TRIPOS>MOLECULE
6s5c_1_ATP
   31    33     1     0     1
SMALL
NO_CHARGES


@<TRIPOS>ATOM
      1 PG        134.8950   21.0030  -12.5180 P.3       1 ATP601      0.0000 
      2 O1G       136.0040   21.5360  -13.3890 O.co2     1 ATP601      0.0000 
      3 O2G       133.5100   21.3730  -12.9820 O.co2     1 ATP601      0.0000 
      4 O3G       135.1450   21.1840  -11.0430 O.co2     1 ATP601      0.0000 
      5 PB        135.2990   18.3440  -11.5950 P.3       1 ATP601      0.0000 
      6 O1B       136.3840   18.9090  -10.7130 O.co2     1 ATP601      0.0000 
      7 O2B       134.0210   17.8350  -10.9810 O.co2     1 ATP601      0.0000 
      8 O3B       134.9400   19.4120  -12.7460 O.3       1 ATP601      0.0000 
      9 PA        135.0300   16.2390  -13.4360 P.3       1 ATP601      0.0000 
     10 O1A       133.7030   16.9230  -13.6520 O.co2     1 ATP601      0.0000 
     11 O2A       135.0530   14.8250  -12.9160 O.co2     1 ATP601      0.0000 
     12 O3A       135.9380   17.1780  -12.4990 O.3       1 ATP601      0.0000 
     13 O5'       135.8080   16.2820  -14.8420 O.3       1 ATP601      0.0000 
     14 C5'       135.3390   17.1710  -15.8540 C.3       1 ATP601      0.0000 
     15 C4'       135.3420   16.4970  -17.2190 C.3       1 ATP601      0.0000 
     16 O4'       136.4300   15.5770  -17.3570 O.3       1 ATP601      0.0000 
     17 C3'       134.0640   15.7020  -17.4470 C.3       1 ATP601      0.0000 
     18 O3'       133.2800   16.3370  -18.4600 O.3       1 ATP601      0.0000 
     19 C2'       134.5250   14.3440  -17.9370 C.3       1 ATP601      0.0000 
     20 O2'       133.8050   13.9470  -19.1070 O.3       1 ATP601      0.0000 
     21 C1'       135.9960   14.5520  -18.2520 C.3       1 ATP601      0.0000 
     22 N9        136.7600   13.2810  -18.1490 N.pl3     1 ATP601      0.0000 
     23 C8        136.8980   12.4850  -17.0720 C.2       1 ATP601      0.0000 
     24 N7        137.6620   11.3990  -17.3650 N.2       1 ATP601      0.0000 
     25 C5        138.0200   11.4900  -18.6600 C.ar      1 ATP601      0.0000 
     26 C6        138.8230   10.6880  -19.6160 C.ar      1 ATP601      0.0000 
     27 N6        139.4150    9.5300  -19.2360 N.pl3     1 ATP601      0.0000 
     28 N1        138.9420   11.1530  -20.8810 N.ar      1 ATP601      0.0000 
     29 C2        138.3610   12.3010  -21.2750 C.ar      1 ATP601      0.0000 
     30 N3        137.6220   13.0750  -20.4620 N.ar      1 ATP601      0.0000 
     31 C4        137.4180   12.7290  -19.1690 C.ar      1 ATP601      0.0000 
@<TRIPOS>BOND
     1    1    2 ar   
     2    1    3 ar   
     3    1    4 ar   
     4    1    8 1    
     5    5    6 ar   
     6    5    7 ar   
     7    5    8 1    
     8    5   12 1    
     9    9   10 ar   
    10    9   11 ar   
    11    9   12 1    
    12    9   13 1    
    13   13   14 1    
    14   14   15 1    
    15   15   16 1    
    16   15   17 1    
    17   16   21 1    
    18   17   18 1    
    19   17   19 1    
    20   19   20 1    
    21   19   21 1    
    22   21   22 1    
    23   22   23 1    
    24   22   31 1    
    25   23   24 2    
    26   24   25 1    
    27   25   26 ar   
    28   25   31 ar   
    29   26   27 1    
    30   26   28 ar   
    31   28   29 ar   
    32   29   30 ar   
    33   30   31 ar   
@<TRIPOS>SUBSTRUCTURE
     1 ATP601      1 GROUP   
@<TRIPOS>SET
ATOM$ORANGE STATIC     ATOMS   COLORGROUP SYSTEM 
20 14 14 15 15 17 17 19 19 21 21 23 23 25 25 26 26 29 \
29 31 31 

