#    Name: 6ix7_2_SAH
#    Modification time : Fri May 22 19:32:23 2020

@<TRIPOS>MOLECULE
6ix7_2_SAH
   26    28     1     0     0
SMALL
NO_CHARGES


@<TRIPOS>ATOM
      1 N         -59.3060   -8.2780   33.8340 N.4       1 SAH401      0.0000 
      2 CA        -58.9250   -9.6640   33.5880 C.3       1 SAH401      0.0000 
      3 CB        -58.0590   -9.7110   32.3290 C.3       1 SAH401      0.0000 
      4 CG        -58.4290  -10.7570   31.2860 C.3       1 SAH401      0.0000 
      5 SD        -57.4400  -10.6080   29.7690 S.3       1 SAH401      0.0000 
      6 C         -58.1870  -10.2480   34.8050 C.2       1 SAH401      0.0000 
      7 O         -58.5670  -11.2510   35.4220 O.co2     1 SAH401      0.0000 
      8 OXT       -57.1710   -9.7040   35.2230 O.co2     1 SAH401      0.0000 
      9 C5'       -58.3760   -9.4390   28.7470 C.3       1 SAH401      0.0000 
     10 C4'       -59.8770   -9.6300   28.9160 C.3       1 SAH401      0.0000 
     11 O4'       -60.5460   -8.6370   28.1640 O.3       1 SAH401      0.0000 
     12 C3'       -60.3960  -10.9740   28.4000 C.3       1 SAH401      0.0000 
     13 O3'       -61.3250  -11.5150   29.3230 O.3       1 SAH401      0.0000 
     14 C2'       -61.1590  -10.6450   27.1350 C.3       1 SAH401      0.0000 
     15 O2'       -62.2850  -11.4720   26.9430 O.3       1 SAH401      0.0000 
     16 C1'       -61.6150   -9.2430   27.4490 C.3       1 SAH401      0.0000 
     17 N9        -61.8880   -8.4380   26.2500 N.pl3     1 SAH401      0.0000 
     18 C8        -61.1440   -8.3390   25.1010 C.2       1 SAH401      0.0000 
     19 N7        -61.7750   -7.4540   24.2910 N.2       1 SAH401      0.0000 
     20 C5        -62.8790   -6.9890   24.9210 C.ar      1 SAH401      0.0000 
     21 C6        -63.8570   -6.0670   24.5610 C.ar      1 SAH401      0.0000 
     22 N6        -63.8230   -5.4480   23.3770 N.pl3     1 SAH401      0.0000 
     23 N1        -64.8720   -5.8020   25.4500 N.ar      1 SAH401      0.0000 
     24 C2        -64.9290   -6.4250   26.6790 C.ar      1 SAH401      0.0000 
     25 N3        -63.9580   -7.3400   27.0280 N.ar      1 SAH401      0.0000 
     26 C4        -62.9550   -7.6030   26.1540 C.ar      1 SAH401      0.0000 
@<TRIPOS>BOND
     1    1    2 1    
     2    2    3 1    
     3    2    6 1    
     4    3    4 1    
     5    4    5 1    
     6    5    9 1    
     7    6    7 ar   
     8    6    8 ar   
     9    9   10 1    
    10   10   11 1    
    11   10   12 1    
    12   11   16 1    
    13   12   13 1    
    14   12   14 1    
    15   14   15 1    
    16   14   16 1    
    17   16   17 1    
    18   17   18 1    
    19   17   26 1    
    20   18   19 2    
    21   19   20 1    
    22   20   21 ar   
    23   20   26 ar   
    24   21   22 1    
    25   21   23 ar   
    26   23   24 ar   
    27   24   25 ar   
    28   25   26 ar   
@<TRIPOS>SUBSTRUCTURE
     1 SAH401      1 GROUP   
@<TRIPOS>SET

