#    Name: 6ix7_1_SAH
#    Modification time : Fri May 22 19:32:18 2020

@<TRIPOS>MOLECULE
6ix7_1_SAH
   26    28     1     0     0
SMALL
NO_CHARGES


@<TRIPOS>ATOM
      1 N         -12.0620  -28.5550   12.8820 N.4       1 SAH401      0.0000 
      2 CA        -12.4970  -27.1640   12.9310 C.3       1 SAH401      0.0000 
      3 CB        -14.0070  -27.0960   12.7390 C.3       1 SAH401      0.0000 
      4 CG        -14.4600  -26.0930   11.6950 C.3       1 SAH401      0.0000 
      5 SD        -16.2440  -26.2250   11.3840 S.3       1 SAH401      0.0000 
      6 C         -12.0990  -26.4860   14.2410 C.2       1 SAH401      0.0000 
      7 O         -12.3610  -27.0140   15.3250 O.co2     1 SAH401      0.0000 
      8 OXT       -11.5210  -25.3960   14.2490 O.co2     1 SAH401      0.0000 
      9 C5'       -16.3160  -27.5170   10.1070 C.3       1 SAH401      0.0000 
     10 C4'       -15.2280  -27.3680    9.0470 C.3       1 SAH401      0.0000 
     11 O4'       -15.3330  -28.4200    8.1020 O.3       1 SAH401      0.0000 
     12 C3'       -15.3310  -26.0680    8.2570 C.3       1 SAH401      0.0000 
     13 O3'       -14.0400  -25.4960    8.1760 O.3       1 SAH401      0.0000 
     14 C2'       -15.7810  -26.4990    6.8740 C.3       1 SAH401      0.0000 
     15 O2'       -15.2480  -25.7120    5.8370 O.3       1 SAH401      0.0000 
     16 C1'       -15.1850  -27.8870    6.8000 C.3       1 SAH401      0.0000 
     17 N9        -15.8630  -28.7560    5.8300 N.pl3     1 SAH401      0.0000 
     18 C8        -17.2140  -28.8700    5.5740 C.2       1 SAH401      0.0000 
     19 N7        -17.3790  -29.8100    4.6090 N.2       1 SAH401      0.0000 
     20 C5        -16.1450  -30.2840    4.2640 C.ar      1 SAH401      0.0000 
     21 C6        -15.7060  -31.2390    3.3610 C.ar      1 SAH401      0.0000 
     22 N6        -16.5750  -31.8980    2.6050 N.pl3     1 SAH401      0.0000 
     23 N1        -14.3570  -31.5020    3.2440 N.ar      1 SAH401      0.0000 
     24 C2        -13.4350  -30.8320    4.0080 C.ar      1 SAH401      0.0000 
     25 N3        -13.8630  -29.8830    4.8980 N.ar      1 SAH401      0.0000 
     26 C4        -15.1950  -29.6240    5.0250 C.ar      1 SAH401      0.0000 
@<TRIPOS>BOND
     1    1    2 1    
     2    2    3 1    
     3    2    6 1    
     4    3    4 1    
     5    4    5 1    
     6    5    9 1    
     7    6    7 ar   
     8    6    8 ar   
     9    9   10 1    
    10   10   11 1    
    11   10   12 1    
    12   11   16 1    
    13   12   13 1    
    14   12   14 1    
    15   14   15 1    
    16   14   16 1    
    17   16   17 1    
    18   17   18 1    
    19   17   26 1    
    20   18   19 2    
    21   19   20 1    
    22   20   21 ar   
    23   20   26 ar   
    24   21   22 1    
    25   21   23 ar   
    26   23   24 ar   
    27   24   25 ar   
    28   25   26 ar   
@<TRIPOS>SUBSTRUCTURE
     1 SAH401      1 GROUP   
@<TRIPOS>SET

