#    Name: 6n7n_3_TTP
#    Modification time : Fri May 22 19:33:22 2020

@<TRIPOS>MOLECULE
6n7n_3_TTP
   29    30     1     0     0
SMALL
NO_CHARGES


@<TRIPOS>ATOM
      1 PA        155.8480  164.5410  119.6070 P.3       1 TTP700      0.0000 
      2 O1A       156.0420  164.3590  118.1240 O.co2     1 TTP700      0.0000 
      3 O2A       154.4600  165.0660  119.8790 O.co2     1 TTP700      0.0000 
      4 O3A       156.0720  163.1080  120.3850 O.3       1 TTP700      0.0000 
      5 PB        155.1080  161.8080  120.6700 P.3       1 TTP700      0.0000 
      6 O1B       155.8500  160.5560  120.2770 O.co2     1 TTP700      0.0000 
      7 O2B       153.8250  161.9350  119.8860 O.co2     1 TTP700      0.0000 
      8 O3B       154.7230  161.7380  122.2650 O.3       1 TTP700      0.0000 
      9 PG        153.3050  161.7830  122.9940 P.3       1 TTP700      0.0000 
     10 O1G       153.1250  160.5440  123.8330 O.co2     1 TTP700      0.0000 
     11 O2G       152.2220  161.8510  121.9460 O.co2     1 TTP700      0.0000 
     12 O3G       153.2350  162.9990  123.8820 O.co2     1 TTP700      0.0000 
     13 O5'       156.9740  165.5940  120.1720 O.3       1 TTP700      0.0000 
     14 C5'       156.6070  166.9220  120.3780 C.3       1 TTP700      0.0000 
     15 C4'       157.8860  167.7750  120.3290 C.3       1 TTP700      0.0000 
     16 O4'       159.0600  166.9370  120.2770 O.3       1 TTP700      0.0000 
     17 C3'       157.9620  168.5280  119.0100 C.3       1 TTP700      0.0000 
     18 O3'       157.2640  169.8000  119.1220 O.3       1 TTP700      0.0000 
     19 C2'       159.4590  168.7500  118.8810 C.3       1 TTP700      0.0000 
     20 C1'       160.1140  167.7820  119.8510 C.3       1 TTP700      0.0000 
     21 N1        161.1530  166.9910  119.1720 N.am      1 TTP700      0.0000 
     22 C2        162.5870  167.3420  119.3240 C.2       1 TTP700      0.0000 
     23 O2        162.8670  168.2680  120.0020 O.2       1 TTP700      0.0000 
     24 N3        163.6220  166.6420  118.7160 N.am      1 TTP700      0.0000 
     25 C4        163.2760  165.5940  117.9530 C.2       1 TTP700      0.0000 
     26 O4        164.1820  164.9560  117.4020 O.2       1 TTP700      0.0000 
     27 C5        161.8720  165.1500  117.7290 C.2       1 TTP700      0.0000 
     28 C5M       161.5710  163.9470  116.8420 C.3       1 TTP700      0.0000 
     29 C6        160.8590  165.8640  118.3460 C.2       1 TTP700      0.0000 
@<TRIPOS>BOND
     1    1    2 ar   
     2    1    3 ar   
     3    1    4 1    
     4    1   13 1    
     5    4    5 1    
     6    5    6 ar   
     7    5    7 ar   
     8    5    8 1    
     9    8    9 1    
    10    9   10 ar   
    11    9   11 ar   
    12    9   12 ar   
    13   13   14 1    
    14   14   15 1    
    15   15   16 1    
    16   15   17 1    
    17   16   20 1    
    18   17   18 1    
    19   17   19 1    
    20   19   20 1    
    21   20   21 1    
    22   21   22 1    
    23   21   29 1    
    24   22   23 2    
    25   22   24 1    
    26   24   25 1    
    27   25   26 2    
    28   25   27 1    
    29   27   28 1    
    30   27   29 2    
@<TRIPOS>SUBSTRUCTURE
     1 TTP700      1 GROUP   
@<TRIPOS>SET

