#    Name: 6n7n_5_TTP_CAVITY_N1_6
#    Modification time : Fri May 22 19:33:40 2020

@<TRIPOS>MOLECULE
6n7n_5_TTP_CAVITY_N1_6
  138     0     7     0     0
SMALL
NO_CHARGES


@<TRIPOS>ATOM
      1 OG        158.1500  101.7800  122.4300 O.3       1 SER1        0.0000 
      2 OG        156.2300  103.0000  123.6700 O.3       1 SER1        0.0000 
      3 OG        156.2600  104.5400  122.2200 O.3       1 SER1        0.0000 
      4 OG        157.3000  103.6700  122.8600 O.3       1 SER1        0.0000 
      5 OG        157.3300  105.2100  121.4100 O.3       1 SER1        0.0000 
      6 OG        158.3700  104.3400  122.0500 O.3       1 SER1        0.0000 
      7 OG        154.3400  105.7600  123.4600 O.3       1 SER1        0.0000 
      8 OG        155.4000  106.4300  122.6500 O.3       1 SER1        0.0000 
      9 OG        157.5100  106.2300  122.4900 O.3       1 SER1        0.0000 
     10 OG        159.6200  106.0400  122.3200 O.3       1 SER1        0.0000 
     11 OG        155.5900  107.4500  123.7400 O.3       1 SER1        0.0000 
     12 OG        157.6900  107.2600  123.5700 O.3       1 SER1        0.0000 
     13 OG        159.8000  107.0600  123.4100 O.3       1 SER1        0.0000 
     14 OG        154.7000  107.8000  125.6300 O.3       1 SER1        0.0000 
     15 OG        155.7700  108.4800  124.8200 O.3       1 SER1        0.0000 
     16 OG        157.8700  108.2800  124.6600 O.3       1 SER1        0.0000 
     17 OG        158.9100  107.4100  125.3000 O.3       1 SER1        0.0000 
     18 O         156.9700  103.1700  119.2400 O.2       2 ALA2        0.0000 
     19 N         158.0000  102.3000  119.8800 N.am      2 ALA2        0.0000 
     20 N         151.9300  107.0000  118.5500 N.am      2 ALA2        0.0000 
     21 N         152.9700  106.1300  119.1900 N.am      2 ALA2        0.0000 
     22 N         154.0100  105.2600  119.8400 N.am      2 ALA2        0.0000 
     23 N         155.0700  105.9300  119.0300 N.am      2 ALA2        0.0000 
     24 O         156.1100  105.0600  119.6700 O.2       2 ALA2        0.0000 
     25 O         157.1500  104.1900  120.3200 O.2       2 ALA2        0.0000 
     26 O         158.2200  104.8600  119.5100 O.2       2 ALA2        0.0000 
     27 N         152.1100  108.0200  119.6300 N.am      2 ALA2        0.0000 
     28 N         153.1500  107.1500  120.2800 N.am      2 ALA2        0.0000 
     29 N         154.1900  106.2800  120.9200 N.am      2 ALA2        0.0000 
     30 N         155.2200  105.4100  121.5700 N.am      2 ALA2        0.0000 
     31 N         156.2900  106.0800  120.7600 N.am      2 ALA2        0.0000 
     32 N         158.4000  105.8800  120.5900 N.am      2 ALA2        0.0000 
     33 N         150.1600  107.7000  122.3300 N.am      2 ALA2        0.0000 
     34 N         153.3300  108.1700  121.3600 N.am      2 ALA2        0.0000 
     35 N         154.3700  107.3000  122.0100 N.am      2 ALA2        0.0000 
     36 N         156.4700  107.1000  121.8400 N.am      2 ALA2        0.0000 
     37 N         157.5400  107.7800  121.0300 N.am      2 ALA2        0.0000 
     38 N         158.5800  106.9100  121.6800 N.am      2 ALA2        0.0000 
     39 N         154.5500  108.3200  123.0900 N.am      2 ALA2        0.0000 
     40 N         155.6200  109.0000  122.2800 N.am      2 ALA2        0.0000 
     41 N         156.6500  108.1300  122.9300 N.am      2 ALA2        0.0000 
     42 N         156.6900  109.6700  121.4700 N.am      2 ALA2        0.0000 
     43 N         157.7200  108.8000  122.1200 N.am      2 ALA2        0.0000 
     44 N         158.7600  107.9300  122.7600 N.am      2 ALA2        0.0000 
     45 N         160.8700  107.7300  122.6000 N.am      2 ALA2        0.0000 
     46 N         155.8300  111.5600  121.9100 N.am      2 ALA2        0.0000 
     47 N         156.8700  110.6900  122.5500 N.am      2 ALA2        0.0000 
     48 O         152.8400  112.1100  123.9600 O.2       2 ALA2        0.0000 
     49 O         154.9100  110.3700  125.2600 O.2       2 ALA2        0.0000 
     50 N         157.0200  110.1700  125.0900 N.am      2 ALA2        0.0000 
     51 N         158.0500  109.3000  125.7400 N.am      2 ALA2        0.0000 
     52 N         158.0800  110.8400  124.2800 N.am      2 ALA2        0.0000 
     53 N         159.1200  109.9700  124.9300 N.am      2 ALA2        0.0000 
     54 O         157.0800  113.2500  122.1800 O.2       2 ALA2        0.0000 
     55 N         158.1200  112.3800  122.8300 N.am      2 ALA2        0.0000 
     56 N         162.2600  108.9000  125.4100 N.am      2 ALA2        0.0000 
     57 O         151.9500  112.4600  125.8600 O.2       2 ALA2        0.0000 
     58 O         152.9900  111.5900  126.5100 O.2       2 ALA2        0.0000 
     59 O         154.0200  110.7200  127.1500 O.2       2 ALA2        0.0000 
     60 N         159.2700  109.4500  127.4700 N.am      2 ALA2        0.0000 
     61 N         160.3100  108.5800  128.1200 N.am      2 ALA2        0.0000 
     62 OD1       154.8600  103.3700  119.4000 O.co2     3 ASP3        0.0000 
     63 OD1       159.0400  101.4300  120.5300 O.co2     3 ASP3        0.0000 
     64 OD1       158.1800  103.3200  120.9700 O.co2     3 ASP3        0.0000 
     65 OD1       159.2200  102.4500  121.6100 O.co2     3 ASP3        0.0000 
     66 OD1       151.0100  105.8100  121.9000 O.co2     3 ASP3        0.0000 
     67 OD1       153.1200  105.6100  121.7300 O.co2     3 ASP3        0.0000 
     68 OD1       154.1500  104.7400  122.3800 O.co2     3 ASP3        0.0000 
     69 OD1       155.1900  103.8700  123.0300 O.co2     3 ASP3        0.0000 
     70 OD1       153.3000  106.6300  122.8200 O.co2     3 ASP3        0.0000 
     71 OD1       151.5900  110.4100  123.6900 O.co2     3 ASP3        0.0000 
     72 OD1       152.6200  109.5400  124.3400 O.co2     3 ASP3        0.0000 
     73 OD1       162.1100  109.4200  122.8700 O.co2     3 ASP3        0.0000 
     74 OD1       150.7300  112.3100  124.1300 O.co2     3 ASP3        0.0000 
     75 OD1       151.7700  111.4400  124.7700 O.co2     3 ASP3        0.0000 
     76 OD1       152.8000  110.5700  125.4200 O.co2     3 ASP3        0.0000 
     77 OD1       151.8000  112.9800  123.3200 O.co2     3 ASP3        0.0000 
     78 OD1       160.1600  109.1000  125.5800 O.co2     3 ASP3        0.0000 
     79 OD1       159.1500  111.5100  123.4700 O.co2     3 ASP3        0.0000 
     80 OD1       160.1900  110.6400  124.1200 O.co2     3 ASP3        0.0000 
     81 OD1       161.2300  109.7700  124.7700 O.co2     3 ASP3        0.0000 
     82 OD1       149.8400  112.6600  126.0200 O.co2     3 ASP3        0.0000 
     83 OD1       150.8800  111.7900  126.6700 O.co2     3 ASP3        0.0000 
     84 OD1       151.9200  110.9200  127.3200 O.co2     3 ASP3        0.0000 
     85 OD1       150.9100  113.3300  125.2100 O.co2     3 ASP3        0.0000 
     86 OD1       160.3400  110.1200  126.6600 O.co2     3 ASP3        0.0000 
     87 OD1       161.3800  109.2500  127.3100 O.co2     3 ASP3        0.0000 
     88 NZ        155.9000  102.5000  120.0500 N.4       4 LYS4        0.0000 
     89 NZ        151.9000  105.4600  120.0000 N.4       4 LYS4        0.0000 
     90 NZ        152.9400  104.5900  120.6500 N.4       4 LYS4        0.0000 
     91 NZ        155.0400  104.3900  120.4900 N.4       4 LYS4        0.0000 
     92 NZ        156.0800  103.5200  121.1300 N.4       4 LYS4        0.0000 
     93 NZ        157.1200  102.6500  121.7800 N.4       4 LYS4        0.0000 
     94 NZ        148.9400  107.5500  120.6000 N.4       4 LYS4        0.0000 
     95 NZ        149.9800  106.6800  121.2500 N.4       4 LYS4        0.0000 
     96 NZ        151.0400  107.3500  120.4400 N.4       4 LYS4        0.0000 
     97 NZ        152.0800  106.4800  121.0900 N.4       4 LYS4        0.0000 
     98 CZ        159.9800  108.0800  124.4900 C.ar      5 PHE5        0.0000 
     99 CZ        161.0100  107.2100  125.1400 C.ar      5 PHE5        0.0000 
    100 CZ        162.0800  107.8800  124.3300 C.ar      5 PHE5        0.0000 
    101 CZ        159.0600  106.8900  127.8400 C.ar      5 PHE5        0.0000 
    102 CZ        160.1300  107.5600  127.0300 C.ar      5 PHE5        0.0000 
    103 CZ        161.1900  108.2300  126.2200 C.ar      5 PHE5        0.0000 
    104 CZ        161.3400  107.7100  128.7600 C.ar      5 PHE5        0.0000 
    105 CA        150.0100  108.2200  119.7900 C.3       6 GLY6        0.0000 
    106 CA        157.2600  102.1300  124.3200 C.3       6 GLY6        0.0000 
    107 CA        151.0800  108.8900  118.9800 C.3       6 GLY6        0.0000 
    108 CA        151.1900  106.8300  122.9800 C.3       6 GLY6        0.0000 
    109 CA        152.2300  105.9600  123.6300 C.3       6 GLY6        0.0000 
    110 CA        151.2300  108.3700  121.5200 C.3       6 GLY6        0.0000 
    111 CA        151.3700  107.8500  124.0600 C.3       6 GLY6        0.0000 
    112 CA        151.4100  109.3900  122.6100 C.3       6 GLY6        0.0000 
    113 CA        153.4800  107.6500  123.9000 C.3       6 GLY6        0.0000 
    114 CA        153.5100  109.1900  122.4400 C.3       6 GLY6        0.0000 
    115 CA        153.6600  108.6700  124.9800 C.3       6 GLY6        0.0000 
    116 CA        152.6600  111.0900  122.8800 C.3       6 GLY6        0.0000 
    117 CA        153.6900  110.2200  123.5300 C.3       6 GLY6        0.0000 
    118 CA        154.7600  110.8900  122.7200 C.3       6 GLY6        0.0000 
    119 CA        157.9000  109.8200  123.2000 C.3       6 GLY6        0.0000 
    120 CA        160.0100  109.6200  123.0400 C.3       6 GLY6        0.0000 
    121 CA        161.0500  108.7500  123.6800 C.3       6 GLY6        0.0000 
    122 CA        153.8400  109.7000  126.0700 C.3       6 GLY6        0.0000 
    123 CA        153.8700  111.2400  124.6100 C.3       6 GLY6        0.0000 
    124 CA        155.9500  109.5000  125.9000 C.3       6 GLY6        0.0000 
    125 CA        153.9100  112.7800  123.1500 C.3       6 GLY6        0.0000 
    126 CA        154.9400  111.9100  123.8000 C.3       6 GLY6        0.0000 
    127 CA        155.9800  111.0400  124.4500 C.3       6 GLY6        0.0000 
    128 CA        159.0900  108.4300  126.3900 C.3       6 GLY6        0.0000 
    129 CA        156.0100  112.5800  122.9900 C.3       6 GLY6        0.0000 
    130 CA        157.0500  111.7100  123.6400 C.3       6 GLY6        0.0000 
    131 CA        151.9800  114.0000  124.4000 C.3       6 GLY6        0.0000 
    132 CA        155.0900  111.3900  126.3400 C.3       6 GLY6        0.0000 
    133 DU        152.2600  107.5000  122.1700 H         7 CUB7        0.0000 
    134 DU        152.4400  108.5200  123.2500 H         7 CUB7        0.0000 
    135 DU        154.7300  109.3500  124.1700 H         7 CUB7        0.0000 
    136 DU        155.8000  110.0200  123.3600 H         7 CUB7        0.0000 
    137 DU        156.8300  109.1500  124.0100 H         7 CUB7        0.0000 
    138 DU        158.9400  108.9500  123.8500 H         7 CUB7        0.0000 
@<TRIPOS>BOND
@<TRIPOS>SUBSTRUCTURE
     1 SER1        1 GROUP   
     2 ALA2       18 GROUP   
     3 ASP3       62 GROUP   
     4 LYS4       88 GROUP   
     5 PHE5       98 GROUP   
     6 GLY6      105 GROUP   
     7 CUB7      133 GROUP   
@<TRIPOS>SET

