#    Name: 6n7n_5_TTP
#    Modification time : Fri May 22 19:33:38 2020

@<TRIPOS>MOLECULE
6n7n_5_TTP
   29    30     1     0     0
SMALL
NO_CHARGES


@<TRIPOS>ATOM
      1 PA        154.4360  108.6210  124.8530 P.3       1 TTP700      0.0000 
      2 O1A       154.4180  107.7270  126.0700 O.co2     1 TTP700      0.0000 
      3 O2A       153.7760  107.9090  123.6960 O.co2     1 TTP700      0.0000 
      4 O3A       153.6180  110.0130  125.1810 O.3       1 TTP700      0.0000 
      5 PB        152.0240  110.3320  125.4560 P.3       1 TTP700      0.0000 
      6 O1B       151.7060  110.0930  126.9130 O.co2     1 TTP700      0.0000 
      7 O2B       151.1750  109.4230  124.5990 O.co2     1 TTP700      0.0000 
      8 O3B       151.7060  111.9030  125.0740 O.3       1 TTP700      0.0000 
      9 PG        150.4470  112.8510  125.3520 P.3       1 TTP700      0.0000 
     10 O1G       150.8950  114.0690  126.1240 O.co2     1 TTP700      0.0000 
     11 O2G       149.4160  112.0970  126.1570 O.co2     1 TTP700      0.0000 
     12 O3G       149.8430  113.2830  124.0370 O.co2     1 TTP700      0.0000 
     13 O5'       155.9960  108.9800  124.4590 O.3       1 TTP700      0.0000 
     14 C5'       156.2630  109.4680  123.1750 C.3       1 TTP700      0.0000 
     15 C4'       157.6900  109.0520  122.7520 C.3       1 TTP700      0.0000 
     16 O4'       158.6480  109.5020  123.7260 O.3       1 TTP700      0.0000 
     17 C3'       157.8160  107.5260  122.7480 C.3       1 TTP700      0.0000 
     18 O3'       157.6380  107.0130  121.3950 O.3       1 TTP700      0.0000 
     19 C2'       159.2550  107.2820  123.2180 C.3       1 TTP700      0.0000 
     20 C1'       159.7770  108.6810  123.5260 C.3       1 TTP700      0.0000 
     21 N1        160.5530  108.6710  124.7770 N.am      1 TTP700      0.0000 
     22 C2        162.0120  108.9590  124.7950 C.2       1 TTP700      0.0000 
     23 O2        162.5330  109.1990  123.7580 O.2       1 TTP700      0.0000 
     24 N3        162.8180  108.9700  125.9370 N.am      1 TTP700      0.0000 
     25 C4        162.1540  108.6880  127.0770 C.2       1 TTP700      0.0000 
     26 O4        162.8160  108.6820  128.1260 O.2       1 TTP700      0.0000 
     27 C5        160.6980  108.3830  127.1950 C.2       1 TTP700      0.0000 
     28 C5M       160.0610  108.0790  128.5490 C.3       1 TTP700      0.0000 
     29 C6        159.9460  108.3860  126.0360 C.2       1 TTP700      0.0000 
@<TRIPOS>BOND
     1    1    2 ar   
     2    1    3 ar   
     3    1    4 1    
     4    1   13 1    
     5    4    5 1    
     6    5    6 ar   
     7    5    7 ar   
     8    5    8 1    
     9    8    9 1    
    10    9   10 ar   
    11    9   11 ar   
    12    9   12 ar   
    13   13   14 1    
    14   14   15 1    
    15   15   16 1    
    16   15   17 1    
    17   16   20 1    
    18   17   18 1    
    19   17   19 1    
    20   19   20 1    
    21   20   21 1    
    22   21   22 1    
    23   21   29 1    
    24   22   23 2    
    25   22   24 1    
    26   24   25 1    
    27   25   26 2    
    28   25   27 1    
    29   27   28 1    
    30   27   29 2    
@<TRIPOS>SUBSTRUCTURE
     1 TTP700      1 GROUP   
@<TRIPOS>SET

