#    Name: 6n7n_3_TTP_CAVITY_N1_4
#    Modification time : Fri May 22 19:33:24 2020

@<TRIPOS>MOLECULE
6n7n_3_TTP_CAVITY_N1_4
  117     0     7     0     0
SMALL
NO_CHARGES


@<TRIPOS>ATOM
      1 OG        152.9700  160.1500  122.2800 O.3       1 SER1        0.0000 
      2 OG        152.0800  160.5000  124.1700 O.3       1 SER1        0.0000 
      3 OG        153.1500  161.1700  123.3600 O.3       1 SER1        0.0000 
      4 OG        154.3200  166.4600  118.1800 O.3       1 SER1        0.0000 
      5 OG        155.3500  165.5900  118.8300 O.3       1 SER1        0.0000 
      6 OG        157.4600  165.3900  118.6600 O.3       1 SER1        0.0000 
      7 OG        155.4200  168.6800  115.9100 O.3       1 SER1        0.0000 
      8 OG        158.5300  166.0700  117.8500 O.3       1 SER1        0.0000 
      9 OG        154.5300  169.0300  117.8100 O.3       1 SER1        0.0000 
     10 OG        155.5700  168.1600  118.4500 O.3       1 SER1        0.0000 
     11 OG        156.6000  167.2900  119.1000 O.3       1 SER1        0.0000 
     12 OG        157.6400  166.4200  119.7500 O.3       1 SER1        0.0000 
     13 OG        155.6000  169.7000  116.9900 O.3       1 SER1        0.0000 
     14 OG        156.6400  168.8300  117.6400 O.3       1 SER1        0.0000 
     15 OG        157.6700  167.9600  118.2900 O.3       1 SER1        0.0000 
     16 OG        158.7100  167.0900  118.9300 O.3       1 SER1        0.0000 
     17 OG        156.6700  170.3700  116.1800 O.3       1 SER1        0.0000 
     18 OG        159.7800  167.7600  118.1200 O.3       1 SER1        0.0000 
     19 OG        157.7400  171.0400  115.3700 O.3       1 SER1        0.0000 
     20 OG        158.9200  169.6500  118.5600 O.3       1 SER1        0.0000 
     21 OG        159.9600  168.7800  119.2100 O.3       1 SER1        0.0000 
     22 O         155.1100  161.4900  120.6600 O.2       2 ALA2        0.0000 
     23 O         155.1400  163.0300  119.2000 O.2       2 ALA2        0.0000 
     24 O         154.1400  165.4400  117.1000 O.2       2 ALA2        0.0000 
     25 O         155.1700  164.5700  117.7400 O.2       2 ALA2        0.0000 
     26 N         161.4900  163.9700  117.2500 N.am      2 ALA2        0.0000 
     27 O         152.1100  162.0400  122.7100 O.2       2 ALA2        0.0000 
     28 O         154.2200  161.8400  122.5500 O.2       2 ALA2        0.0000 
     29 O         155.2900  162.5100  121.7400 O.2       2 ALA2        0.0000 
     30 N         161.6700  165.0000  118.3300 N.am      2 ALA2        0.0000 
     31 O         154.4000  162.8600  123.6300 O.2       2 ALA2        0.0000 
     32 O         155.4700  163.5300  122.8200 O.2       2 ALA2        0.0000 
     33 N         153.4600  168.3500  118.6200 N.am      2 ALA2        0.0000 
     34 N         154.5000  167.4800  119.2600 N.am      2 ALA2        0.0000 
     35 N         155.5300  166.6100  119.9100 N.am      2 ALA2        0.0000 
     36 N         157.6100  164.8700  121.2000 N.am      2 ALA2        0.0000 
     37 N         158.6800  165.5400  120.3900 N.am      2 ALA2        0.0000 
     38 N         159.7500  166.2200  119.5800 N.am      2 ALA2        0.0000 
     39 N         160.7800  165.3500  120.2300 N.am      2 ALA2        0.0000 
     40 N         162.9200  166.6900  118.6100 N.am      2 ALA2        0.0000 
     41 N         153.6400  169.3800  119.7000 N.am      2 ALA2        0.0000 
     42 N         156.7500  166.7600  121.6400 N.am      2 ALA2        0.0000 
     43 N         157.7900  165.8900  122.2900 N.am      2 ALA2        0.0000 
     44 O         153.6700  170.9200  118.2400 O.2       2 ALA2        0.0000 
     45 N         154.7100  170.0500  118.8900 N.am      2 ALA2        0.0000 
     46 N         155.7500  169.1800  119.5400 N.am      2 ALA2        0.0000 
     47 N         157.8200  167.4400  120.8300 N.am      2 ALA2        0.0000 
     48 N         158.8600  166.5700  121.4800 N.am      2 ALA2        0.0000 
     49 O         154.7400  171.5900  117.4300 O.2       2 ALA2        0.0000 
     50 O         155.7800  170.7200  118.0800 O.2       2 ALA2        0.0000 
     51 N         156.8200  169.8500  118.7300 N.am      2 ALA2        0.0000 
     52 N         157.8500  168.9800  119.3700 N.am      2 ALA2        0.0000 
     53 N         158.8900  168.1100  120.0200 N.am      2 ALA2        0.0000 
     54 N         160.9600  166.3700  121.3100 N.am      2 ALA2        0.0000 
     55 O         155.8100  172.2600  116.6200 O.2       2 ALA2        0.0000 
     56 N         163.1000  167.7100  119.6900 N.am      2 ALA2        0.0000 
     57 N         159.0100  166.0500  124.0200 N.am      2 ALA2        0.0000 
     58 N         159.0400  167.5900  122.5600 N.am      2 ALA2        0.0000 
     59 N         160.0800  166.7200  123.2100 N.am      2 ALA2        0.0000 
     60 N         158.0700  171.5400  119.0000 N.am      2 ALA2        0.0000 
     61 OD1       154.0400  160.8200  121.4700 O.co2     3 ASP3        0.0000 
     62 OD1       154.0700  162.3600  120.0100 O.co2     3 ASP3        0.0000 
     63 OD1       153.1800  162.7100  121.9000 O.co2     3 ASP3        0.0000 
     64 OD1       152.1800  165.1200  119.8000 O.co2     3 ASP3        0.0000 
     65 OD1       153.2200  164.2500  120.4500 O.co2     3 ASP3        0.0000 
     66 OD1       154.2500  163.3800  121.0900 O.co2     3 ASP3        0.0000 
     67 OD1       152.2100  166.6600  118.3400 O.co2     3 ASP3        0.0000 
     68 OD1       153.2800  167.3300  117.5300 O.co2     3 ASP3        0.0000 
     69 OD1       152.3000  163.0600  123.8000 O.co2     3 ASP3        0.0000 
     70 OD1       153.3300  162.1900  124.4500 O.co2     3 ASP3        0.0000 
     71 OD1       153.3600  163.7300  122.9900 O.co2     3 ASP3        0.0000 
     72 OD1       161.8500  166.0200  119.4200 O.co2     3 ASP3        0.0000 
     73 OD1       153.5500  164.7500  124.0700 O.co2     3 ASP3        0.0000 
     74 OD1       154.5800  163.8800  124.7200 O.co2     3 ASP3        0.0000 
     75 OD1       156.8500  171.3900  117.2700 O.co2     3 ASP3        0.0000 
     76 OD1       157.8800  170.5200  117.9100 O.co2     3 ASP3        0.0000 
     77 OD1       162.0300  167.0400  120.5000 O.co2     3 ASP3        0.0000 
     78 OD1       160.1700  171.3400  118.8300 O.co2     3 ASP3        0.0000 
     79 NZ        151.1400  165.9900  119.1500 N.4       4 LYS4        0.0000 
     80 NZ        154.5600  170.5700  116.3500 N.4       4 LYS4        0.0000 
     81 CZ        159.6000  166.7400  117.0400 C.ar      5 PHE5        0.0000 
     82 CZ        160.6300  165.8700  117.6900 C.ar      5 PHE5        0.0000 
     83 CZ        162.7400  165.6700  117.5200 C.ar      5 PHE5        0.0000 
     84 CZ        160.8100  166.8900  118.7700 C.ar      5 PHE5        0.0000 
     85 CZ        161.8800  167.5600  117.9600 C.ar      5 PHE5        0.0000 
     86 CZ        161.0300  169.4500  118.4000 C.ar      5 PHE5        0.0000 
     87 CZ        162.0600  168.5800  119.0400 C.ar      5 PHE5        0.0000 
     88 CA        154.1000  163.9000  118.5500 C.3       6 GLY6        0.0000 
     89 CA        160.4500  164.8400  116.6000 C.3       6 GLY6        0.0000 
     90 CA        154.1900  160.3000  124.0100 C.3       6 GLY6        0.0000 
     91 CA        153.2500  165.7900  118.9900 C.3       6 GLY6        0.0000 
     92 CA        156.3600  163.1800  120.9300 C.3       6 GLY6        0.0000 
     93 CA        156.3900  164.7200  119.4700 C.3       6 GLY6        0.0000 
     94 CA        159.5600  165.1900  118.5000 C.3       6 GLY6        0.0000 
     95 CA        160.6000  164.3200  119.1400 C.3       6 GLY6        0.0000 
     96 CA        151.3200  167.0100  120.2400 C.3       6 GLY6        0.0000 
     97 CA        152.3600  166.1400  120.8800 C.3       6 GLY6        0.0000 
     98 CA        153.4000  165.2700  121.5300 C.3       6 GLY6        0.0000 
     99 CA        154.4300  164.4000  122.1800 C.3       6 GLY6        0.0000 
    100 CA        152.3900  167.6800  119.4300 C.3       6 GLY6        0.0000 
    101 CA        153.4300  166.8100  120.0700 C.3       6 GLY6        0.0000 
    102 CA        154.4700  165.9400  120.7200 C.3       6 GLY6        0.0000 
    103 CA        156.5400  164.2000  122.0100 C.3       6 GLY6        0.0000 
    104 CA        154.6100  165.4200  123.2600 C.3       6 GLY6        0.0000 
    105 CA        155.6500  164.5500  123.9100 C.3       6 GLY6        0.0000 
    106 CA        155.6800  166.0900  122.4500 C.3       6 GLY6        0.0000 
    107 CA        156.7200  165.2200  123.1000 C.3       6 GLY6        0.0000 
    108 CA        159.9300  167.2400  120.6700 C.3       6 GLY6        0.0000 
    109 CA        161.0000  167.9100  119.8500 C.3       6 GLY6        0.0000 
    110 CA        161.1400  167.3900  122.4000 C.3       6 GLY6        0.0000 
    111 CA        159.1000  170.6700  119.6500 C.3       6 GLY6        0.0000 
    112 CA        160.1400  169.8000  120.2900 C.3       6 GLY6        0.0000 
    113 CA        162.2100  168.0600  121.5900 C.3       6 GLY6        0.0000 
    114 DU        154.2800  164.9200  119.6400 H         7 CUB7        0.0000 
    115 DU        155.3200  164.0500  120.2800 H         7 CUB7        0.0000 
    116 DU        155.5000  165.0700  121.3700 H         7 CUB7        0.0000 
    117 DU        156.5700  165.7400  120.5600 H         7 CUB7        0.0000 
@<TRIPOS>BOND
@<TRIPOS>SUBSTRUCTURE
     1 SER1        1 GROUP   
     2 ALA2       22 GROUP   
     3 ASP3       61 GROUP   
     4 LYS4       79 GROUP   
     5 PHE5       81 GROUP   
     6 GLY6       88 GROUP   
     7 CUB7      114 GROUP   
@<TRIPOS>SET

