#    Name: 6n7n_1_TTP
#    Modification time : Fri May 22 19:33:07 2020

@<TRIPOS>MOLECULE
6n7n_1_TTP
   29    30     1     0     0
SMALL
NO_CHARGES


@<TRIPOS>ATOM
      1 PA        160.0240  145.1790  172.3820 P.3       1 TTP700      0.0000 
      2 O1A       160.3760  146.6400  172.2780 O.co2     1 TTP700      0.0000 
      3 O2A       158.5930  145.0220  172.8310 O.co2     1 TTP700      0.0000 
      4 O3A       160.2230  144.4790  170.9090 O.3       1 TTP700      0.0000 
      5 PB        160.1460  145.1070  169.3950 P.3       1 TTP700      0.0000 
      6 O1B       158.7960  145.7510  169.2130 O.co2     1 TTP700      0.0000 
      7 O2B       161.2570  146.1090  169.2210 O.co2     1 TTP700      0.0000 
      8 O3B       160.3050  143.9170  168.2810 O.3       1 TTP700      0.0000 
      9 PG        159.2610  142.8160  167.8090 P.3       1 TTP700      0.0000 
     10 O1G       157.8700  143.3830  167.9570 O.co2     1 TTP700      0.0000 
     11 O2G       159.3990  141.5940  168.6780 O.co2     1 TTP700      0.0000 
     12 O3G       159.5450  142.4450  166.3760 O.co2     1 TTP700      0.0000 
     13 O5'       161.0090  144.4550  173.4790 O.3       1 TTP700      0.0000 
     14 C5'       162.3690  144.3610  173.1880 C.3       1 TTP700      0.0000 
     15 C4'       163.1360  144.1320  174.5040 C.3       1 TTP700      0.0000 
     16 O4'       164.4920  144.5430  174.3010 O.3       1 TTP700      0.0000 
     17 C3'       162.6060  145.0760  175.5730 C.3       1 TTP700      0.0000 
     18 O3'       161.5910  144.4100  176.3800 O.3       1 TTP700      0.0000 
     19 C2'       163.8350  145.3590  176.4330 C.3       1 TTP700      0.0000 
     20 C1'       165.0150  145.0800  175.4990 C.3       1 TTP700      0.0000 
     21 N1        165.7340  146.3090  175.1410 N.am      1 TTP700      0.0000 
     22 C2        167.2000  146.3900  175.3150 C.2       1 TTP700      0.0000 
     23 O2        167.7340  145.4330  175.7540 O.2       1 TTP700      0.0000 
     24 N3        167.9910  147.4960  175.0070 N.am      1 TTP700      0.0000 
     25 C4        167.3000  148.5380  174.5120 C.2       1 TTP700      0.0000 
     26 O4        167.9520  149.5480  174.2260 O.2       1 TTP700      0.0000 
     27 C5        165.8290  148.5850  174.2840 C.2       1 TTP700      0.0000 
     28 C5M       165.1520  149.8260  173.7150 C.3       1 TTP700      0.0000 
     29 C6        165.0960  147.4640  174.6040 C.2       1 TTP700      0.0000 
@<TRIPOS>BOND
     1    1    2 ar   
     2    1    3 ar   
     3    1    4 1    
     4    1   13 1    
     5    4    5 1    
     6    5    6 ar   
     7    5    7 ar   
     8    5    8 1    
     9    8    9 1    
    10    9   10 ar   
    11    9   11 ar   
    12    9   12 ar   
    13   13   14 1    
    14   14   15 1    
    15   15   16 1    
    16   15   17 1    
    17   16   20 1    
    18   17   18 1    
    19   17   19 1    
    20   19   20 1    
    21   20   21 1    
    22   21   22 1    
    23   21   29 1    
    24   22   23 2    
    25   22   24 1    
    26   24   25 1    
    27   25   26 2    
    28   25   27 1    
    29   27   28 1    
    30   27   29 2    
@<TRIPOS>SUBSTRUCTURE
     1 TTP700      1 GROUP   
@<TRIPOS>SET

