#    Name: 6n7n_4_TTP
#    Modification time : Fri May 22 19:33:30 2020

@<TRIPOS>MOLECULE
6n7n_4_TTP
   29    30     1     0     0
SMALL
NO_CHARGES


@<TRIPOS>ATOM
      1 PA        156.1340  135.8650  106.8460 P.3       1 TTP700      0.0000 
      2 O1A       156.7370  134.4920  106.9530 O.co2     1 TTP700      0.0000 
      3 O2A       154.8940  135.8200  105.9920 O.co2     1 TTP700      0.0000 
      4 O3A       155.7320  136.3560  108.3550 O.3       1 TTP700      0.0000 
      5 PB        154.8440  135.5700  109.4850 P.3       1 TTP700      0.0000 
      6 O1B       155.7740  134.8300  110.4090 O.co2     1 TTP700      0.0000 
      7 O2B       153.9280  134.6100  108.7740 O.co2     1 TTP700      0.0000 
      8 O3B       153.9030  136.6070  110.3360 O.3       1 TTP700      0.0000 
      9 PG        152.3190  136.6080  110.5070 P.3       1 TTP700      0.0000 
     10 O1G       151.9530  136.1390  111.8910 O.co2     1 TTP700      0.0000 
     11 O2G       151.7350  135.6650  109.4840 O.co2     1 TTP700      0.0000 
     12 O3G       151.7870  138.0010  110.2930 O.co2     1 TTP700      0.0000 
     13 O5'       157.2450  136.8520  106.1570 O.3       1 TTP700      0.0000 
     14 C5'       158.1540  136.2110  105.3250 C.3       1 TTP700      0.0000 
     15 C4'       159.4190  137.0660  105.1890 C.3       1 TTP700      0.0000 
     16 O4'       160.4410  136.5350  106.0350 O.3       1 TTP700      0.0000 
     17 C3'       159.9750  136.8850  103.7840 C.3       1 TTP700      0.0000 
     18 O3'       159.4830  137.9600  102.9340 O.3       1 TTP700      0.0000 
     19 C2'       161.4850  137.0090  103.9810 C.3       1 TTP700      0.0000 
     20 C1'       161.6490  137.0100  105.4930 C.3       1 TTP700      0.0000 
     21 N1        162.7010  136.0730  105.8930 N.am      1 TTP700      0.0000 
     22 C2        164.1370  136.4310  105.8270 C.2       1 TTP700      0.0000 
     23 O2        164.4140  137.5080  105.4320 O.2       1 TTP700      0.0000 
     24 N3        165.1900  135.6010  106.1910 N.am      1 TTP700      0.0000 
     25 C4        164.7990  134.3930  106.6320 C.2       1 TTP700      0.0000 
     26 O4        165.6950  133.6110  106.9710 O.2       1 TTP700      0.0000 
     27 C5        163.3930  133.9120  106.7490 C.2       1 TTP700      0.0000 
     28 C5M       163.0610  132.5140  107.2580 C.3       1 TTP700      0.0000 
     29 C6        162.3890  134.7740  106.3730 C.2       1 TTP700      0.0000 
@<TRIPOS>BOND
     1    1   13 1    
     2    1    2 ar   
     3    1    3 ar   
     4    1    4 1    
     5    4    5 1    
     6    5    8 1    
     7    5    6 ar   
     8    5    7 ar   
     9    8    9 1    
    10    9   10 ar   
    11    9   11 ar   
    12    9   12 ar   
    13   13   14 1    
    14   14   15 1    
    15   15   16 1    
    16   15   17 1    
    17   16   20 1    
    18   17   18 1    
    19   17   19 1    
    20   19   20 1    
    21   20   21 1    
    22   21   22 1    
    23   21   29 1    
    24   22   23 2    
    25   22   24 1    
    26   24   25 1    
    27   25   26 2    
    28   25   27 1    
    29   27   28 1    
    30   27   29 2    
@<TRIPOS>SUBSTRUCTURE
     1 TTP700      1 GROUP   
@<TRIPOS>SET

