#    Name: 6n7n_2_TTP
#    Modification time : Fri May 22 19:33:15 2020

@<TRIPOS>MOLECULE
6n7n_2_TTP
   29    30     1     0     0
SMALL
NO_CHARGES


@<TRIPOS>ATOM
      1 PA        154.9700  169.3620  151.8570 P.3       1 TTP700      0.0000 
      2 O1A       155.0510  170.4280  150.7900 O.co2     1 TTP700      0.0000 
      3 O2A       153.5390  169.2180  152.3180 O.co2     1 TTP700      0.0000 
      4 O3A       155.4950  167.9260  151.2400 O.3       1 TTP700      0.0000 
      5 PB        155.3220  167.2170  149.7630 P.3       1 TTP700      0.0000 
      6 O1B       154.1110  167.7900  149.0680 O.co2     1 TTP700      0.0000 
      7 O2B       156.5540  167.4840  148.9300 O.co2     1 TTP700      0.0000 
      8 O3B       155.1300  165.5910  149.9530 O.3       1 TTP700      0.0000 
      9 PG        154.1460  164.7150  150.8600 P.3       1 TTP700      0.0000 
     10 O1G       152.7630  165.3220  150.8370 O.co2     1 TTP700      0.0000 
     11 O2G       154.6590  164.6880  152.2800 O.co2     1 TTP700      0.0000 
     12 O3G       154.0860  163.3060  150.3210 O.co2     1 TTP700      0.0000 
     13 O5'       155.9190  169.7880  153.1350 O.3       1 TTP700      0.0000 
     14 C5'       157.2680  170.0750  152.9000 C.3       1 TTP700      0.0000 
     15 C4'       157.8660  170.7720  154.1420 C.3       1 TTP700      0.0000 
     16 O4'       159.3160  170.7740  154.0680 O.3       1 TTP700      0.0000 
     17 C3'       157.4240  172.2390  154.1840 C.3       1 TTP700      0.0000 
     18 O3'       157.2340  172.6650  155.5660 O.3       1 TTP700      0.0000 
     19 C2'       158.6100  172.9660  153.5720 C.3       1 TTP700      0.0000 
     20 C1'       159.7870  172.1110  154.0080 C.3       1 TTP700      0.0000 
     21 N1        160.8580  172.1690  153.0010 N.am      1 TTP700      0.0000 
     22 C2        162.2940  172.2090  153.3870 C.2       1 TTP700      0.0000 
     23 O2        162.5470  172.1930  154.5450 O.2       1 TTP700      0.0000 
     24 N3        163.3690  172.2650  152.4950 N.am      1 TTP700      0.0000 
     25 C4        163.0000  172.2800  151.1970 C.2       1 TTP700      0.0000 
     26 O4        163.9100  172.3290  150.3550 O.2       1 TTP700      0.0000 
     27 C5        161.6010  172.2450  150.6780 C.2       1 TTP700      0.0000 
     28 C5M       161.3140  172.2670  149.1790 C.3       1 TTP700      0.0000 
     29 C6        160.5760  172.1900  151.6020 C.2       1 TTP700      0.0000 
@<TRIPOS>BOND
     1    1    2 ar   
     2    1    3 ar   
     3    1    4 1    
     4    1   13 1    
     5    4    5 1    
     6    5    6 ar   
     7    5    7 ar   
     8    5    8 1    
     9    8    9 1    
    10    9   10 ar   
    11    9   11 ar   
    12    9   12 ar   
    13   13   14 1    
    14   14   15 1    
    15   15   16 1    
    16   15   17 1    
    17   16   20 1    
    18   17   18 1    
    19   17   19 1    
    20   19   20 1    
    21   20   21 1    
    22   21   22 1    
    23   21   29 1    
    24   22   23 2    
    25   22   24 1    
    26   24   25 1    
    27   25   26 2    
    28   25   27 1    
    29   27   28 1    
    30   27   29 2    
@<TRIPOS>SUBSTRUCTURE
     1 TTP700      1 GROUP   
@<TRIPOS>SET

