#    Name: 6n7n_2_TTP_CAVITY_N1_8
#    Modification time : Fri May 22 19:33:16 2020

@<TRIPOS>MOLECULE
6n7n_2_TTP_CAVITY_N1_8
   76     0     7     0     0
SMALL
NO_CHARGES


@<TRIPOS>ATOM
      1 OG        156.4000  171.3200  152.7000 O.3       1 SER1        0.0000 
      2 OG        158.5000  171.1200  152.5300 O.3       1 SER1        0.0000 
      3 OG        158.5300  172.6600  151.0800 O.3       1 SER1        0.0000 
      4 OG        159.5700  171.7900  151.7200 O.3       1 SER1        0.0000 
      5 OG        156.5800  172.3400  153.7800 O.3       1 SER1        0.0000 
      6 OG        157.6500  173.0100  152.9700 O.3       1 SER1        0.0000 
      7 OG        155.7200  174.2300  154.2200 O.3       1 SER1        0.0000 
      8 OG        157.8300  174.0400  154.0600 O.3       1 SER1        0.0000 
      9 N         161.3500  171.0900  147.9300 N.am      2 ALA2        0.0000 
     10 N         162.3800  170.2200  148.5800 N.am      2 ALA2        0.0000 
     11 O         158.3200  170.1000  151.4500 O.2       2 ALA2        0.0000 
     12 O         159.3900  170.7700  150.6400 O.2       2 ALA2        0.0000 
     13 N         161.5300  172.1200  149.0200 N.am      2 ALA2        0.0000 
     14 N         163.6300  171.9200  148.8500 N.am      2 ALA2        0.0000 
     15 N         155.3300  170.6500  153.5100 N.am      2 ALA2        0.0000 
     16 N         157.4300  170.4500  153.3400 N.am      2 ALA2        0.0000 
     17 N         158.4700  169.5800  153.9900 N.am      2 ALA2        0.0000 
     18 N         159.5400  170.2500  153.1800 N.am      2 ALA2        0.0000 
     19 N         163.8100  172.9400  149.9400 N.am      2 ALA2        0.0000 
     20 N         155.5100  171.6700  154.5900 N.am      2 ALA2        0.0000 
     21 N         157.6100  171.4700  154.4300 N.am      2 ALA2        0.0000 
     22 N         162.9300  173.2900  151.8300 N.am      2 ALA2        0.0000 
     23 N         155.6900  172.6900  155.6800 N.am      2 ALA2        0.0000 
     24 N         163.0700  172.7700  154.3700 N.am      2 ALA2        0.0000 
     25 N         164.1100  171.9000  155.0200 N.am      2 ALA2        0.0000 
     26 N         165.1500  171.0300  155.6700 N.am      2 ALA2        0.0000 
     27 N         166.1800  170.1600  156.3100 N.am      2 ALA2        0.0000 
     28 N         166.2200  171.7000  154.8600 N.am      2 ALA2        0.0000 
     29 N         161.1500  173.9900  155.6200 N.am      2 ALA2        0.0000 
     30 N         162.1900  173.1200  156.2700 N.am      2 ALA2        0.0000 
     31 N         166.4000  172.7200  155.9400 N.am      2 ALA2        0.0000 
     32 OD1       162.5600  171.2500  149.6700 O.co2     3 ASP3        0.0000 
     33 OD1       160.6100  170.9200  152.3700 O.co2     3 ASP3        0.0000 
     34 OD1       161.6800  171.6000  151.5600 O.co2     3 ASP3        0.0000 
     35 OD1       162.7400  172.2700  150.7500 O.co2     3 ASP3        0.0000 
     36 OD1       163.7800  171.4000  151.4000 O.co2     3 ASP3        0.0000 
     37 OD1       161.8200  171.0800  154.1000 O.co2     3 ASP3        0.0000 
     38 OD1       162.8900  171.7500  153.2900 O.co2     3 ASP3        0.0000 
     39 OD1       154.6500  173.5600  155.0300 O.co2     3 ASP3        0.0000 
     40 OD1       156.7600  173.3600  154.8700 O.co2     3 ASP3        0.0000 
     41 OD1       157.7900  172.4900  155.5100 O.co2     3 ASP3        0.0000 
     42 OD1       158.8600  173.1700  154.7000 O.co2     3 ASP3        0.0000 
     43 OD1       165.3300  172.0500  156.7500 O.co2     3 ASP3        0.0000 
     44 NZ        166.3700  171.1800  157.4000 N.4       4 LYS4        0.0000 
     45 NZ        167.4000  170.3100  158.0400 N.4       4 LYS4        0.0000 
     46 CZ        159.6000  173.3400  150.2700 C.ar      5 PHE5        0.0000 
     47 CZ        160.6700  174.0100  149.4600 C.ar      5 PHE5        0.0000 
     48 CZ        161.7100  173.1400  150.1000 C.ar      5 PHE5        0.0000 
     49 CZ        158.7100  173.6900  152.1600 C.ar      5 PHE5        0.0000 
     50 CZ        159.7500  172.8200  152.8100 C.ar      5 PHE5        0.0000 
     51 CZ        160.8200  173.4900  152.0000 C.ar      5 PHE5        0.0000 
     52 CZ        161.8600  172.6200  152.6400 C.ar      5 PHE5        0.0000 
     53 CZ        160.9700  172.9700  154.5400 C.ar      5 PHE5        0.0000 
     54 CZ        162.0400  173.6400  153.7300 C.ar      5 PHE5        0.0000 
     55 CZ        162.2200  174.6600  154.8100 C.ar      5 PHE5        0.0000 
     56 CA        160.3100  171.9600  147.2900 C.3       6 GLY6        0.0000 
     57 CA        161.3800  172.6400  146.4800 C.3       6 GLY6        0.0000 
     58 CA        162.4100  171.7700  147.1200 C.3       6 GLY6        0.0000 
     59 CA        159.4200  172.3100  149.1800 C.3       6 GLY6        0.0000 
     60 CA        160.4600  171.4400  149.8300 C.3       6 GLY6        0.0000 
     61 CA        159.4500  173.8600  147.7300 C.3       6 GLY6        0.0000 
     62 CA        160.4900  172.9900  148.3700 C.3       6 GLY6        0.0000 
     63 CA        161.5600  173.6600  147.5600 C.3       6 GLY6        0.0000 
     64 CA        162.6000  172.7900  148.2100 C.3       6 GLY6        0.0000 
     65 CA        162.7800  173.8100  149.2900 C.3       6 GLY6        0.0000 
     66 CA        158.6500  170.6000  155.0800 C.3       6 GLY6        0.0000 
     67 CA        159.7200  171.2700  154.2600 C.3       6 GLY6        0.0000 
     68 CA        162.0100  172.1000  155.1800 C.3       6 GLY6        0.0000 
     69 CA        167.2500  170.8300  155.5000 C.3       6 GLY6        0.0000 
     70 CA        163.2500  173.7900  155.4600 C.3       6 GLY6        0.0000 
     71 CA        164.2900  172.9200  156.1000 C.3       6 GLY6        0.0000 
     72 CA        167.4300  171.8500  156.5900 C.3       6 GLY6        0.0000 
     73 CA        168.4700  170.9800  157.2300 C.3       6 GLY6        0.0000 
     74 DU        160.6400  172.4700  150.9100 H         7 CUB7        0.0000 
     75 DU        158.6800  172.1400  153.6200 H         7 CUB7        0.0000 
     76 DU        160.7900  171.9500  153.4500 H         7 CUB7        0.0000 
@<TRIPOS>BOND
@<TRIPOS>SUBSTRUCTURE
     1 SER1        1 GROUP   
     2 ALA2        9 GROUP   
     3 ASP3       32 GROUP   
     4 LYS4       44 GROUP   
     5 PHE5       46 GROUP   
     6 GLY6       56 GROUP   
     7 CUB7       74 GROUP   
@<TRIPOS>SET

