#    Name: 6n7n_4_TTP_CAVITY_N1_8
#    Modification time : Fri May 22 19:33:32 2020

@<TRIPOS>MOLECULE
6n7n_4_TTP_CAVITY_N1_8
  132     0     7     0     0
SMALL
NO_CHARGES


@<TRIPOS>ATOM
      1 OG        156.4600  134.1600  102.5900 O.3       1 SER1        0.0000 
      2 OG        157.5300  134.8300  101.7800 O.3       1 SER1        0.0000 
      3 OG        158.6000  135.5000  100.9700 O.3       1 SER1        0.0000 
      4 OG        155.5700  134.5100  104.4800 O.3       1 SER1        0.0000 
      5 OG        156.6400  135.1800  103.6700 O.3       1 SER1        0.0000 
      6 OG        157.7100  135.8500  102.8600 O.3       1 SER1        0.0000 
      7 OG        158.7800  136.5200  102.0500 O.3       1 SER1        0.0000 
      8 OG        159.8200  135.6500  102.7000 O.3       1 SER1        0.0000 
      9 OG        155.7500  135.5300  105.5700 O.3       1 SER1        0.0000 
     10 OG        156.7900  134.6600  106.2100 O.3       1 SER1        0.0000 
     11 OG        156.8200  136.2000  104.7500 O.3       1 SER1        0.0000 
     12 OG        157.8600  135.3300  105.4000 O.3       1 SER1        0.0000 
     13 OG        158.9000  134.4600  106.0500 O.3       1 SER1        0.0000 
     14 OG        158.9300  136.0000  104.5900 O.3       1 SER1        0.0000 
     15 OG        159.9700  135.1300  105.2400 O.3       1 SER1        0.0000 
     16 OG        160.0000  136.6700  103.7800 O.3       1 SER1        0.0000 
     17 OG        161.0300  135.8000  104.4300 O.3       1 SER1        0.0000 
     18 OG        162.1000  136.4700  103.6200 O.3       1 SER1        0.0000 
     19 OG        152.0200  135.9100  112.0600 O.3       1 SER1        0.0000 
     20 OG        153.2700  137.6000  112.3300 O.3       1 SER1        0.0000 
     21 O         156.5300  137.2400   99.6700 O.2       2 ALA2        0.0000 
     22 O         157.5900  137.9100   98.8600 O.2       2 ALA2        0.0000 
     23 N         154.5700  136.9200  102.3800 N.am      2 ALA2        0.0000 
     24 N         155.6100  136.0500  103.0200 N.am      2 ALA2        0.0000 
     25 N         155.6400  137.5900  101.5700 N.am      2 ALA2        0.0000 
     26 N         156.6700  136.7200  102.2100 N.am      2 ALA2        0.0000 
     27 N         156.7100  138.2600  100.7600 N.am      2 ALA2        0.0000 
     28 N         157.7400  137.3900  101.4000 N.am      2 ALA2        0.0000 
     29 O         152.6100  136.6000  105.0800 O.2       2 ALA2        0.0000 
     30 O         155.7200  133.9900  107.0200 O.2       2 ALA2        0.0000 
     31 N         153.7100  138.8100  102.8100 N.am      2 ALA2        0.0000 
     32 N         154.7500  137.9400  103.4600 N.am      2 ALA2        0.0000 
     33 N         155.7900  137.0700  104.1100 N.am      2 ALA2        0.0000 
     34 N         157.8900  136.8700  103.9400 N.am      2 ALA2        0.0000 
     35 N         163.0800  132.5200  107.1800 N.am      2 ALA2        0.0000 
     36 N         158.9600  137.5400  103.1300 N.am      2 ALA2        0.0000 
     37 N         160.0300  138.2100  102.3200 N.am      2 ALA2        0.0000 
     38 N         161.0700  137.3400  102.9700 N.am      2 ALA2        0.0000 
     39 O         155.9000  135.0100  108.1100 O.2       2 ALA2        0.0000 
     40 O         156.9400  134.1400  108.7500 O.2       2 ALA2        0.0000 
     41 N         155.9700  138.0900  105.1900 N.am      2 ALA2        0.0000 
     42 N         160.1500  136.1500  106.3200 N.am      2 ALA2        0.0000 
     43 N         162.2200  134.4100  107.6100 N.am      2 ALA2        0.0000 
     44 N         163.2600  133.5400  108.2600 N.am      2 ALA2        0.0000 
     45 N         159.1400  138.5600  104.2200 N.am      2 ALA2        0.0000 
     46 N         164.3600  135.7500  105.9900 N.am      2 ALA2        0.0000 
     47 N         165.3900  134.8800  106.6400 N.am      2 ALA2        0.0000 
     48 N         164.3900  137.2900  104.5400 N.am      2 ALA2        0.0000 
     49 O         151.8700  136.4300  109.5200 O.2       2 ALA2        0.0000 
     50 O         156.0800  136.0300  109.1900 O.2       2 ALA2        0.0000 
     51 N         159.2900  138.0400  106.7600 N.am      2 ALA2        0.0000 
     52 N         160.3300  137.1700  107.4100 N.am      2 ALA2        0.0000 
     53 N         163.5000  137.6400  106.4300 N.am      2 ALA2        0.0000 
     54 N         150.9800  136.7800  111.4100 N.am      2 ALA2        0.0000 
     55 N         152.0500  137.4500  110.6000 N.am      2 ALA2        0.0000 
     56 O         154.1600  137.2500  110.4400 O.2       2 ALA2        0.0000 
     57 O         155.2300  137.9200  109.6300 O.2       2 ALA2        0.0000 
     58 N         159.4700  139.0600  107.8400 N.am      2 ALA2        0.0000 
     59 N         152.2300  138.4700  111.6900 N.am      2 ALA2        0.0000 
     60 O         154.3400  138.2700  111.5200 O.2       2 ALA2        0.0000 
     61 OD1       154.2400  136.4200   98.7500 O.co2     3 ASP3        0.0000 
     62 OD1       155.3100  137.0900   97.9400 O.co2     3 ASP3        0.0000 
     63 OD1       153.3200  135.2200  102.1000 O.co2     3 ASP3        0.0000 
     64 OD1       154.3900  135.9000  101.2900 O.co2     3 ASP3        0.0000 
     65 OD1       155.4200  135.0300  101.9400 O.co2     3 ASP3        0.0000 
     66 OD1       154.4200  137.4400   99.8400 O.co2     3 ASP3        0.0000 
     67 OD1       155.4900  138.1100   99.0300 O.co2     3 ASP3        0.0000 
     68 OD1       157.5600  136.3700  100.3200 O.co2     3 ASP3        0.0000 
     69 OD1       154.5400  135.3800  103.8300 O.co2     3 ASP3        0.0000 
     70 OD1       154.6000  138.4600  100.9200 O.co2     3 ASP3        0.0000 
     71 OD1       158.8100  138.0600  100.5900 O.co2     3 ASP3        0.0000 
     72 OD1       153.6500  135.7300  105.7300 O.co2     3 ASP3        0.0000 
     73 OD1       152.6400  138.1400  103.6300 O.co2     3 ASP3        0.0000 
     74 OD1       153.6800  137.2700  104.2700 O.co2     3 ASP3        0.0000 
     75 OD1       154.8300  134.3400  108.9200 O.co2     3 ASP3        0.0000 
     76 OD1       154.8700  135.8800  107.4600 O.co2     3 ASP3        0.0000 
     77 OD1       163.2900  135.0800  106.8000 O.co2     3 ASP3        0.0000 
     78 OD1       150.8000  135.7500  110.3300 O.co2     3 ASP3        0.0000 
     79 OD1       152.9100  135.5600  110.1600 O.co2     3 ASP3        0.0000 
     80 OD1       153.9800  136.2300  109.3500 O.co2     3 ASP3        0.0000 
     81 OD1       155.0100  135.3600  110.0000 O.co2     3 ASP3        0.0000 
     82 OD1       162.4300  136.9700  107.2400 O.co2     3 ASP3        0.0000 
     83 OD1       164.5400  136.7700  107.0800 O.co2     3 ASP3        0.0000 
     84 OD1       151.0200  138.3200  109.9600 O.co2     3 ASP3        0.0000 
     85 OD1       153.0900  136.5800  111.2500 O.co2     3 ASP3        0.0000 
     86 OD1       154.1300  135.7100  111.9000 O.co2     3 ASP3        0.0000 
     87 OD1       153.3000  139.1400  110.8800 O.co2     3 ASP3        0.0000 
     88 NZ        156.3400  136.2200   98.5900 N.4       4 LYS4        0.0000 
     89 NZ        157.3800  135.3500   99.2400 N.4       4 LYS4        0.0000 
     90 NZ        153.3500  136.7700  100.6500 N.4       4 LYS4        0.0000 
     91 NZ        155.4600  136.5700  100.4800 N.4       4 LYS4        0.0000 
     92 NZ        156.4900  135.7000  101.1300 N.4       4 LYS4        0.0000 
     93 NZ        152.4300  135.5700  104.0000 N.4       4 LYS4        0.0000 
     94 NZ        153.5000  136.2500  103.1900 N.4       4 LYS4        0.0000 
     95 NZ        152.4900  138.6600  101.0800 N.4       4 LYS4        0.0000 
     96 NZ        153.5300  137.7900  101.7300 N.4       4 LYS4        0.0000 
     97 CZ        162.0700  134.9300  105.0700 C.ar      5 PHE5        0.0000 
     98 CZ        163.1100  134.0600  105.7200 C.ar      5 PHE5        0.0000 
     99 CZ        164.1400  133.1900  106.3700 C.ar      5 PHE5        0.0000 
    100 CZ        165.1800  132.3200  107.0100 C.ar      5 PHE5        0.0000 
    101 CZ        163.1400  135.6000  104.2600 C.ar      5 PHE5        0.0000 
    102 CA        153.4700  134.7000  104.6500 C.3       6 GLY6        0.0000 
    103 CA        154.6900  134.8600  106.3800 C.3       6 GLY6        0.0000 
    104 CA        154.7200  136.4000  104.9200 C.3       6 GLY6        0.0000 
    105 CA        161.0000  134.2600  105.8800 C.3       6 GLY6        0.0000 
    106 CA        162.0400  133.3900  106.5300 C.3       6 GLY6        0.0000 
    107 CA        153.8300  136.7500  106.8100 C.3       6 GLY6        0.0000 
    108 CA        155.9300  136.5500  106.6500 C.3       6 GLY6        0.0000 
    109 CA        156.9700  135.6800  107.3000 C.3       6 GLY6        0.0000 
    110 CA        157.0000  137.2200  105.8400 C.3       6 GLY6        0.0000 
    111 CA        159.0800  135.4800  107.1300 C.3       6 GLY6        0.0000 
    112 CA        161.1800  135.2800  106.9700 C.3       6 GLY6        0.0000 
    113 CA        160.1800  137.6900  104.8600 C.3       6 GLY6        0.0000 
    114 CA        161.2100  136.8200  105.5100 C.3       6 GLY6        0.0000 
    115 CA        164.3300  134.2100  107.4500 C.3       6 GLY6        0.0000 
    116 CA        165.3600  133.3400  108.1000 C.3       6 GLY6        0.0000 
    117 CA        161.2500  138.3600  104.0500 C.3       6 GLY6        0.0000 
    118 CA        162.2800  137.4900  104.7000 C.3       6 GLY6        0.0000 
    119 CA        163.3500  138.1600  103.8900 C.3       6 GLY6        0.0000 
    120 CA        152.9400  137.1000  108.7100 C.3       6 GLY6        0.0000 
    121 CA        155.0500  136.9000  108.5400 C.3       6 GLY6        0.0000 
    122 CA        157.1500  136.7000  108.3800 C.3       6 GLY6        0.0000 
    123 CA        157.1800  138.2400  106.9200 C.3       6 GLY6        0.0000 
    124 CA        158.2200  137.3700  107.5700 C.3       6 GLY6        0.0000 
    125 CA        158.2500  138.9100  106.1100 C.3       6 GLY6        0.0000 
    126 CA        160.3600  138.7100  105.9500 C.3       6 GLY6        0.0000 
    127 CA        161.4000  137.8400  106.5900 C.3       6 GLY6        0.0000 
    128 CA        153.1200  138.1200  109.7900 C.3       6 GLY6        0.0000 
    129 DU        158.0400  136.3500  106.4900 H         7 CUB7        0.0000 
    130 DU        159.1100  137.0200  105.6700 H         7 CUB7        0.0000 
    131 DU        162.2500  135.9500  106.1600 H         7 CUB7        0.0000 
    132 DU        163.3200  136.6200  105.3500 H         7 CUB7        0.0000 
@<TRIPOS>BOND
@<TRIPOS>SUBSTRUCTURE
     1 SER1        1 GROUP   
     2 ALA2       21 GROUP   
     3 ASP3       61 GROUP   
     4 LYS4       88 GROUP   
     5 PHE5       97 GROUP   
     6 GLY6      102 GROUP   
     7 CUB7      129 GROUP   
@<TRIPOS>SET

