#    Name: 6tz8_1_FK5
#    Modification time : Fri May 22 19:27:14 2020

@<TRIPOS>MOLECULE
6tz8_1_FK5
   57    60     1     0     0
SMALL
NO_CHARGES


@<TRIPOS>ATOM
      1 C1        -17.2670    9.6800   -6.7720 C.2       1 FK5200      0.0000 
      2 C2        -15.8140    9.3300   -6.5940 C.3       1 FK5200      0.0000 
      3 C3        -14.9830   10.5850   -6.8270 C.3       1 FK5200      0.0000 
      4 C4        -14.9530   10.9370   -8.3110 C.3       1 FK5200      0.0000 
      5 C5        -14.3980    9.7970   -9.1570 C.3       1 FK5200      0.0000 
      6 C6        -15.2220    8.5330   -8.9540 C.3       1 FK5200      0.0000 
      7 C8        -15.0200    7.1040   -6.9900 C.2       1 FK5200      0.0000 
      8 C9        -14.5660    6.0600   -7.7880 C.2       1 FK5200      0.0000 
      9 C10       -15.5290    5.0130   -8.3450 C.3       1 FK5200      0.0000 
     10 C11       -16.6730    4.7370   -7.3780 C.3       1 FK5200      0.0000 
     11 C12       -17.8100    3.9970   -8.0590 C.3       1 FK5200      0.0000 
     12 C13       -18.1460    4.6590   -9.3840 C.3       1 FK5200      0.0000 
     13 C14       -16.9010    4.7160  -10.2620 C.3       1 FK5200      0.0000 
     14 C15       -17.1210    5.3890  -11.6150 C.3       1 FK5200      0.0000 
     15 C16       -17.9430    6.6700  -11.4880 C.3       1 FK5200      0.0000 
     16 C17       -17.7850    7.6260  -12.6730 C.3       1 FK5200      0.0000 
     17 C18       -18.8390    7.3320  -13.7420 C.3       1 FK5200      0.0000 
     18 C19       -20.1780    7.9400  -13.3650 C.2       1 FK5200      0.0000 
     19 C20       -21.1950    7.1350  -12.6710 C.2       1 FK5200      0.0000 
     20 C21       -22.4430    7.7780  -12.1440 C.3       1 FK5200      0.0000 
     21 C22       -22.2130    8.2500  -10.7400 C.2       1 FK5200      0.0000 
     22 C23       -21.9290    9.7060  -10.4570 C.3       1 FK5200      0.0000 
     23 C24       -21.3520    9.8810   -9.0560 C.3       1 FK5200      0.0000 
     24 C25       -19.8920    9.4280   -8.9530 C.3       1 FK5200      0.0000 
     25 C26       -19.3800    9.4470   -7.5120 C.3       1 FK5200      0.0000 
     26 C27       -20.2890    8.5880   -6.6940 C.2       1 FK5200      0.0000 
     27 C28       -21.1670    9.2000   -5.6920 C.2       1 FK5200      0.0000 
     28 C29       -21.9810    8.3380   -4.7800 C.3       1 FK5200      0.0000 
     29 C30       -21.8420    8.8390   -3.3440 C.3       1 FK5200      0.0000 
     30 C31       -22.8180    8.1660   -2.3740 C.3       1 FK5200      0.0000 
     31 C32       -24.2590    8.1640   -2.8870 C.3       1 FK5200      0.0000 
     32 C33       -24.3310    7.6250   -4.3090 C.3       1 FK5200      0.0000 
     33 C34       -23.4320    8.4400   -5.2250 C.3       1 FK5200      0.0000 
     34 C35       -16.1670    3.8790   -6.2290 C.3       1 FK5200      0.0000 
     35 C36       -16.3660    7.5970  -13.2360 C.3       1 FK5200      0.0000 
     36 C37       -20.4900    9.3710  -13.7000 C.3       1 FK5200      0.0000 
     37 C38       -23.5440    6.7300  -12.0930 C.3       1 FK5200      0.0000 
     38 C39       -24.2790    6.6320  -13.4070 C.2       1 FK5200      0.0000 
     39 C40       -23.9070    5.6150  -14.4000 C.2       1 FK5200      0.0000 
     40 C41       -19.0050   10.2790   -9.8510 C.3       1 FK5200      0.0000 
     41 C42       -20.2960    7.1070   -6.9030 C.3       1 FK5200      0.0000 
     42 C43       -20.4250    4.5140   -9.5520 C.3       1 FK5200      0.0000 
     43 C44       -16.8040    3.5980  -13.0490 C.3       1 FK5200      0.0000 
     44 C45       -21.8390    8.2020   -0.2560 C.3       1 FK5200      0.0000 
     45 N7        -15.3560    8.2770   -7.5140 N.am      1 FK5200      0.0000 
     46 O1        -18.0550    8.9450   -7.4240 O.3       1 FK5200      0.0000 
     47 O2        -17.7370   10.8790   -6.1920 O.2       1 FK5200      0.0000 
     48 O3        -15.0930    6.9490   -5.5910 O.2       1 FK5200      0.0000 
     49 O4        -13.1900    6.0040   -8.0870 O.2       1 FK5200      0.0000 
     50 O5        -15.9650    5.5140   -9.5880 O.3       1 FK5200      0.0000 
     51 O6        -14.8630    3.7440   -8.5440 O.3       1 FK5200      0.0000 
     52 O7        -19.2050    3.9440   -9.9700 O.3       1 FK5200      0.0000 
     53 O8        -17.7470    4.4880  -12.4960 O.3       1 FK5200      0.0000 
     54 O9        -22.2750    7.3240   -9.6810 O.2       1 FK5200      0.0000 
     55 O10       -21.4590   11.2450   -8.7120 O.3       1 FK5200      0.0000 
     56 O11       -22.7510    8.8300   -1.1300 O.3       1 FK5200      0.0000 
     57 O12       -25.0620    7.3400   -2.0700 O.3       1 FK5200      0.0000 
@<TRIPOS>BOND
     1    1    2 1    
     2    1   46 1    
     3    1   47 2    
     4    2    3 1    
     5    2   45 1    
     6    3    4 1    
     7    4    5 1    
     8    5    6 1    
     9    6   45 1    
    10    7    8 1    
    11    7   45 am   
    12    7   48 2    
    13    8    9 1    
    14    8   49 2    
    15    9   10 1    
    16    9   50 1    
    17    9   51 1    
    18   10   11 1    
    19   10   34 1    
    20   11   12 1    
    21   12   13 1    
    22   12   52 1    
    23   13   14 1    
    24   13   50 1    
    25   14   15 1    
    26   14   53 1    
    27   15   16 1    
    28   16   17 1    
    29   16   35 1    
    30   17   18 1    
    31   18   19 2    
    32   18   36 1    
    33   19   20 1    
    34   20   21 1    
    35   20   37 1    
    36   21   22 1    
    37   21   54 2    
    38   22   23 1    
    39   23   24 1    
    40   23   55 1    
    41   24   25 1    
    42   24   40 1    
    43   25   26 1    
    44   25   46 1    
    45   26   27 2    
    46   26   41 1    
    47   27   28 1    
    48   28   29 1    
    49   28   33 1    
    50   29   30 1    
    51   30   31 1    
    52   30   56 1    
    53   31   32 1    
    54   31   57 1    
    55   32   33 1    
    56   37   38 1    
    57   38   39 2    
    58   42   52 1    
    59   43   53 1    
    60   44   56 1    
@<TRIPOS>SUBSTRUCTURE
     1 FK5200      1 GROUP   
@<TRIPOS>SET

