#    Name: 6tz8_2_FK5
#    Modification time : Fri May 22 19:27:22 2020

@<TRIPOS>MOLECULE
6tz8_2_FK5
   57    60     1     0     0
SMALL
NO_CHARGES


@<TRIPOS>ATOM
      1 C1         17.2850    9.6020   16.4950 C.2       1 FK5200      0.0000 
      2 C2         15.8260    9.2510   16.3720 C.3       1 FK5200      0.0000 
      3 C3         15.0260   10.5240   16.6160 C.3       1 FK5200      0.0000 
      4 C4         15.0370   10.8750   18.0990 C.3       1 FK5200      0.0000 
      5 C5         14.4450    9.7520   18.9440 C.3       1 FK5200      0.0000 
      6 C6         15.2210    8.4560   18.7450 C.3       1 FK5200      0.0000 
      7 C8         15.0650    6.9920   16.8080 C.2       1 FK5200      0.0000 
      8 C9         14.6390    5.9280   17.6100 C.2       1 FK5200      0.0000 
      9 C10        15.6330    4.9170   18.1890 C.3       1 FK5200      0.0000 
     10 C11        16.7850    4.6580   17.2300 C.3       1 FK5200      0.0000 
     11 C12        17.9560    3.9870   17.9210 C.3       1 FK5200      0.0000 
     12 C13        18.2450    4.6690   19.2430 C.3       1 FK5200      0.0000 
     13 C14        16.9890    4.6490   20.0940 C.3       1 FK5200      0.0000 
     14 C15        17.1630    5.3140   21.4490 C.3       1 FK5200      0.0000 
     15 C16        17.9570    6.6090   21.3080 C.3       1 FK5200      0.0000 
     16 C17        17.7520    7.5550   22.4860 C.3       1 FK5200      0.0000 
     17 C18        18.7800    7.2670   23.5780 C.3       1 FK5200      0.0000 
     18 C19        20.1050    7.9320   23.2700 C.2       1 FK5200      0.0000 
     19 C20        21.1540    7.2040   22.5390 C.2       1 FK5200      0.0000 
     20 C21        22.3860    7.9180   22.0690 C.3       1 FK5200      0.0000 
     21 C22        22.1720    8.3770   20.6610 C.2       1 FK5200      0.0000 
     22 C23        21.7400    9.7940   20.3860 C.3       1 FK5200      0.0000 
     23 C24        21.2630    9.9170   18.9430 C.3       1 FK5200      0.0000 
     24 C25        19.8420    9.3750   18.7410 C.3       1 FK5200      0.0000 
     25 C26        19.3930    9.4260   17.2840 C.3       1 FK5200      0.0000 
     26 C27        20.3550    8.5830   16.5030 C.2       1 FK5200      0.0000 
     27 C28        21.2370    9.2120   15.5070 C.2       1 FK5200      0.0000 
     28 C29        22.0450    8.4010   14.5350 C.3       1 FK5200      0.0000 
     29 C30        21.9290    8.9880   13.1250 C.3       1 FK5200      0.0000 
     30 C31        22.9260    8.3570   12.1510 C.3       1 FK5200      0.0000 
     31 C32        24.3510    8.4300   12.6810 C.3       1 FK5200      0.0000 
     32 C33        24.4290    7.7180   14.0220 C.3       1 FK5200      0.0000 
     33 C34        23.4970    8.4210   15.0020 C.3       1 FK5200      0.0000 
     34 C35        16.3090    3.7290   16.1280 C.3       1 FK5200      0.0000 
     35 C36        16.3250    7.4670   23.0200 C.3       1 FK5200      0.0000 
     36 C37        20.3610    9.3390   23.7190 C.3       1 FK5200      0.0000 
     37 C38        23.5770    6.9700   22.0450 C.3       1 FK5200      0.0000 
     38 C39        24.2060    6.8110   23.4060 C.2       1 FK5200      0.0000 
     39 C40        23.9010    5.6240   24.2120 C.2       1 FK5200      0.0000 
     40 C41        18.8200   10.0850   19.6190 C.3       1 FK5200      0.0000 
     41 C42        20.4140    7.1080   16.7650 C.3       1 FK5200      0.0000 
     42 C43        20.5240    4.6130   19.5110 C.3       1 FK5200      0.0000 
     43 C44        16.8120    3.5790   22.9530 C.3       1 FK5200      0.0000 
     44 C45        22.1050    8.3140    9.9620 C.3       1 FK5200      0.0000 
     45 N7         15.3730    8.1930   17.3050 N.am      1 FK5200      0.0000 
     46 O1         18.0750    8.9110   17.1820 O.3       1 FK5200      0.0000 
     47 O2         17.7590   10.7470   15.8230 O.2       1 FK5200      0.0000 
     48 O3         15.1420    6.8180   15.4130 O.2       1 FK5200      0.0000 
     49 O4         13.2600    5.8100   17.8860 O.2       1 FK5200      0.0000 
     50 O5         16.0550    5.4430   19.4210 O.3       1 FK5200      0.0000 
     51 O6         15.0200    3.6280   18.4240 O.3       1 FK5200      0.0000 
     52 O7         19.3070    4.0000   19.8710 O.3       1 FK5200      0.0000 
     53 O8         17.7700    4.4250   22.3570 O.3       1 FK5200      0.0000 
     54 O9         22.3810    7.4850   19.5910 O.2       1 FK5200      0.0000 
     55 O10        21.3390   11.2750   18.5730 O.3       1 FK5200      0.0000 
     56 O11        22.8920    9.0100   10.9020 O.3       1 FK5200      0.0000 
     57 O12        25.2370    7.8500   11.7480 O.3       1 FK5200      0.0000 
@<TRIPOS>BOND
     1    1    2 1    
     2    1   46 1    
     3    1   47 2    
     4    2    3 1    
     5    2   45 1    
     6    3    4 1    
     7    4    5 1    
     8    5    6 1    
     9    6   45 1    
    10    7    8 1    
    11    7   45 am   
    12    7   48 2    
    13    8    9 1    
    14    8   49 2    
    15    9   10 1    
    16    9   50 1    
    17    9   51 1    
    18   10   11 1    
    19   10   34 1    
    20   11   12 1    
    21   12   13 1    
    22   12   52 1    
    23   13   14 1    
    24   13   50 1    
    25   14   15 1    
    26   14   53 1    
    27   15   16 1    
    28   16   17 1    
    29   16   35 1    
    30   17   18 1    
    31   18   19 2    
    32   18   36 1    
    33   19   20 1    
    34   20   21 1    
    35   20   37 1    
    36   21   22 1    
    37   21   54 2    
    38   22   23 1    
    39   23   24 1    
    40   23   55 1    
    41   24   25 1    
    42   24   40 1    
    43   25   26 1    
    44   25   46 1    
    45   26   27 2    
    46   26   41 1    
    47   27   28 1    
    48   28   29 1    
    49   28   33 1    
    50   29   30 1    
    51   30   31 1    
    52   30   56 1    
    53   31   32 1    
    54   31   57 1    
    55   32   33 1    
    56   37   38 1    
    57   38   39 2    
    58   42   52 1    
    59   43   53 1    
    60   44   56 1    
@<TRIPOS>SUBSTRUCTURE
     1 FK5200      1 GROUP   
@<TRIPOS>SET

