#    Name: 6f7v_2_FAD
#    Modification time : Fri May 22 19:31:39 2020

@<TRIPOS>MOLECULE
6f7v_2_FAD
   53    58     1     0     1
SMALL
NO_CHARGES


@<TRIPOS>ATOM
      1 PA        176.4290  116.3240   18.6840 P.3       1 FAD501      0.0000 
      2 O1A       176.1980  117.8110   18.6140 O.co2     1 FAD501      0.0000 
      3 O2A       175.4970  115.4090   19.4730 O.co2     1 FAD501      0.0000 
      4 O5B       177.9160  116.0060   19.1880 O.3       1 FAD501      0.0000 
      5 C5B       178.9990  116.8930   18.9580 C.3       1 FAD501      0.0000 
      6 C4B       179.9550  116.7610   20.1290 C.3       1 FAD501      0.0000 
      7 O4B       181.2080  117.3020   19.7270 O.3       1 FAD501      0.0000 
      8 C3B       179.5180  117.5180   21.3970 C.3       1 FAD501      0.0000 
      9 O3B       179.4700  116.6220   22.5100 O.3       1 FAD501      0.0000 
     10 C2B       180.5660  118.6110   21.5810 C.3       1 FAD501      0.0000 
     11 O2B       180.9390  119.0230   22.9080 O.3       1 FAD501      0.0000 
     12 C1B       181.7360  117.9260   20.9030 C.3       1 FAD501      0.0000 
     13 N9A       182.8680  118.8550   20.6620 N.pl3     1 FAD501      0.0000 
     14 C8A       182.8370  120.1530   20.2710 C.2       1 FAD501      0.0000 
     15 N7A       184.0970  120.6370   20.1800 N.2       1 FAD501      0.0000 
     16 C5A       184.9340  119.6360   20.5400 C.ar      1 FAD501      0.0000 
     17 C6A       186.3830  119.4300   20.6930 C.ar      1 FAD501      0.0000 
     18 N6A       187.2250  120.4320   20.4260 N.pl3     1 FAD501      0.0000 
     19 N1A       186.8530  118.2280   21.0960 N.ar      1 FAD501      0.0000 
     20 C2A       186.0450  117.1950   21.3620 C.ar      1 FAD501      0.0000 
     21 N3A       184.7180  117.3100   21.2510 N.ar      1 FAD501      0.0000 
     22 C4A       184.1240  118.4670   20.8560 C.ar      1 FAD501      0.0000 
     23 N1        167.4440  114.2110   16.6870 N.2       1 FAD501      0.0000 
     24 C2        166.4170  113.3080   16.8550 C.2       1 FAD501      0.0000 
     25 O2        166.4040  112.2080   16.2360 O.2       1 FAD501      0.0000 
     26 N3        165.3680  113.5630   17.6780 N.am      1 FAD501      0.0000 
     27 C4        165.2630  114.7070   18.3620 C.2       1 FAD501      0.0000 
     28 O4        164.2860  114.9330   19.1030 O.2       1 FAD501      0.0000 
     29 C4X       166.3250  115.7200   18.2130 C.2       1 FAD501      0.0000 
     30 N5        166.2410  116.8760   18.8840 N.2       1 FAD501      0.0000 
     31 C5X       167.1630  117.8250   18.7970 C.ar      1 FAD501      0.0000 
     32 C6        166.9910  118.9780   19.5610 C.ar      1 FAD501      0.0000 
     33 C7        167.9260  120.0010   19.5430 C.ar      1 FAD501      0.0000 
     34 C7M       167.6870  121.2300   20.3750 C.3       1 FAD501      0.0000 
     35 C8        169.1330  119.8280   18.7080 C.ar      1 FAD501      0.0000 
     36 C8M       170.1280  120.9440   18.6840 C.3       1 FAD501      0.0000 
     37 C9        169.3320  118.6560   17.9440 C.ar      1 FAD501      0.0000 
     38 C9A       168.3730  117.6190   17.9380 C.ar      1 FAD501      0.0000 
     39 N10       168.4810  116.3940   17.2120 N.pl3     1 FAD501      0.0000 
     40 C10       167.4550  115.4220   17.3190 C.2       1 FAD501      0.0000 
     41 C1'       169.5810  116.1530   16.2980 C.3       1 FAD501      0.0000 
     42 C2'       170.8980  115.8390   16.9220 C.3       1 FAD501      0.0000 
     43 O2'       171.7750  116.7270   16.2680 O.3       1 FAD501      0.0000 
     44 C3'       171.2790  114.4220   16.5910 C.3       1 FAD501      0.0000 
     45 O3'       170.2640  113.5500   17.0740 O.3       1 FAD501      0.0000 
     46 C4'       172.5850  114.0110   17.2250 C.3       1 FAD501      0.0000 
     47 O4'       172.6040  114.0880   18.6700 O.3       1 FAD501      0.0000 
     48 C5'       173.7600  114.8170   16.6860 C.3       1 FAD501      0.0000 
     49 O5'       174.8410  113.9640   16.9810 O.3       1 FAD501      0.0000 
     50 P         176.3240  114.2920   16.6840 P.3       1 FAD501      0.0000 
     51 O1P       176.5340  114.2160   15.2120 O.co2     1 FAD501      0.0000 
     52 O2P       177.1690  113.4260   17.5960 O.co2     1 FAD501      0.0000 
     53 O3P       176.4390  115.8380   17.1440 O.3       1 FAD501      0.0000 
@<TRIPOS>BOND
     1    1    2 ar   
     2    1    3 ar   
     3    1    4 1    
     4    1   53 1    
     5    4    5 1    
     6    5    6 1    
     7    6    7 1    
     8    6    8 1    
     9    7   12 1    
    10    8    9 1    
    11    8   10 1    
    12   10   11 1    
    13   10   12 1    
    14   12   13 1    
    15   13   14 1    
    16   13   22 1    
    17   14   15 2    
    18   15   16 1    
    19   16   17 ar   
    20   16   22 ar   
    21   17   18 1    
    22   17   19 ar   
    23   19   20 ar   
    24   20   21 ar   
    25   21   22 ar   
    26   23   24 1    
    27   23   40 2    
    28   24   25 2    
    29   24   26 am   
    30   26   27 am   
    31   27   28 2    
    32   27   29 1    
    33   29   30 2    
    34   29   40 1    
    35   30   31 1    
    36   31   32 ar   
    37   31   38 ar   
    38   32   33 ar   
    39   33   34 1    
    40   33   35 ar   
    41   35   36 1    
    42   35   37 ar   
    43   37   38 ar   
    44   38   39 1    
    45   39   40 1    
    46   39   41 1    
    47   41   42 1    
    48   42   43 1    
    49   42   44 1    
    50   44   45 1    
    51   44   46 1    
    52   46   47 1    
    53   46   48 1    
    54   48   49 1    
    55   49   50 1    
    56   50   51 ar   
    57   50   52 ar   
    58   50   53 1    
@<TRIPOS>SUBSTRUCTURE
     1 FAD501      1 GROUP   
@<TRIPOS>SET
ATOM$ORANGE STATIC     ATOMS   COLORGROUP SYSTEM 
54 5 5 6 6 8 8 10 10 12 12 14 14 16 16 17 17 20 \
20 22 22 24 24 27 27 29 29 31 31 32 32 33 33 34 34 35 \
35 36 36 37 37 38 38 40 40 41 41 42 42 44 44 46 46 48 \
48 

