#    Name: 6f7v_1_FAD
#    Modification time : Fri May 22 19:31:32 2020

@<TRIPOS>MOLECULE
6f7v_1_FAD
   53    58     1     0     1
SMALL
NO_CHARGES


@<TRIPOS>ATOM
      1 PA        128.8930   93.2910   -2.0790 P.3       1 FAD501      0.0000 
      2 O1A       127.9800   92.5660   -1.0710 O.co2     1 FAD501      0.0000 
      3 O2A       129.2250   94.7670   -1.9160 O.co2     1 FAD501      0.0000 
      4 O5B       128.0550   93.2640   -3.4580 O.3       1 FAD501      0.0000 
      5 C5B       127.7080   92.0670   -4.1630 C.3       1 FAD501      0.0000 
      6 C4B       126.3330   92.2060   -4.8130 C.3       1 FAD501      0.0000 
      7 O4B       125.9060   90.9040   -5.2310 O.3       1 FAD501      0.0000 
      8 C3B       125.2320   92.7880   -3.8960 C.3       1 FAD501      0.0000 
      9 O3B       124.7930   94.1040   -4.3080 O.3       1 FAD501      0.0000 
     10 C2B       124.1200   91.7290   -3.8960 C.3       1 FAD501      0.0000 
     11 O2B       122.7610   92.1810   -3.9590 O.3       1 FAD501      0.0000 
     12 C1B       124.4760   90.9510   -5.1460 C.3       1 FAD501      0.0000 
     13 N9A       123.7840   89.6390   -5.1940 N.pl3     1 FAD501      0.0000 
     14 C8A       123.5740   88.7070   -4.2360 C.2       1 FAD501      0.0000 
     15 N7A       122.8730   87.6540   -4.7220 N.2       1 FAD501      0.0000 
     16 C5A       122.6270   87.9370   -6.0210 C.ar      1 FAD501      0.0000 
     17 C6A       121.9440   87.3160   -7.1760 C.ar      1 FAD501      0.0000 
     18 N6A       121.3440   86.1140   -7.0790 N.pl3     1 FAD501      0.0000 
     19 N1A       121.9320   87.9820   -8.3530 N.ar      1 FAD501      0.0000 
     20 C2A       122.5130   89.1730   -8.5440 C.ar      1 FAD501      0.0000 
     21 N3A       123.1460   89.7830   -7.5510 N.ar      1 FAD501      0.0000 
     22 C4A       123.2300   89.2360   -6.3130 C.ar      1 FAD501      0.0000 
     23 N1        135.1210   98.3330    3.0350 N.2       1 FAD501      0.0000 
     24 C2        135.9150   99.4060    3.0910 C.2       1 FAD501      0.0000 
     25 O2        136.9540   99.3930    2.4120 O.2       1 FAD501      0.0000 
     26 N3        135.6430  100.4640    3.8530 N.am      1 FAD501      0.0000 
     27 C4        134.5830  100.5240    4.6430 C.2       1 FAD501      0.0000 
     28 O4        134.3740  101.5450    5.3680 O.2       1 FAD501      0.0000 
     29 C4X       133.6940   99.3450    4.6330 C.2       1 FAD501      0.0000 
     30 N5        132.5960   99.3000    5.3750 N.2       1 FAD501      0.0000 
     31 C5X       131.7790   98.2660    5.3380 C.ar      1 FAD501      0.0000 
     32 C6        130.6740   98.3630    6.1390 C.ar      1 FAD501      0.0000 
     33 C7        129.7510   97.3590    6.1860 C.ar      1 FAD501      0.0000 
     34 C7M       128.5840   97.5440    7.1200 C.3       1 FAD501      0.0000 
     35 C8        129.9700   96.1610    5.3440 C.ar      1 FAD501      0.0000 
     36 C8M       128.9790   95.0500    5.4380 C.3       1 FAD501      0.0000 
     37 C9        131.0890   96.0550    4.5120 C.ar      1 FAD501      0.0000 
     38 C9A       132.0350   97.0830    4.4930 C.ar      1 FAD501      0.0000 
     39 N10       133.2000   97.1000    3.7040 N.pl3     1 FAD501      0.0000 
     40 C10       134.0260   98.2230    3.7720 C.2       1 FAD501      0.0000 
     41 C1'       133.5950   95.9750    2.8460 C.3       1 FAD501      0.0000 
     42 C2'       132.8070   95.8180    1.5700 C.3       1 FAD501      0.0000 
     43 O2'       132.3150   94.4880    1.6480 O.3       1 FAD501      0.0000 
     44 C3'       133.7220   96.0020    0.3750 C.3       1 FAD501      0.0000 
     45 O3'       134.3500   97.2880    0.4940 O.3       1 FAD501      0.0000 
     46 C4'       132.9960   95.8690   -0.9690 C.3       1 FAD501      0.0000 
     47 O4'       131.8390   96.7180   -1.0850 O.3       1 FAD501      0.0000 
     48 C5'       132.5260   94.4490   -1.2660 C.3       1 FAD501      0.0000 
     49 O5'       131.9710   94.4680   -2.5620 O.3       1 FAD501      0.0000 
     50 P         131.5350   93.1290   -3.2700 P.3       1 FAD501      0.0000 
     51 O1P       132.6930   92.1650   -3.2690 O.co2     1 FAD501      0.0000 
     52 O2P       131.1290   93.6770   -4.6210 O.co2     1 FAD501      0.0000 
     53 O3P       130.2730   92.4940   -2.4410 O.3       1 FAD501      0.0000 
@<TRIPOS>BOND
     1    1    2 ar   
     2    1    3 ar   
     3    1    4 1    
     4    1   53 1    
     5    4    5 1    
     6    5    6 1    
     7    6    7 1    
     8    6    8 1    
     9    7   12 1    
    10    8    9 1    
    11    8   10 1    
    12   10   11 1    
    13   10   12 1    
    14   12   13 1    
    15   13   14 1    
    16   13   22 1    
    17   14   15 2    
    18   15   16 1    
    19   16   17 ar   
    20   16   22 ar   
    21   17   18 1    
    22   17   19 ar   
    23   19   20 ar   
    24   20   21 ar   
    25   21   22 ar   
    26   23   24 1    
    27   23   40 2    
    28   24   25 2    
    29   24   26 am   
    30   26   27 am   
    31   27   28 2    
    32   27   29 1    
    33   29   30 2    
    34   29   40 1    
    35   30   31 1    
    36   31   32 ar   
    37   31   38 ar   
    38   32   33 ar   
    39   33   34 1    
    40   33   35 ar   
    41   35   36 1    
    42   35   37 ar   
    43   37   38 ar   
    44   38   39 1    
    45   39   40 1    
    46   39   41 1    
    47   41   42 1    
    48   42   43 1    
    49   42   44 1    
    50   44   45 1    
    51   44   46 1    
    52   46   47 1    
    53   46   48 1    
    54   48   49 1    
    55   49   50 1    
    56   50   51 ar   
    57   50   52 ar   
    58   50   53 1    
@<TRIPOS>SUBSTRUCTURE
     1 FAD501      1 GROUP   
@<TRIPOS>SET
ATOM$ORANGE STATIC     ATOMS   COLORGROUP SYSTEM 
54 5 5 6 6 8 8 10 10 12 12 14 14 16 16 17 17 20 \
20 22 22 24 24 27 27 29 29 31 31 32 32 33 33 34 34 35 \
35 36 36 37 37 38 38 40 40 41 41 42 42 44 44 46 46 48 \
48 

