#    Name: 6hd0_5_ADP
#    Modification time : Fri May 22 19:27:05 2020

@<TRIPOS>MOLECULE
6hd0_5_ADP
   27    29     1     0     1
SMALL
NO_CHARGES


@<TRIPOS>ATOM
      1 PB         95.1620  -27.1550  -10.5230 P.3       1 ADP501      0.0000 
      2 O1B        96.2110  -27.6760  -11.4900 O.co2     1 ADP501      0.0000 
      3 O2B        95.3470  -25.6700  -10.1840 O.co2     1 ADP501      0.0000 
      4 O3B        95.0270  -28.0420   -9.2960 O.co2     1 ADP501      0.0000 
      5 PA         92.8470  -26.3390  -12.2340 P.3       1 ADP501      0.0000 
      6 O1A        92.2800  -27.1830  -13.3300 O.co2     1 ADP501      0.0000 
      7 O2A        93.6360  -25.1130  -12.5820 O.co2     1 ADP501      0.0000 
      8 O3A        93.7320  -27.2950  -11.2880 O.3       1 ADP501      0.0000 
      9 O5'        91.6650  -25.9340  -11.2300 O.3       1 ADP501      0.0000 
     10 C5'        91.9990  -25.0410  -10.1410 C.3       1 ADP501      0.0000 
     11 C4'        90.7280  -24.4780   -9.5570 C.3       1 ADP501      0.0000 
     12 O4'        91.0770  -23.5740   -8.4770 O.3       1 ADP501      0.0000 
     13 C3'        89.8450  -23.6690  -10.5190 C.3       1 ADP501      0.0000 
     14 O3'        88.4730  -23.9740  -10.2980 O.3       1 ADP501      0.0000 
     15 C2'        90.2000  -22.2180  -10.1750 C.3       1 ADP501      0.0000 
     16 O2'        89.1620  -21.3010  -10.4520 O.3       1 ADP501      0.0000 
     17 C1'        90.4580  -22.3250   -8.6760 C.3       1 ADP501      0.0000 
     18 N9         91.3340  -21.2850   -8.1520 N.pl3     1 ADP501      0.0000 
     19 C8         92.6670  -21.4030   -7.8540 C.2       1 ADP501      0.0000 
     20 N7         93.2010  -20.2970   -7.3990 N.2       1 ADP501      0.0000 
     21 C5         92.1510  -19.3910   -7.3880 C.ar      1 ADP501      0.0000 
     22 C6         92.0720  -18.0360   -7.0060 C.ar      1 ADP501      0.0000 
     23 N6         93.1020  -17.3340   -6.5470 N.pl3     1 ADP501      0.0000 
     24 N1         90.8680  -17.4240   -7.1190 N.ar      1 ADP501      0.0000 
     25 C2         89.8310  -18.1360   -7.5830 C.ar      1 ADP501      0.0000 
     26 N3         89.7890  -19.4080   -7.9740 N.ar      1 ADP501      0.0000 
     27 C4         90.9940  -19.9890   -7.8500 C.ar      1 ADP501      0.0000 
@<TRIPOS>BOND
     1    1    2 ar   
     2    1    3 ar   
     3    1    4 ar   
     4    1    8 1    
     5    5    6 ar   
     6    5    7 ar   
     7    5    8 1    
     8    5    9 1    
     9    9   10 1    
    10   10   11 1    
    11   11   12 1    
    12   11   13 1    
    13   12   17 1    
    14   13   14 1    
    15   13   15 1    
    16   15   16 1    
    17   15   17 1    
    18   17   18 1    
    19   18   19 1    
    20   18   27 1    
    21   19   20 2    
    22   20   21 1    
    23   21   22 ar   
    24   21   27 ar   
    25   22   23 1    
    26   22   24 ar   
    27   24   25 ar   
    28   25   26 ar   
    29   26   27 ar   
@<TRIPOS>SUBSTRUCTURE
     1 ADP501      1 GROUP   
@<TRIPOS>SET
ATOM$ORANGE STATIC     ATOMS   COLORGROUP SYSTEM 
20 10 10 11 11 13 13 15 15 17 17 19 19 21 21 22 22 25 \
25 27 27 

