#    Name: 6hd0_3_ADP
#    Modification time : Fri May 22 19:26:33 2020

@<TRIPOS>MOLECULE
6hd0_3_ADP
   27    29     1     0     1
SMALL
NO_CHARGES


@<TRIPOS>ATOM
      1 PB        147.4750  -47.1140  -11.3760 P.3       1 ADP501      0.0000 
      2 O1B       147.3640  -46.0890  -12.4860 O.co2     1 ADP501      0.0000 
      3 O2B       146.3340  -48.1170  -11.3920 O.co2     1 ADP501      0.0000 
      4 O3B       147.6510  -46.4610  -10.0230 O.co2     1 ADP501      0.0000 
      5 PA        149.7820  -48.9430  -10.8590 P.3       1 ADP501      0.0000 
      6 O1A       150.4550  -49.9050  -11.7830 O.co2     1 ADP501      0.0000 
      7 O2A       148.9830  -49.5140   -9.7310 O.co2     1 ADP501      0.0000 
      8 O3A       148.8200  -47.9730  -11.7070 O.3       1 ADP501      0.0000 
      9 O5'       150.8690  -47.8910  -10.3010 O.3       1 ADP501      0.0000 
     10 C5'       150.4710  -46.5060  -10.0820 C.3       1 ADP501      0.0000 
     11 C4'       151.6680  -45.6560   -9.7360 C.3       1 ADP501      0.0000 
     12 O4'       152.3760  -46.2650   -8.6260 O.3       1 ADP501      0.0000 
     13 C3'       152.7100  -45.4680  -10.8470 C.3       1 ADP501      0.0000 
     14 O3'       153.2420  -44.1480  -10.8080 O.3       1 ADP501      0.0000 
     15 C2'       153.7450  -46.5490  -10.5180 C.3       1 ADP501      0.0000 
     16 O2'       155.0470  -46.2580  -10.9850 O.3       1 ADP501      0.0000 
     17 C1'       153.7070  -46.5490   -8.9930 C.3       1 ADP501      0.0000 
     18 N9        154.0790  -47.8290   -8.4080 N.pl3     1 ADP501      0.0000 
     19 C8        153.2320  -48.8570   -8.0800 C.2       1 ADP501      0.0000 
     20 N7        153.8490  -49.8980   -7.5830 N.2       1 ADP501      0.0000 
     21 C5        155.1890  -49.5410   -7.5890 C.ar      1 ADP501      0.0000 
     22 C6        156.3530  -50.2270   -7.1870 C.ar      1 ADP501      0.0000 
     23 N6        156.3500  -51.4620   -6.6920 N.pl3     1 ADP501      0.0000 
     24 N1        157.5380  -49.5860   -7.3360 N.ar      1 ADP501      0.0000 
     25 C2        157.5320  -48.3420   -7.8400 C.ar      1 ADP501      0.0000 
     26 N3        156.5040  -47.6000   -8.2480 N.ar      1 ADP501      0.0000 
     27 C4        155.3450  -48.2640   -8.0970 C.ar      1 ADP501      0.0000 
@<TRIPOS>BOND
     1    1    2 ar   
     2    1    3 ar   
     3    1    4 ar   
     4    1    8 1    
     5    5    6 ar   
     6    5    7 ar   
     7    5    8 1    
     8    5    9 1    
     9    9   10 1    
    10   10   11 1    
    11   11   12 1    
    12   11   13 1    
    13   12   17 1    
    14   13   14 1    
    15   13   15 1    
    16   15   16 1    
    17   15   17 1    
    18   17   18 1    
    19   18   19 1    
    20   18   27 1    
    21   19   20 2    
    22   20   21 1    
    23   21   22 ar   
    24   21   27 ar   
    25   22   23 1    
    26   22   24 ar   
    27   24   25 ar   
    28   25   26 ar   
    29   26   27 ar   
@<TRIPOS>SUBSTRUCTURE
     1 ADP501      1 GROUP   
@<TRIPOS>SET
ATOM$ORANGE STATIC     ATOMS   COLORGROUP SYSTEM 
20 10 10 11 11 13 13 15 15 17 17 19 19 21 21 22 22 25 \
25 27 27 

