#    Name: 6hd0_6_ADP
#    Modification time : Fri May 22 19:27:21 2020

@<TRIPOS>MOLECULE
6hd0_6_ADP
   27    29     1     0     1
SMALL
NO_CHARGES


@<TRIPOS>ATOM
      1 PB         82.9710  -58.1920  -11.1490 P.3       1 ADP501      0.0000 
      2 O1B        83.0930  -58.9410  -12.4570 O.co2     1 ADP501      0.0000 
      3 O2B        84.0240  -57.1080  -10.9950 O.co2     1 ADP501      0.0000 
      4 O3B        82.9060  -59.1290   -9.9600 O.co2     1 ADP501      0.0000 
      5 PA         80.7150  -56.5610  -10.1650 P.3       1 ADP501      0.0000 
      6 O1A        80.0810  -55.4130  -10.8830 O.co2     1 ADP501      0.0000 
      7 O2A        81.5940  -56.2480   -8.9970 O.co2     1 ADP501      0.0000 
      8 O3A        81.5550  -57.4180  -11.2270 O.3       1 ADP501      0.0000 
      9 O5'        79.5750  -57.6180   -9.7340 O.3       1 ADP501      0.0000 
     10 C5'        79.9500  -58.9990   -9.4600 C.3       1 ADP501      0.0000 
     11 C4'        78.7390  -59.8140   -9.0680 C.3       1 ADP501      0.0000 
     12 O4'        78.0260  -59.1330   -8.0050 O.3       1 ADP501      0.0000 
     13 C3'        77.7130  -60.0900  -10.1780 C.3       1 ADP501      0.0000 
     14 O3'        77.4020  -61.4780  -10.2310 O.3       1 ADP501      0.0000 
     15 C2'        76.4900  -59.2490   -9.7950 C.3       1 ADP501      0.0000 
     16 O2'        75.2730  -59.8990  -10.0940 O.3       1 ADP501      0.0000 
     17 C1'        76.6480  -59.0690   -8.2880 C.3       1 ADP501      0.0000 
     18 N9         76.1580  -57.7800   -7.8170 N.pl3     1 ADP501      0.0000 
     19 C8         76.9240  -56.6900   -7.4910 C.2       1 ADP501      0.0000 
     20 N7         76.2200  -55.6540   -7.1110 N.2       1 ADP501      0.0000 
     21 C5         74.9030  -56.0820   -7.1990 C.ar      1 ADP501      0.0000 
     22 C6         73.6770  -55.4380   -6.9350 C.ar      1 ADP501      0.0000 
     23 N6         73.5790  -54.1790   -6.5200 N.pl3     1 ADP501      0.0000 
     24 N1         72.5400  -56.1490   -7.1310 N.ar      1 ADP501      0.0000 
     25 C2         72.6460  -57.4160   -7.5540 C.ar      1 ADP501      0.0000 
     26 N3         73.7390  -58.1230   -7.8350 N.ar      1 ADP501      0.0000 
     27 C4         74.8510  -57.3940   -7.6350 C.ar      1 ADP501      0.0000 
@<TRIPOS>BOND
     1    1    2 ar   
     2    1    3 ar   
     3    1    4 ar   
     4    1    8 1    
     5    5    6 ar   
     6    5    7 ar   
     7    5    8 1    
     8    5    9 1    
     9    9   10 1    
    10   10   11 1    
    11   11   12 1    
    12   11   13 1    
    13   12   17 1    
    14   13   14 1    
    15   13   15 1    
    16   15   16 1    
    17   15   17 1    
    18   17   18 1    
    19   18   19 1    
    20   18   27 1    
    21   19   20 2    
    22   20   21 1    
    23   21   22 ar   
    24   21   27 ar   
    25   22   23 1    
    26   22   24 ar   
    27   24   25 ar   
    28   25   26 ar   
    29   26   27 ar   
@<TRIPOS>SUBSTRUCTURE
     1 ADP501      1 GROUP   
@<TRIPOS>SET
ATOM$ORANGE STATIC     ATOMS   COLORGROUP SYSTEM 
20 10 10 11 11 13 13 15 15 17 17 19 19 21 21 22 22 25 \
25 27 27 

