#    Name: 6hd0_4_ADP
#    Modification time : Fri May 22 19:26:49 2020

@<TRIPOS>MOLECULE
6hd0_4_ADP
   27    29     1     0     1
SMALL
NO_CHARGES


@<TRIPOS>ATOM
      1 PB        126.6950  -22.2320  -10.2760 P.3       1 ADP501      0.0000 
      2 O1B       125.6650  -22.0350  -11.3680 O.co2     1 ADP501      0.0000 
      3 O2B       127.2550  -23.6430  -10.2450 O.co2     1 ADP501      0.0000 
      4 O3B       126.1790  -21.7830   -8.9280 O.co2     1 ADP501      0.0000 
      5 PA        129.1810  -20.6510   -9.8450 P.3       1 ADP501      0.0000 
      6 O1A       130.3720  -20.6000  -10.7430 O.co2     1 ADP501      0.0000 
      7 O2A       129.2980  -21.4310   -8.5760 O.co2     1 ADP501      0.0000 
      8 O3A       127.9310  -21.2440  -10.6610 O.3       1 ADP501      0.0000 
      9 O5'       128.6980  -19.1500   -9.5230 O.3       1 ADP501      0.0000 
     10 C5'       127.2800  -18.8700   -9.3590 C.3       1 ADP501      0.0000 
     11 C4'       127.0770  -17.4510   -8.8840 C.3       1 ADP501      0.0000 
     12 O4'       127.8190  -17.2510   -7.6550 O.3       1 ADP501      0.0000 
     13 C3'       127.5190  -16.3360   -9.8450 C.3       1 ADP501      0.0000 
     14 O3'       126.5050  -15.3430   -9.9440 O.3       1 ADP501      0.0000 
     15 C2'       128.8080  -15.7820   -9.2250 C.3       1 ADP501      0.0000 
     16 O2'       128.9410  -14.3860   -9.4030 O.3       1 ADP501      0.0000 
     17 C1'       128.6570  -16.1210   -7.7440 C.3       1 ADP501      0.0000 
     18 N9        129.9180  -16.4550   -7.0920 N.pl3     1 ADP501      0.0000 
     19 C8        130.3440  -17.7150   -6.7580 C.2       1 ADP501      0.0000 
     20 N7        131.5170  -17.7310   -6.1800 N.2       1 ADP501      0.0000 
     21 C5        131.8940  -16.4010   -6.1270 C.ar      1 ADP501      0.0000 
     22 C6        133.0470  -15.7690   -5.6250 C.ar      1 ADP501      0.0000 
     23 N6        134.0600  -16.4230   -5.0650 N.pl3     1 ADP501      0.0000 
     24 N1        133.1140  -14.4200   -5.7290 N.ar      1 ADP501      0.0000 
     25 C2        132.0850  -13.7720   -6.2940 C.ar      1 ADP501      0.0000 
     26 N3        130.9550  -14.2620   -6.8000 N.ar      1 ADP501      0.0000 
     27 C4        130.9160  -15.6000   -6.6860 C.ar      1 ADP501      0.0000 
@<TRIPOS>BOND
     1    1    2 ar   
     2    1    3 ar   
     3    1    4 ar   
     4    1    8 1    
     5    5    6 ar   
     6    5    7 ar   
     7    5    8 1    
     8    5    9 1    
     9    9   10 1    
    10   10   11 1    
    11   11   12 1    
    12   11   13 1    
    13   12   17 1    
    14   13   14 1    
    15   13   15 1    
    16   15   16 1    
    17   15   17 1    
    18   17   18 1    
    19   18   19 1    
    20   18   27 1    
    21   19   20 2    
    22   20   21 1    
    23   21   22 ar   
    24   21   27 ar   
    25   22   23 1    
    26   22   24 ar   
    27   24   25 ar   
    28   25   26 ar   
    29   26   27 ar   
@<TRIPOS>SUBSTRUCTURE
     1 ADP501      1 GROUP   
@<TRIPOS>SET
ATOM$ORANGE STATIC     ATOMS   COLORGROUP SYSTEM 
20 10 10 11 11 13 13 15 15 17 17 19 19 21 21 22 22 25 \
25 27 27 

