#    Name: 6hd0_5_ADP_CAVITY_N1_4
#    Modification time : Fri May 22 19:27:06 2020

@<TRIPOS>MOLECULE
6hd0_5_ADP_CAVITY_N1_4
   74     0     6     0     0
SMALL
NO_CHARGES


@<TRIPOS>ATOM
      1 OG         96.8500  -26.3700  -11.0400 O.3       1 SER1        0.0000 
      2 OG         96.8600  -26.2800  -12.5300 O.3       1 SER1        0.0000 
      3 OG         95.7900  -25.2300  -12.4800 O.3       1 SER1        0.0000 
      4 OG         98.9700  -26.3600  -11.0100 O.3       1 SER1        0.0000 
      5 OG         97.9000  -25.3000  -10.9600 O.3       1 SER1        0.0000 
      6 O          90.5000  -28.5300  -11.2400 O.2       2 ALA2        0.0000 
      7 O          92.6200  -28.5200  -11.2200 O.2       2 ALA2        0.0000 
      8 O          91.5700  -27.3800  -12.6600 O.2       2 ALA2        0.0000 
      9 O          96.8500  -28.5800   -9.6700 O.2       2 ALA2        0.0000 
     10 O          95.7800  -27.5300   -9.6200 O.2       2 ALA2        0.0000 
     11 N          92.5700  -24.3800   -9.4600 N.am      2 ALA2        0.0000 
     12 O          96.8300  -26.4600   -9.5400 O.2       2 ALA2        0.0000 
     13 O          95.7600  -25.4100   -9.4900 O.2       2 ALA2        0.0000 
     14 O          97.8800  -25.4000   -9.4600 O.2       2 ALA2        0.0000 
     15 O          96.8300  -24.2500  -10.9100 O.2       2 ALA2        0.0000 
     16 OD1        89.4300  -27.4800  -11.1900 O.co2     3 ASP3        0.0000 
     17 OD1        90.4800  -26.4200  -11.1100 O.co2     3 ASP3        0.0000 
     18 OD1        90.5000  -26.3300  -12.6100 O.co2     3 ASP3        0.0000 
     19 OD1        90.5100  -26.2300  -14.1000 O.co2     3 ASP3        0.0000 
     20 OD1        89.4100  -25.3700  -11.0600 O.co2     3 ASP3        0.0000 
     21 OD1        95.7900  -29.6500   -9.7500 O.co2     3 ASP3        0.0000 
     22 OD1        94.7200  -28.6000   -9.6900 O.co2     3 ASP3        0.0000 
     23 OD1        94.7400  -28.5000  -11.1900 O.co2     3 ASP3        0.0000 
     24 OD1        93.6700  -27.4500  -11.1400 O.co2     3 ASP3        0.0000 
     25 OD1        93.6900  -27.3600  -12.6400 O.co2     3 ASP3        0.0000 
     26 OD1        97.9300  -29.5400  -11.2200 O.co2     3 ASP3        0.0000 
     27 OD1        96.8600  -28.4900  -11.1700 O.co2     3 ASP3        0.0000 
     28 OD1        95.7900  -27.4400  -11.1100 O.co2     3 ASP3        0.0000 
     29 OD1        94.7200  -26.3900  -11.0600 O.co2     3 ASP3        0.0000 
     30 OD1        94.7400  -26.2900  -12.5600 O.co2     3 ASP3        0.0000 
     31 OD1        94.7600  -26.2000  -14.0600 O.co2     3 ASP3        0.0000 
     32 OD1        98.9700  -28.5600   -9.6500 O.co2     3 ASP3        0.0000 
     33 OD1        97.9000  -27.5100   -9.5900 O.co2     3 ASP3        0.0000 
     34 OD1        98.9500  -26.4500   -9.5200 O.co2     3 ASP3        0.0000 
     35 NZ         98.9800  -28.4700  -11.1400 N.4       4 LYS4        0.0000 
     36 NZ         97.9100  -27.4200  -11.0900 N.4       4 LYS4        0.0000 
     37 NZ        100.0400  -27.4100  -11.0700 N.4       4 LYS4        0.0000 
     38 CA         90.5200  -28.4400  -12.7400 C.3       5 GLY6        0.0000 
     39 CA         89.4100  -27.5800   -9.6900 C.3       5 GLY6        0.0000 
     40 CA         91.5300  -27.5600   -9.6700 C.3       5 GLY6        0.0000 
     41 CA         91.5500  -27.4700  -11.1600 C.3       5 GLY6        0.0000 
     42 CA         90.4700  -26.5100   -9.6100 C.3       5 GLY6        0.0000 
     43 CA         89.4000  -25.4600   -9.5600 C.3       5 GLY6        0.0000 
     44 CA         96.8600  -30.7000   -9.8000 C.3       5 GLY6        0.0000 
     45 CA         93.6600  -27.5400   -9.6400 C.3       5 GLY6        0.0000 
     46 CA         92.5900  -26.4900   -9.5900 C.3       5 GLY6        0.0000 
     47 CA         91.5200  -25.4400   -9.5400 C.3       5 GLY6        0.0000 
     48 CA         90.4500  -24.3900   -9.4800 C.3       5 GLY6        0.0000 
     49 CA         97.9200  -29.6300   -9.7200 C.3       5 GLY6        0.0000 
     50 CA         96.8300  -28.6700   -8.1700 C.3       5 GLY6        0.0000 
     51 CA         94.7100  -26.4800   -9.5600 C.3       5 GLY6        0.0000 
     52 CA         93.6400  -25.4300   -9.5100 C.3       5 GLY6        0.0000 
     53 CA         97.8800  -27.6100   -8.1000 C.3       5 GLY6        0.0000 
     54 CA         95.7800  -25.3200  -10.9800 C.3       5 GLY6        0.0000 
     55 CA         94.7100  -24.2700  -10.9300 C.3       5 GLY6        0.0000 
     56 CA         94.7200  -24.1800  -12.4300 C.3       5 GLY6        0.0000 
     57 CA         94.7400  -24.0900  -13.9300 C.3       5 GLY6        0.0000 
     58 CA         94.7600  -23.9900  -15.4200 C.3       5 GLY6        0.0000 
     59 CA         93.6400  -23.2200  -10.8800 C.3       5 GLY6        0.0000 
     60 CA         93.6500  -23.1300  -12.3800 C.3       5 GLY6        0.0000 
     61 CA         93.6700  -23.0300  -13.8700 C.3       5 GLY6        0.0000 
     62 CA         92.5800  -22.0800  -12.3200 C.3       5 GLY6        0.0000 
     63 CA         95.7800  -23.1100  -12.3500 C.3       5 GLY6        0.0000 
     64 DU         92.6000  -26.4000  -11.0900 H         6 CUB7        0.0000 
     65 DU         92.6200  -26.3100  -12.5800 H         6 CUB7        0.0000 
     66 DU         92.6400  -26.2200  -14.0800 H         6 CUB7        0.0000 
     67 DU         91.5300  -25.3500  -11.0300 H         6 CUB7        0.0000 
     68 DU         91.5500  -25.2600  -12.5300 H         6 CUB7        0.0000 
     69 DU         93.6500  -25.3400  -11.0100 H         6 CUB7        0.0000 
     70 DU         93.6700  -25.2400  -12.5100 H         6 CUB7        0.0000 
     71 DU         93.6900  -25.1500  -14.0000 H         6 CUB7        0.0000 
     72 DU         92.5900  -24.2800  -10.9600 H         6 CUB7        0.0000 
     73 DU         92.6000  -24.1900  -12.4500 H         6 CUB7        0.0000 
     74 DU         91.5200  -23.2300  -10.9000 H         6 CUB7        0.0000 
@<TRIPOS>BOND
@<TRIPOS>SUBSTRUCTURE
     1 SER1        1 GROUP   
     2 ALA2        6 GROUP   
     3 ASP3       16 GROUP   
     4 LYS4       35 GROUP   
     5 GLY6       38 GROUP   
     6 CUB7       64 GROUP   
@<TRIPOS>SET

