#    Name: 6hd0_2_ADP
#    Modification time : Fri May 22 19:26:17 2020

@<TRIPOS>MOLECULE
6hd0_2_ADP
   27    29     1     0     1
SMALL
NO_CHARGES


@<TRIPOS>ATOM
      1 PB        135.0440  -77.9290  -11.7350 P.3       1 ADP501      0.0000 
      2 O1B       134.7690  -77.1560  -13.0030 O.co2     1 ADP501      0.0000 
      3 O2B       133.8080  -78.0780  -10.8750 O.co2     1 ADP501      0.0000 
      4 O3B       136.2280  -77.3810  -10.9650 O.co2     1 ADP501      0.0000 
      5 PA        135.4060  -80.8230  -11.3940 P.3       1 ADP501      0.0000 
      6 O1A       134.7710  -81.8550  -12.2670 O.co2     1 ADP501      0.0000 
      7 O2A       134.7720  -80.5330  -10.0730 O.co2     1 ADP501      0.0000 
      8 O3A       135.4690  -79.4300  -12.1880 O.3       1 ADP501      0.0000 
      9 O5'       136.9640  -81.1860  -11.1880 O.3       1 ADP501      0.0000 
     10 C5'       137.9380  -80.1350  -10.9280 C.3       1 ADP501      0.0000 
     11 C4'       139.2650  -80.7380  -10.5280 C.3       1 ADP501      0.0000 
     12 O4'       139.0610  -81.6460   -9.4160 O.3       1 ADP501      0.0000 
     13 C3'       140.0090  -81.5330  -11.6130 C.3       1 ADP501      0.0000 
     14 O3'       141.3250  -81.0200  -11.7830 O.3       1 ADP501      0.0000 
     15 C2'       140.0210  -82.9850  -11.1140 C.3       1 ADP501      0.0000 
     16 O2'       141.2590  -83.6250  -11.3400 O.3       1 ADP501      0.0000 
     17 C1'       139.7450  -82.8600   -9.6170 C.3       1 ADP501      0.0000 
     18 N9        138.8920  -83.9230   -9.1010 N.pl3     1 ADP501      0.0000 
     19 C8        137.5510  -83.8020   -8.8590 C.2       1 ADP501      0.0000 
     20 N7        137.0010  -84.9010   -8.4110 N.2       1 ADP501      0.0000 
     21 C5        138.0450  -85.8100   -8.3530 C.ar      1 ADP501      0.0000 
     22 C6        138.0970  -87.1610   -7.9570 C.ar      1 ADP501      0.0000 
     23 N6        137.0360  -87.8450   -7.5360 N.pl3     1 ADP501      0.0000 
     24 N1        139.2960  -87.7870   -8.0250 N.ar      1 ADP501      0.0000 
     25 C2        140.3540  -87.0870   -8.4570 C.ar      1 ADP501      0.0000 
     26 N3        140.4230  -85.8160   -8.8530 N.ar      1 ADP501      0.0000 
     27 C4        139.2210  -85.2200   -8.7790 C.ar      1 ADP501      0.0000 
@<TRIPOS>BOND
     1    1    2 ar   
     2    1    3 ar   
     3    1    4 ar   
     4    1    8 1    
     5    5    6 ar   
     6    5    7 ar   
     7    5    8 1    
     8    5    9 1    
     9    9   10 1    
    10   10   11 1    
    11   11   12 1    
    12   11   13 1    
    13   12   17 1    
    14   13   14 1    
    15   13   15 1    
    16   15   16 1    
    17   15   17 1    
    18   17   18 1    
    19   18   19 1    
    20   18   27 1    
    21   19   20 2    
    22   20   21 1    
    23   21   22 ar   
    24   21   27 ar   
    25   22   23 1    
    26   22   24 ar   
    27   24   25 ar   
    28   25   26 ar   
    29   26   27 ar   
@<TRIPOS>SUBSTRUCTURE
     1 ADP501      1 GROUP   
@<TRIPOS>SET
ATOM$ORANGE STATIC     ATOMS   COLORGROUP SYSTEM 
20 10 10 11 11 13 13 15 15 17 17 19 19 21 21 22 22 25 \
25 27 27 

