#    Name: 6hd0_1_ADP
#    Modification time : Fri May 22 19:26:01 2020

@<TRIPOS>MOLECULE
6hd0_1_ADP
   27    29     1     0     1
SMALL
NO_CHARGES


@<TRIPOS>ATOM
      1 PB        103.0650  -82.2020  -10.6920 P.3       1 ADP501      0.0000 
      2 O1B       103.8190  -80.9750  -11.1690 O.co2     1 ADP501      0.0000 
      3 O2B       101.9970  -81.8730   -9.6680 O.co2     1 ADP501      0.0000 
      4 O3B       103.9870  -83.3170  -10.2450 O.co2     1 ADP501      0.0000 
      5 PA        101.1530  -83.9550  -12.1200 P.3       1 ADP501      0.0000 
      6 O1A       100.8700  -84.1560  -13.5720 O.co2     1 ADP501      0.0000 
      7 O2A       100.0080  -83.6460  -11.2090 O.co2     1 ADP501      0.0000 
      8 O3A       102.2600  -82.7990  -11.9640 O.3       1 ADP501      0.0000 
      9 O5'       101.9550  -85.2320  -11.5750 O.3       1 ADP501      0.0000 
     10 C5'       101.6070  -85.7740  -10.2810 C.3       1 ADP501      0.0000 
     11 C4'       102.3000  -87.1020  -10.0980 C.3       1 ADP501      0.0000 
     12 O4'       101.9710  -87.6180   -8.7850 O.3       1 ADP501      0.0000 
     13 C3'       101.9400  -88.1970  -11.1140 C.3       1 ADP501      0.0000 
     14 O3'       103.1060  -88.7160  -11.7420 O.3       1 ADP501      0.0000 
     15 C2'       101.2430  -89.3040  -10.3140 C.3       1 ADP501      0.0000 
     16 O2'       101.8340  -90.5660  -10.5390 O.3       1 ADP501      0.0000 
     17 C1'       101.4120  -88.9090   -8.8490 C.3       1 ADP501      0.0000 
     18 N9        100.1470  -88.8820   -8.1250 N.pl3     1 ADP501      0.0000 
     19 C8         99.4130  -87.7680   -7.8150 C.2       1 ADP501      0.0000 
     20 N7         98.3080  -88.0340   -7.1680 N.2       1 ADP501      0.0000 
     21 C5         98.3070  -89.4150   -7.0470 C.ar      1 ADP501      0.0000 
     22 C6         97.3940  -90.3110   -6.4570 C.ar      1 ADP501      0.0000 
     23 N6         96.2660  -89.9320   -5.8630 N.pl3     1 ADP501      0.0000 
     24 N1         97.6920  -91.6310   -6.5130 N.ar      1 ADP501      0.0000 
     25 C2         98.8300  -92.0040   -7.1150 C.ar      1 ADP501      0.0000 
     26 N3         99.7610  -91.2550   -7.7020 N.ar      1 ADP501      0.0000 
     27 C4         99.4380  -89.9520   -7.6350 C.ar      1 ADP501      0.0000 
@<TRIPOS>BOND
     1    1    2 ar   
     2    1    3 ar   
     3    1    4 ar   
     4    1    8 1    
     5    5    6 ar   
     6    5    7 ar   
     7    5    8 1    
     8    5    9 1    
     9    9   10 1    
    10   10   11 1    
    11   11   12 1    
    12   11   13 1    
    13   12   17 1    
    14   13   14 1    
    15   13   15 1    
    16   15   16 1    
    17   15   17 1    
    18   17   18 1    
    19   18   19 1    
    20   18   27 1    
    21   19   20 2    
    22   20   21 1    
    23   21   22 ar   
    24   21   27 ar   
    25   22   23 1    
    26   22   24 ar   
    27   24   25 ar   
    28   25   26 ar   
    29   26   27 ar   
@<TRIPOS>SUBSTRUCTURE
     1 ADP501      1 GROUP   
@<TRIPOS>SET
ATOM$ORANGE STATIC     ATOMS   COLORGROUP SYSTEM 
20 10 10 11 11 13 13 15 15 17 17 19 19 21 21 22 22 25 \
25 27 27 

