#    Name: 5n4i_1_SAM_CAVITY_N1_4
#    Modification time : Fri May 22 19:16:08 2020

@<TRIPOS>MOLECULE
5n4i_1_SAM_CAVITY_N1_4
   69     0     5     0     0
SMALL
NO_CHARGES


@<TRIPOS>ATOM
      1 OG        -93.0400  192.8000   23.0200 O.3       1 SER1        0.0000 
      2 OG        -94.3100  192.4600   24.6800 O.3       1 SER1        0.0000 
      3 OG        -94.3400  193.3800   23.4900 O.3       1 SER1        0.0000 
      4 OG        -91.5200  193.9600   25.7700 O.3       1 SER1        0.0000 
      5 OG        -92.8200  194.5400   26.2500 O.3       1 SER1        0.0000 
      6 OG        -92.8500  195.4500   25.0600 O.3       1 SER1        0.0000 
      7 OG        -90.7700  195.0000   26.5600 O.3       1 SER1        0.0000 
      8 OG        -90.8000  195.9200   25.3700 O.3       1 SER1        0.0000 
      9 OG        -92.1300  197.4100   24.6600 O.3       1 SER1        0.0000 
     10 OG        -91.3800  198.4500   25.4400 O.3       1 SER1        0.0000 
     11 OG        -92.6800  199.0200   25.9100 O.3       1 SER1        0.0000 
     12 OG        -89.3100  197.9900   26.9300 O.3       1 SER1        0.0000 
     13 OG        -89.3300  198.9100   25.7500 O.3       1 SER1        0.0000 
     14 OG        -90.6300  199.4900   26.2200 O.3       1 SER1        0.0000 
     15 OG        -87.3100  200.2900   24.8700 O.3       1 SER1        0.0000 
     16 OG        -88.5900  199.9500   26.5300 O.3       1 SER1        0.0000 
     17 OG        -88.6200  200.8600   25.3400 O.3       1 SER1        0.0000 
     18 OG        -89.8900  200.5300   27.0000 O.3       1 SER1        0.0000 
     19 OG        -89.9200  201.4400   25.8200 O.3       1 SER1        0.0000 
     20 O         -93.6200  195.3300   23.0900 O.2       2 ALA2        0.0000 
     21 O         -91.5700  195.7900   23.4000 O.2       2 ALA2        0.0000 
     22 N         -92.8700  196.3700   23.8700 N.am      2 ALA2        0.0000 
     23 N         -94.1500  196.0300   25.5400 N.am      2 ALA2        0.0000 
     24 N         -94.2300  198.7800   21.9700 N.am      2 ALA2        0.0000 
     25 N         -89.4700  194.4200   26.0800 N.am      2 ALA2        0.0000 
     26 O         -89.5300  196.2600   23.7000 O.2       2 ALA2        0.0000 
     27 O         -90.8300  196.8300   24.1800 O.2       2 ALA2        0.0000 
     28 O         -92.1600  198.3200   23.4700 O.2       2 ALA2        0.0000 
     29 O         -92.1800  199.2400   22.2800 O.2       2 ALA2        0.0000 
     30 N         -93.4600  198.9000   23.9400 N.am      2 ALA2        0.0000 
     31 N         -93.4800  199.8200   22.7500 N.am      2 ALA2        0.0000 
     32 N         -88.7500  196.3800   25.6800 N.am      2 ALA2        0.0000 
     33 N         -88.7800  197.2900   24.4900 N.am      2 ALA2        0.0000 
     34 O         -90.0800  197.8700   24.9600 O.2       2 ALA2        0.0000 
     35 O         -91.4100  199.3600   24.2500 O.2       2 ALA2        0.0000 
     36 O         -91.4400  200.2800   23.0600 O.2       2 ALA2        0.0000 
     37 N         -92.7100  199.9400   24.7300 N.am      2 ALA2        0.0000 
     38 N         -86.7900  199.5900   22.4200 N.am      2 ALA2        0.0000 
     39 N         -88.0300  198.3300   25.2700 N.am      2 ALA2        0.0000 
     40 N         -88.0600  199.2500   24.0800 N.am      2 ALA2        0.0000 
     41 O         -88.0900  200.1700   22.9000 O.2       2 ALA2        0.0000 
     42 O         -89.3600  199.8300   24.5600 O.2       2 ALA2        0.0000 
     43 O         -89.3900  200.7400   23.3700 O.2       2 ALA2        0.0000 
     44 O         -90.6900  201.3200   23.8500 O.2       2 ALA2        0.0000 
     45 N         -86.0100  199.7100   24.3900 N.am      2 ALA2        0.0000 
     46 N         -87.2900  199.3700   26.0500 N.am      2 ALA2        0.0000 
     47 CZ        -92.2900  193.8400   23.8000 C.ar      3 PHE5        0.0000 
     48 CZ        -92.3200  194.7500   22.6100 C.ar      3 PHE5        0.0000 
     49 CZ        -88.8900  191.8900   26.0100 C.ar      3 PHE5        0.0000 
     50 CZ        -90.2200  193.3900   25.3000 C.ar      3 PHE5        0.0000 
     51 CZ        -90.2400  194.3000   24.1100 C.ar      3 PHE5        0.0000 
     52 CZ        -91.4900  193.0500   26.9600 C.ar      3 PHE5        0.0000 
     53 CZ        -91.5400  194.8800   24.5800 C.ar      3 PHE5        0.0000 
     54 CZ        -92.7900  193.6200   27.4400 C.ar      3 PHE5        0.0000 
     55 CZ        -89.4400  193.5100   27.2700 C.ar      3 PHE5        0.0000 
     56 CZ        -88.5600  199.0300   27.7200 C.ar      3 PHE5        0.0000 
     57 CZ        -89.8600  199.6100   28.1900 C.ar      3 PHE5        0.0000 
     58 CA        -92.2600  192.9200   24.9900 C.3       4 GLY6        0.0000 
     59 CA        -93.5400  192.5800   26.6500 C.3       4 GLY6        0.0000 
     60 CA        -93.5600  193.5000   25.4600 C.3       4 GLY6        0.0000 
     61 CA        -94.8600  194.0800   25.9400 C.3       4 GLY6        0.0000 
     62 CA        -94.8900  194.9900   24.7500 C.3       4 GLY6        0.0000 
     63 CA        -90.1900  192.4700   26.4800 C.3       4 GLY6        0.0000 
     64 CA        -92.9000  197.2900   22.6800 C.3       4 GLY6        0.0000 
     65 CA        -94.1200  195.1100   26.7200 C.3       4 GLY6        0.0000 
     66 CA        -89.5000  195.3400   24.8900 C.3       4 GLY6        0.0000 
     67 CA        -87.2600  198.4600   27.2400 C.3       4 GLY6        0.0000 
     68 DU        -93.5900  194.4100   24.2800 H         5 CUB7        0.0000 
     69 DU        -90.6600  200.4000   25.0300 H         5 CUB7        0.0000 
@<TRIPOS>BOND
@<TRIPOS>SUBSTRUCTURE
     1 SER1        1 GROUP   
     2 ALA2       20 GROUP   
     3 PHE5       47 GROUP   
     4 GLY6       58 GROUP   
     5 CUB7       68 GROUP   
@<TRIPOS>SET

