#    Name: 5n4i_1_SAM
#    Modification time : Fri May 22 19:16:06 2020

@<TRIPOS>MOLECULE
5n4i_1_SAM
   27    29     1     0     0
SMALL
NO_CHARGES


@<TRIPOS>ATOM
      1 N         -87.2610  193.6710   27.5660 N.4       1 SAM501      0.0000 
      2 CA        -88.6440  193.3140   27.2680 C.3       1 SAM501      0.0000 
      3 C         -88.7370  191.8080   27.1850 C.2       1 SAM501      0.0000 
      4 O         -87.8010  191.1470   27.6730 O.co2     1 SAM501      0.0000 
      5 OXT       -89.7290  191.2590   26.6360 O.co2     1 SAM501      0.0000 
      6 CB        -89.1540  193.9310   25.9510 C.3       1 SAM501      0.0000 
      7 CG        -89.0070  195.4550   25.8660 C.3       1 SAM501      0.0000 
      8 SD        -89.6680  196.2410   24.5220 S.3       1 SAM501      0.0000 
      9 CE        -89.2200  197.7970   24.7820 C.3       1 SAM501      0.0000 
     10 C5'       -91.3440  196.2870   24.5930 C.3       1 SAM501      0.0000 
     11 C4'       -92.0810  195.2440   23.7740 C.3       1 SAM501      0.0000 
     12 O4'       -92.0550  194.0160   24.5080 O.3       1 SAM501      0.0000 
     13 C3'       -93.5670  195.5130   23.6160 C.3       1 SAM501      0.0000 
     14 O3'       -93.9340  196.4310   22.5860 O.3       1 SAM501      0.0000 
     15 C2'       -94.1130  194.1200   23.3870 C.3       1 SAM501      0.0000 
     16 O2'       -93.9120  193.6700   22.0420 O.3       1 SAM501      0.0000 
     17 C1'       -93.2640  193.2890   24.3300 C.3       1 SAM501      0.0000 
     18 N9        -93.9620  193.1480   25.6280 N.pl3     1 SAM501      0.0000 
     19 C8        -93.7580  193.8590   26.7610 C.2       1 SAM501      0.0000 
     20 N7        -94.6070  193.4580   27.7330 N.2       1 SAM501      0.0000 
     21 C5        -95.3710  192.4750   27.2020 C.ar      1 SAM501      0.0000 
     22 C6        -96.4670  191.6030   27.6650 C.ar      1 SAM501      0.0000 
     23 N6        -96.9350  191.7080   28.9260 N.pl3     1 SAM501      0.0000 
     24 N1        -96.9700  190.7100   26.7880 N.ar      1 SAM501      0.0000 
     25 C2        -96.5180  190.5910   25.5170 C.ar      1 SAM501      0.0000 
     26 N3        -95.5260  191.3550   25.0270 N.ar      1 SAM501      0.0000 
     27 C4        -94.9380  192.2820   25.8190 C.ar      1 SAM501      0.0000 
@<TRIPOS>BOND
     1    1    2 1    
     2    2    3 1    
     3    2    6 1    
     4    3    4 ar   
     5    3    5 ar   
     6    6    7 1    
     7    7    8 1    
     8    8    9 1    
     9    8   10 1    
    10   10   11 1    
    11   11   12 1    
    12   11   13 1    
    13   12   17 1    
    14   13   14 1    
    15   13   15 1    
    16   15   16 1    
    17   15   17 1    
    18   17   18 1    
    19   18   19 1    
    20   18   27 1    
    21   19   20 2    
    22   20   21 1    
    23   21   22 ar   
    24   21   27 ar   
    25   22   23 1    
    26   22   24 ar   
    27   24   25 ar   
    28   25   26 ar   
    29   26   27 ar   
@<TRIPOS>SUBSTRUCTURE
     1 SAM501      1 GROUP   
@<TRIPOS>SET

