#    Name: 6f9q_1_NAD
#    Modification time : Fri May 22 19:24:49 2020

@<TRIPOS>MOLECULE
6f9q_1_NAD
   44    48     1     0     1
SMALL
NO_CHARGES


@<TRIPOS>ATOM
      1 PA          4.4970    5.5050   -1.1420 P.3       1 NAD301      0.0000 
      2 O1A         4.7990    6.8740   -1.6790 O.co2     1 NAD301      0.0000 
      3 O2A         3.9280    5.3990    0.2420 O.co2     1 NAD301      0.0000 
      4 O5B         5.8040    4.6100   -1.1840 O.3       1 NAD301      0.0000 
      5 C5B         6.6720    4.5200   -2.3130 C.3       1 NAD301      0.0000 
      6 C4B         8.0850    4.4220   -1.7600 C.3       1 NAD301      0.0000 
      7 O4B         8.9600    4.1050   -2.8570 O.3       1 NAD301      0.0000 
      8 C3B         8.5530    5.7390   -1.1270 C.3       1 NAD301      0.0000 
      9 O3B         9.0450    5.5770    0.2100 O.3       1 NAD301      0.0000 
     10 C2B         9.6200    6.2050   -2.1070 C.3       1 NAD301      0.0000 
     11 O2B        10.6700    7.0120   -1.5510 O.3       1 NAD301      0.0000 
     12 C1B        10.1260    4.8750   -2.6520 C.3       1 NAD301      0.0000 
     13 N9A        10.9450    5.0490   -3.8470 N.pl3     1 NAD301      0.0000 
     14 C8A        10.6580    5.8040   -4.9390 C.2       1 NAD301      0.0000 
     15 N7A        11.6630    5.7480   -5.8190 N.2       1 NAD301      0.0000 
     16 C5A        12.6190    4.9730   -5.2830 C.ar      1 NAD301      0.0000 
     17 C6A        13.9360    4.4940   -5.7010 C.ar      1 NAD301      0.0000 
     18 N6A        14.4550    4.8920   -6.8820 N.pl3     1 NAD301      0.0000 
     19 N1A        14.6010    3.6830   -4.8530 N.ar      1 NAD301      0.0000 
     20 C2A        14.0890    3.2880   -3.6620 C.ar      1 NAD301      0.0000 
     21 N3A        12.8760    3.6680   -3.2060 N.ar      1 NAD301      0.0000 
     22 C4A        12.1260    4.4930   -3.9860 C.ar      1 NAD301      0.0000 
     23 O3          3.5160    4.8220   -2.2170 O.3       1 NAD301      0.0000 
     24 PN          2.8430    3.3690   -2.3000 P.3       1 NAD301      0.0000 
     25 O1N         2.9580    2.5980   -1.0010 O.co2     1 NAD301      0.0000 
     26 O2N         1.4870    3.6180   -2.8940 O.co2     1 NAD301      0.0000 
     27 O5D         3.7800    2.6530   -3.3870 O.3       1 NAD301      0.0000 
     28 C5D         4.3130    1.3370   -3.2270 C.3       1 NAD301      0.0000 
     29 C4D         4.0670    0.5510   -4.5050 C.3       1 NAD301      0.0000 
     30 O4D         2.6770    0.2800   -4.6580 O.3       1 NAD301      0.0000 
     31 C3D         4.5100    1.2640   -5.7780 C.3       1 NAD301      0.0000 
     32 O3D         5.2860    0.3690   -6.5960 O.3       1 NAD301      0.0000 
     33 C2D         3.1950    1.6230   -6.4570 C.3       1 NAD301      0.0000 
     34 O2D         3.3510    1.7510   -7.8770 O.3       1 NAD301      0.0000 
     35 C1D         2.3260    0.4620   -6.0310 C.3       1 NAD301      0.0000 
     36 N1N         0.8930    0.6760   -6.1620 N.pl3     1 NAD301      0.0000 
     37 C2N         0.2100    1.3290   -5.2090 C.ar      1 NAD301      0.0000 
     38 C3N        -1.1540    1.5130   -5.2870 C.ar      1 NAD301      0.0000 
     39 C7N        -1.9170    2.2180   -4.2140 C.2       1 NAD301      0.0000 
     40 O7N        -3.1350    2.0930   -4.1970 O.2       1 NAD301      0.0000 
     41 N7N        -1.3130    2.9360   -3.2810 N.am      1 NAD301      0.0000 
     42 C4N        -1.8330    1.0280   -6.4040 C.ar      1 NAD301      0.0000 
     43 C5N        -1.1020    0.3660   -7.3870 C.ar      1 NAD301      0.0000 
     44 C6N         0.2610    0.1790   -7.2500 C.ar      1 NAD301      0.0000 
@<TRIPOS>BOND
     1    1    2 ar   
     2    1    3 ar   
     3    1    4 1    
     4    1   23 1    
     5    4    5 1    
     6    5    6 1    
     7    6    7 1    
     8    6    8 1    
     9    7   12 1    
    10    8    9 1    
    11    8   10 1    
    12   10   11 1    
    13   10   12 1    
    14   12   13 1    
    15   13   14 1    
    16   13   22 1    
    17   14   15 2    
    18   15   16 1    
    19   16   17 ar   
    20   16   22 ar   
    21   17   18 1    
    22   17   19 ar   
    23   19   20 ar   
    24   20   21 ar   
    25   21   22 ar   
    26   23   24 1    
    27   24   25 ar   
    28   24   26 ar   
    29   24   27 1    
    30   27   28 1    
    31   28   29 1    
    32   29   30 1    
    33   29   31 1    
    34   30   35 1    
    35   31   32 1    
    36   31   33 1    
    37   33   34 1    
    38   33   35 1    
    39   35   36 1    
    40   36   37 ar   
    41   36   44 ar   
    42   37   38 ar   
    43   38   39 1    
    44   38   42 ar   
    45   39   40 2    
    46   39   41 am   
    47   42   43 ar   
    48   43   44 ar   
@<TRIPOS>SUBSTRUCTURE
     1 NAD301      1 GROUP   
@<TRIPOS>SET
ATOM$ORANGE STATIC     ATOMS   COLORGROUP SYSTEM 
42 5 5 6 6 8 8 10 10 12 12 14 14 16 16 17 17 20 \
20 22 22 28 28 29 29 31 31 33 33 35 35 37 37 38 38 39 \
39 42 42 43 43 44 44 

