#    Name: 5zzg_1_T6C
#    Modification time : Fri May 22 19:33:27 2020

@<TRIPOS>MOLECULE
5zzg_1_T6C
   10    10     1     0     0
SMALL
NO_CHARGES


@<TRIPOS>ATOM
      1 CL2        -2.7550   -4.1340    8.4330 Cl        1 T6C202      0.0000 
      2 C2         -2.8660   -5.7770    9.1040 C.ar      1 T6C202      0.0000 
      3 C1         -2.6230   -5.9630   10.5270 C.ar      1 T6C202      0.0000 
      4 C6         -2.7000   -7.3170   11.0370 C.ar      1 T6C202      0.0000 
      5 CL6        -2.4320   -7.6680   12.7340 Cl        1 T6C202      0.0000 
      6 O1         -2.3500   -4.9230   11.3340 O.co2     1 T6C202      0.0000 
      7 C3         -3.1670   -6.8580    8.3060 C.ar      1 T6C202      0.0000 
      8 C4         -3.1970   -8.1090    8.8730 C.ar      1 T6C202      0.0000 
      9 CL4        -3.5120   -9.5210    7.8870 Cl        1 T6C202      0.0000 
     10 C5         -2.9770   -8.3550   10.2010 C.ar      1 T6C202      0.0000 
@<TRIPOS>BOND
     1    1    2 1    
     2    2    3 ar   
     3    2    7 ar   
     4    3    4 ar   
     5    3    6 ar   
     6    4    5 1    
     7    4   10 ar   
     8    7    8 ar   
     9    8    9 1    
    10    8   10 ar   
@<TRIPOS>SUBSTRUCTURE
     1 T6C202      1 GROUP   
@<TRIPOS>SET

