#    Name: 5zzg_1_T6C_CAVITY_N1_4
#    Modification time : Fri May 22 19:33:28 2020

@<TRIPOS>MOLECULE
5zzg_1_T6C_CAVITY_N1_4
   78     0     6     0     0
SMALL
NO_CHARGES


@<TRIPOS>ATOM
      1 OG         -5.7600   -5.1700    6.4300 O.3       1 SER1        0.0000 
      2 OG         -5.5400   -6.5900    6.8600 O.3       1 SER1        0.0000 
      3 OG         -5.3200   -8.0000    7.3000 O.3       1 SER1        0.0000 
      4 OG         -6.4700   -7.8900    8.2500 O.3       1 SER1        0.0000 
      5 OG         -6.2400   -9.3100    8.6800 O.3       1 SER1        0.0000 
      6 OG         -4.8300   -4.6900    7.5000 O.3       1 SER1        0.0000 
      7 OG         -5.9800   -4.5800    8.4600 O.3       1 SER1        0.0000 
      8 OG         -5.7500   -6.0000    8.8900 O.3       1 SER1        0.0000 
      9 OG         -5.0400   -4.1100    9.5300 O.3       1 SER1        0.0000 
     10 OG         -4.8200   -5.5300    9.9600 O.3       1 SER1        0.0000 
     11 OG         -5.9700   -5.4200   10.9200 O.3       1 SER1        0.0000 
     12 OG         -4.5900   -6.9500   10.4000 O.3       1 SER1        0.0000 
     13 OG         -5.7500   -6.8400   11.3500 O.3       1 SER1        0.0000 
     14 OG         -2.9500   -3.7500    9.6500 O.3       1 SER1        0.0000 
     15 OG         -4.1100   -3.6400   10.6000 O.3       1 SER1        0.0000 
     16 OG         -5.2600   -3.5200   11.5600 O.3       1 SER1        0.0000 
     17 OG         -2.7300   -5.1600   10.0800 O.3       1 SER1        0.0000 
     18 OG         -2.5100   -6.5800   10.5100 O.3       1 SER1        0.0000 
     19 OG         -3.6600   -6.4700   11.4700 O.3       1 SER1        0.0000 
     20 OG         -1.8000   -4.6900   11.1500 O.3       1 SER1        0.0000 
     21 OG         -1.5700   -6.1100   11.5800 O.3       1 SER1        0.0000 
     22 N          -3.0100   -9.0600    7.8400 N.am      2 ALA2        0.0000 
     23 N          -5.7400   -7.6700   13.8100 N.am      2 ALA2        0.0000 
     24 NZ         -2.7800  -10.4800    8.2800 N.4       3 LYS4        0.0000 
     25 NZ         -3.9300  -10.3700    9.2300 N.4       3 LYS4        0.0000 
     26 NZ         -4.8600  -11.6800   10.6200 N.4       3 LYS4        0.0000 
     27 NZ         -3.2200   -8.4800    9.8700 N.4       3 LYS4        0.0000 
     28 NZ         -4.1500   -9.7800   11.2600 N.4       3 LYS4        0.0000 
     29 NZ         -3.9300  -11.2000   11.6900 N.4       3 LYS4        0.0000 
     30 NZ         -2.2900   -8.0000   10.9400 N.4       3 LYS4        0.0000 
     31 CZ         -6.2500   -8.4800    6.2200 C.ar      4 PHE5        0.0000 
     32 CZ         -6.2000   -3.1600    8.0300 C.ar      4 PHE5        0.0000 
     33 CZ         -4.8100   -6.3600   12.4200 C.ar      4 PHE5        0.0000 
     34 CZ         -4.5900   -7.7800   12.8600 C.ar      4 PHE5        0.0000 
     35 CZ         -4.3600   -9.2000   13.2900 C.ar      4 PHE5        0.0000 
     36 CZ         -5.5100   -9.0900   14.2400 C.ar      4 PHE5        0.0000 
     37 CA         -3.9500   -8.7000    4.3100 C.3       5 GLY6        0.0000 
     38 CA         -5.1000   -8.5900    5.2700 C.3       5 GLY6        0.0000 
     39 CA         -4.8300   -3.8600    5.0400 C.3       5 GLY6        0.0000 
     40 CA         -4.6100   -5.2800    5.4700 C.3       5 GLY6        0.0000 
     41 CA         -4.3900   -6.7000    5.9100 C.3       5 GLY6        0.0000 
     42 CA         -3.9400   -9.5300    6.7700 C.3       5 GLY6        0.0000 
     43 CA         -3.7200  -10.9500    7.2000 C.3       5 GLY6        0.0000 
     44 CA         -4.1200   -1.9700    5.6800 C.3       5 GLY6        0.0000 
     45 CA         -5.2700   -1.8600    6.6400 C.3       5 GLY6        0.0000 
     46 CA         -3.9000   -3.3800    6.1100 C.3       5 GLY6        0.0000 
     47 CA         -3.6800   -4.8000    6.5500 C.3       5 GLY6        0.0000 
     48 CA         -4.6000   -6.1100    7.9400 C.3       5 GLY6        0.0000 
     49 CA         -3.2300   -7.6400    7.4100 C.3       5 GLY6        0.0000 
     50 CA         -4.3800   -7.5300    8.3700 C.3       5 GLY6        0.0000 
     51 CA         -4.3400   -1.3800    7.7100 C.3       5 GLY6        0.0000 
     52 CA         -5.4900   -1.2700    8.6700 C.3       5 GLY6        0.0000 
     53 CA         -4.1100   -2.8000    8.1400 C.3       5 GLY6        0.0000 
     54 CA         -2.7400   -4.3300    7.6200 C.3       5 GLY6        0.0000 
     55 CA         -3.6700   -5.6400    9.0100 C.3       5 GLY6        0.0000 
     56 CA         -2.0700   -8.5900    8.9200 C.3       5 GLY6        0.0000 
     57 CA         -3.4000   -0.9100    8.7800 C.3       5 GLY6        0.0000 
     58 CA         -3.1800   -2.3300    9.2100 C.3       5 GLY6        0.0000 
     59 CA         -4.3300   -2.2200   10.1700 C.3       5 GLY6        0.0000 
     60 CA         -1.8000   -3.8600    8.6900 C.3       5 GLY6        0.0000 
     61 CA         -1.5800   -5.2700    9.1200 C.3       5 GLY6        0.0000 
     62 CA         -1.3600   -6.6900    9.5600 C.3       5 GLY6        0.0000 
     63 CA         -3.3900   -1.7400   11.2400 C.3       5 GLY6        0.0000 
     64 CA         -2.0200   -3.2700   10.7200 C.3       5 GLY6        0.0000 
     65 DU         -5.0900   -9.4200    7.7300 H         6 CUB7        0.0000 
     66 DU         -5.0500   -3.2700    7.0700 H         6 CUB7        0.0000 
     67 DU         -5.5300   -7.4200    9.3200 H         6 CUB7        0.0000 
     68 DU         -6.6800   -7.3100   10.2800 H         6 CUB7        0.0000 
     69 DU         -4.1600   -8.9500    8.8000 H         6 CUB7        0.0000 
     70 DU         -6.4600   -8.7300   10.7100 H         6 CUB7        0.0000 
     71 DU         -5.0800  -10.2600   10.1900 H         6 CUB7        0.0000 
     72 DU         -6.2400  -10.1500   11.1400 H         6 CUB7        0.0000 
     73 DU         -5.2600   -2.6900    9.1000 H         6 CUB7        0.0000 
     74 DU         -3.8900   -4.2200    8.5800 H         6 CUB7        0.0000 
     75 DU         -3.4400   -7.0600    9.4400 H         6 CUB7        0.0000 
     76 DU         -4.3700   -8.3700   10.8300 H         6 CUB7        0.0000 
     77 DU         -5.5200   -8.2600   11.7800 H         6 CUB7        0.0000 
     78 DU         -5.3000   -9.6700   12.2200 H         6 CUB7        0.0000 
@<TRIPOS>BOND
@<TRIPOS>SUBSTRUCTURE
     1 SER1        1 GROUP   
     2 ALA2       22 GROUP   
     3 LYS4       24 GROUP   
     4 PHE5       31 GROUP   
     5 GLY6       37 GROUP   
     6 CUB7       65 GROUP   
@<TRIPOS>SET

