#    Name: 6ngq_2_H4B_CAVITY_N1_ALL
#    Modification time : Fri May 22 19:31:05 2020

@<TRIPOS>MOLECULE
6ngq_2_H4B_CAVITY_N1_ALL
   71     0     5     0     0
SMALL
NO_CHARGES


@<TRIPOS>ATOM
      1 N          10.3500    2.4000   54.4500 N.am      1 ALA2        0.0000 
      2 N           8.5400    1.6800   55.2900 N.am      1 ALA2        0.0000 
      3 O           8.1200    0.4200   55.9800 O.2       1 ALA2        0.0000 
      4 N          10.1700    6.0700   54.5300 N.am      1 ALA2        0.0000 
      5 N          11.1400    4.2700   55.0800 N.am      1 ALA2        0.0000 
      6 N           8.9100    2.2800   56.6100 N.am      1 ALA2        0.0000 
      7 N           9.7100    4.1500   57.2400 N.am      1 ALA2        0.0000 
      8 N           8.3200    4.6900   57.3900 N.am      1 ALA2        0.0000 
      9 N           9.2900    2.8900   57.9300 N.am      1 ALA2        0.0000 
     10 N           8.2700    4.0300   59.4000 N.am      1 ALA2        0.0000 
     11 O           6.8800    4.5700   59.5500 O.2       1 ALA2        0.0000 
     12 O           7.8500    2.7700   60.1000 O.2       1 ALA2        0.0000 
     13 NZ         12.7500    0.7200   52.8300 N.4       2 LYS4        0.0000 
     14 NZ         10.9400    0.0000   53.6700 N.4       2 LYS4        0.0000 
     15 NZ         13.1300    1.3200   54.1500 N.4       2 LYS4        0.0000 
     16 NZ         11.7400    1.8600   54.3000 N.4       2 LYS4        0.0000 
     17 NZ         11.3200    0.6000   54.9900 N.4       2 LYS4        0.0000 
     18 NZ          9.5100   -0.1200   55.8300 N.4       2 LYS4        0.0000 
     19 NZ         12.1100    2.4600   55.6200 N.4       2 LYS4        0.0000 
     20 CZ         13.1700    1.9800   52.1400 C.ar      3 PHE5        0.0000 
     21 CZ         11.7800    2.5200   52.2800 C.ar      3 PHE5        0.0000 
     22 CZ         13.5500    2.5800   53.4600 C.ar      3 PHE5        0.0000 
     23 CZ         12.1600    3.1200   53.6100 C.ar      3 PHE5        0.0000 
     24 CZ         11.9800    6.7900   53.6900 C.ar      3 PHE5        0.0000 
     25 CZ         11.5600    5.5300   54.3800 C.ar      3 PHE5        0.0000 
     26 CZ         12.5300    3.7200   54.9300 C.ar      3 PHE5        0.0000 
     27 CZ         12.3600    7.3900   55.0100 C.ar      3 PHE5        0.0000 
     28 CZ         13.3300    5.5900   55.5600 C.ar      3 PHE5        0.0000 
     29 CZ         11.9400    6.1300   55.7100 C.ar      3 PHE5        0.0000 
     30 CZ         10.5000    6.0100   57.8700 C.ar      3 PHE5        0.0000 
     31 CZ         10.0800    4.7500   58.5600 C.ar      3 PHE5        0.0000 
     32 CZ          8.6900    5.2900   58.7100 C.ar      3 PHE5        0.0000 
     33 CZ          7.3000    5.8400   58.8600 C.ar      3 PHE5        0.0000 
     34 CZ          9.6600    3.4900   59.2500 C.ar      3 PHE5        0.0000 
     35 CZ          9.9100    8.4200   58.6500 C.ar      3 PHE5        0.0000 
     36 CZ         12.2700    6.0700   59.0400 C.ar      3 PHE5        0.0000 
     37 CZ         10.8800    6.6100   59.1900 C.ar      3 PHE5        0.0000 
     38 CZ          9.4900    7.1500   59.3400 C.ar      3 PHE5        0.0000 
     39 CZ          8.1000    7.7000   59.4900 C.ar      3 PHE5        0.0000 
     40 CZ          7.6800    6.4400   60.1800 C.ar      3 PHE5        0.0000 
     41 CZ          8.6500    4.6300   60.7300 C.ar      3 PHE5        0.0000 
     42 CZ          7.2600    5.1700   60.8700 C.ar      3 PHE5        0.0000 
     43 CA          9.5500    0.5400   53.8200 C.3       4 GLY6        0.0000 
     44 CA          8.1600    1.0800   53.9700 C.3       4 GLY6        0.0000 
     45 CA          9.1300   -0.7200   54.5100 C.3       4 GLY6        0.0000 
     46 CA          8.9600    2.9500   54.6000 C.3       4 GLY6        0.0000 
     47 CA          9.7500    4.8100   55.2300 C.3       4 GLY6        0.0000 
     48 CA          9.3300    3.5500   55.9200 C.3       4 GLY6        0.0000 
     49 CA         10.9700    7.9400   55.1600 C.3       4 GLY6        0.0000 
     50 CA          9.1600    7.2200   56.0000 C.3       4 GLY6        0.0000 
     51 CA         10.1300    5.4100   56.5500 C.3       4 GLY6        0.0000 
     52 CA          8.7400    5.9500   56.7000 C.3       4 GLY6        0.0000 
     53 CA         12.7300    7.9900   56.3400 C.3       4 GLY6        0.0000 
     54 CA         11.3400    8.5400   56.4800 C.3       4 GLY6        0.0000 
     55 CA         12.3100    6.7300   57.0300 C.3       4 GLY6        0.0000 
     56 CA         10.9200    7.2700   57.1800 C.3       4 GLY6        0.0000 
     57 CA          9.5300    7.8200   57.3300 C.3       4 GLY6        0.0000 
     58 CA          7.7200    7.1000   58.1700 C.3       4 GLY6        0.0000 
     59 CA         11.4700    4.2000   58.4100 C.3       4 GLY6        0.0000 
     60 CA         12.6900    7.3300   58.3500 C.3       4 GLY6        0.0000 
     61 CA         11.3000    7.8700   58.5000 C.3       4 GLY6        0.0000 
     62 DU         11.3600    1.2600   52.9800 H         5 CUB7        0.0000 
     63 DU          9.9300    1.1400   55.1400 H         5 CUB7        0.0000 
     64 DU         10.7200    3.0000   55.7700 H         5 CUB7        0.0000 
     65 DU         10.3000    1.7400   56.4600 H         5 CUB7        0.0000 
     66 DU         10.5500    6.6700   55.8500 H         5 CUB7        0.0000 
     67 DU         11.5200    4.8700   56.4000 H         5 CUB7        0.0000 
     68 DU         11.1000    3.6000   57.0900 H         5 CUB7        0.0000 
     69 DU          9.9500    9.0800   56.6300 H         5 CUB7        0.0000 
     70 DU         11.8900    5.4700   57.7200 H         5 CUB7        0.0000 
     71 DU          9.1100    6.5500   58.0200 H         5 CUB7        0.0000 
@<TRIPOS>BOND
@<TRIPOS>SUBSTRUCTURE
     1 ALA2        1 GROUP   
     2 LYS4       13 GROUP   
     3 PHE5       20 GROUP   
     4 GLY6       43 GROUP   
     5 CUB7       62 GROUP   
@<TRIPOS>SET

