#    Name: 6ngq_2_H4B
#    Modification time : Fri May 22 19:31:03 2020

@<TRIPOS>MOLECULE
6ngq_2_H4B
   17    18     1     0     1
SMALL
NO_CHARGES


@<TRIPOS>ATOM
      1 N1         14.1750    3.6680   48.2080 N.2       1 H4B802      0.0000 
      2 C2         14.2510    3.1720   49.4660 C.2       1 H4B802      0.0000 
      3 N2         13.1950    2.4980   49.9900 N.pl3     1 H4B802      0.0000 
      4 N3         15.3720    3.3530   50.2030 N.am      1 H4B802      0.0000 
      5 C4         16.4390    4.0170   49.7180 C.2       1 H4B802      0.0000 
      6 O4         17.4560    4.1600   50.4380 O.2       1 H4B802      0.0000 
      7 C4A        16.3740    4.5360   48.4310 C.2       1 H4B802      0.0000 
      8 C8A        15.2180    4.3430   47.6780 C.2       1 H4B802      0.0000 
      9 N5         17.4120    5.2140   47.9010 N.3       1 H4B802      0.0000 
     10 N8         15.1190    4.8190   46.4110 N.pl3     1 H4B802      0.0000 
     11 C6         17.1210    6.1420   46.8170 C.3       1 H4B802      0.0000 
     12 C7         16.2420    5.4850   45.7550 C.3       1 H4B802      0.0000 
     13 C9         18.3960    6.6760   46.1770 C.3       1 H4B802      0.0000 
     14 O9         19.1960    5.5730   45.7400 O.3       1 H4B802      0.0000 
     15 C10        18.0410    7.5420   44.9770 C.3       1 H4B802      0.0000 
     16 C11        19.2570    8.3190   44.4900 C.3       1 H4B802      0.0000 
     17 O10        16.9900    8.4450   45.3390 O.3       1 H4B802      0.0000 
@<TRIPOS>BOND
     1    1    2 2    
     2    1    8 1    
     3    2    3 1    
     4    2    4 1    
     5    4    5 am   
     6    5    6 2    
     7    5    7 1    
     8    7    8 2    
     9    7    9 1    
    10    8   10 1    
    11    9   11 1    
    12   10   12 1    
    13   11   12 1    
    14   11   13 1    
    15   13   14 1    
    16   13   15 1    
    17   15   16 1    
    18   15   17 1    
@<TRIPOS>SUBSTRUCTURE
     1 H4B802      1 GROUP   
@<TRIPOS>SET
ATOM$ORANGE STATIC     ATOMS   COLORGROUP SYSTEM 
18 2 2 5 5 7 7 8 8 11 11 12 12 13 13 15 15 16 \
16 

