#    Name: 6ngq_2_H4B_CAVITY_N1_8
#    Modification time : Fri May 22 19:31:05 2020

@<TRIPOS>MOLECULE
6ngq_2_H4B_CAVITY_N1_8
   37     0     5     0     0
SMALL
NO_CHARGES


@<TRIPOS>ATOM
      1 N          10.3500    2.4000   54.4500 N.am      1 ALA2        0.0000 
      2 N           8.5400    1.6800   55.2900 N.am      1 ALA2        0.0000 
      3 N          10.1700    6.0700   54.5300 N.am      1 ALA2        0.0000 
      4 N          11.1400    4.2700   55.0800 N.am      1 ALA2        0.0000 
      5 N           8.9100    2.2800   56.6100 N.am      1 ALA2        0.0000 
      6 NZ         12.7500    0.7200   52.8300 N.4       2 LYS4        0.0000 
      7 NZ         10.9400    0.0000   53.6700 N.4       2 LYS4        0.0000 
      8 NZ         13.1300    1.3200   54.1500 N.4       2 LYS4        0.0000 
      9 NZ         11.7400    1.8600   54.3000 N.4       2 LYS4        0.0000 
     10 NZ         11.3200    0.6000   54.9900 N.4       2 LYS4        0.0000 
     11 NZ          9.5100   -0.1200   55.8300 N.4       2 LYS4        0.0000 
     12 NZ         12.1100    2.4600   55.6200 N.4       2 LYS4        0.0000 
     13 CZ         13.1700    1.9800   52.1400 C.ar      3 PHE5        0.0000 
     14 CZ         11.7800    2.5200   52.2800 C.ar      3 PHE5        0.0000 
     15 CZ         13.5500    2.5800   53.4600 C.ar      3 PHE5        0.0000 
     16 CZ         12.1600    3.1200   53.6100 C.ar      3 PHE5        0.0000 
     17 CZ         11.9800    6.7900   53.6900 C.ar      3 PHE5        0.0000 
     18 CZ         11.5600    5.5300   54.3800 C.ar      3 PHE5        0.0000 
     19 CZ         12.5300    3.7200   54.9300 C.ar      3 PHE5        0.0000 
     20 CZ         12.3600    7.3900   55.0100 C.ar      3 PHE5        0.0000 
     21 CZ         13.3300    5.5900   55.5600 C.ar      3 PHE5        0.0000 
     22 CZ         11.9400    6.1300   55.7100 C.ar      3 PHE5        0.0000 
     23 CA          9.5500    0.5400   53.8200 C.3       4 GLY6        0.0000 
     24 CA          8.1600    1.0800   53.9700 C.3       4 GLY6        0.0000 
     25 CA          9.1300   -0.7200   54.5100 C.3       4 GLY6        0.0000 
     26 CA          8.9600    2.9500   54.6000 C.3       4 GLY6        0.0000 
     27 CA          9.7500    4.8100   55.2300 C.3       4 GLY6        0.0000 
     28 CA          9.3300    3.5500   55.9200 C.3       4 GLY6        0.0000 
     29 CA         10.9700    7.9400   55.1600 C.3       4 GLY6        0.0000 
     30 CA         10.1300    5.4100   56.5500 C.3       4 GLY6        0.0000 
     31 DU         11.3600    1.2600   52.9800 H         5 CUB7        0.0000 
     32 DU          9.9300    1.1400   55.1400 H         5 CUB7        0.0000 
     33 DU         10.7200    3.0000   55.7700 H         5 CUB7        0.0000 
     34 DU         10.3000    1.7400   56.4600 H         5 CUB7        0.0000 
     35 DU         10.5500    6.6700   55.8500 H         5 CUB7        0.0000 
     36 DU         11.5200    4.8700   56.4000 H         5 CUB7        0.0000 
     37 DU         11.1000    3.6000   57.0900 H         5 CUB7        0.0000 
@<TRIPOS>BOND
@<TRIPOS>SUBSTRUCTURE
     1 ALA2        1 GROUP   
     2 LYS4        6 GROUP   
     3 PHE5       13 GROUP   
     4 GLY6       23 GROUP   
     5 CUB7       31 GROUP   
@<TRIPOS>SET

