#    Name: 6mdp_8_ATP
#    Modification time : Fri May 22 19:36:26 2020

@<TRIPOS>MOLECULE
6mdp_8_ATP
   43    45     1     0     1
SMALL
NO_CHARGES


@<TRIPOS>ATOM
      1 PG        172.9310  136.0080  168.0260 P.3       1 ATP802      0.0000 
      2 O1G       173.0080  134.8350  167.0790 O.co2     1 ATP802      0.0000 
      3 O2G       172.6690  137.3310  167.3550 O.co2     1 ATP802      0.0000 
      4 O3G       172.1340  135.7700  169.2820 O.co2     1 ATP802      0.0000 
      5 PB        174.7510  135.6630  170.0760 P.3       1 ATP802      0.0000 
      6 O1B       174.2860  134.2460  170.2710 O.co2     1 ATP802      0.0000 
      7 O2B       174.2630  136.7680  170.9720 O.co2     1 ATP802      0.0000 
      8 O3B       174.4280  136.1550  168.5840 O.3       1 ATP802      0.0000 
      9 PA        177.1740  134.4290  169.5250 P.3       1 ATP802      0.0000 
     10 O1A       176.4900  133.9300  168.2800 O.co2     1 ATP802      0.0000 
     11 O2A       177.5550  133.4500  170.6050 O.co2     1 ATP802      0.0000 
     12 O3A       176.3510  135.6800  170.1020 O.3       1 ATP802      0.0000 
     13 O5'       178.5090  135.2050  169.0910 O.3       1 ATP802      0.0000 
     14 C5'       179.6050  134.4730  168.5830 C.3       1 ATP802      0.0000 
     15 C4'       180.9100  135.0550  169.1190 C.3       1 ATP802      0.0000 
     16 O4'       181.6080  134.1300  169.9680 O.3       1 ATP802      0.0000 
     17 C3'       181.9030  135.4670  168.0510 C.3       1 ATP802      0.0000 
     18 O3'       181.8050  136.8650  167.7720 O.3       1 ATP802      0.0000 
     19 C2'       183.2640  135.0990  168.5980 C.3       1 ATP802      0.0000 
     20 O2'       184.0420  136.2660  168.8750 O.3       1 ATP802      0.0000 
     21 C1'       183.0320  134.3150  169.8940 C.3       1 ATP802      0.0000 
     22 N9        183.7040  132.9820  170.0200 N.pl3     1 ATP802      0.0000 
     23 C8        184.7130  132.4710  169.2770 C.2       1 ATP802      0.0000 
     24 N7        185.0660  131.2350  169.6930 N.2       1 ATP802      0.0000 
     25 C5        184.2900  130.9300  170.7320 C.ar      1 ATP802      0.0000 
     26 C6        184.1510  129.7640  171.6170 C.ar      1 ATP802      0.0000 
     27 N6        184.9400  128.6870  171.4750 N.pl3     1 ATP802      0.0000 
     28 N1        183.2390  129.8210  172.5940 N.ar      1 ATP802      0.0000 
     29 C2        182.4600  130.8960  172.7520 C.ar      1 ATP802      0.0000 
     30 N3        182.5200  131.9920  171.9710 N.ar      1 ATP802      0.0000 
     31 C4        183.4050  132.0750  170.9550 C.ar      1 ATP802      0.0000 
     32 H5'1      179.5640  134.5430  167.4990 H         1 ATP802      0.0000 
     33 H5'2      179.4800  133.4430  168.8470 H         1 ATP802      0.0000 
     34 H4'       180.6470  135.9480  169.6920 H         1 ATP802      0.0000 
     35 H3'       181.7470  134.8790  167.1400 H         1 ATP802      0.0000 
     36 HO3'      182.3020  137.0620  166.9670 H         1 ATP802      0.0000 
     37 H2'       183.7300  134.5230  167.7980 H         1 ATP802      0.0000 
     38 HO2'      184.3440  136.6610  168.0470 H         1 ATP802      0.0000 
     39 H1'       183.3500  134.9460  170.7320 H         1 ATP802      0.0000 
     40 H8        185.1820  132.9640  168.4390 H         1 ATP802      0.0000 
     41 HN61      185.6300  128.6680  170.7400 H         1 ATP802      0.0000 
     42 HN62      184.8310  127.9090  172.1030 H         1 ATP802      0.0000 
     43 H2        181.7500  130.8640  173.5570 H         1 ATP802      0.0000 
@<TRIPOS>BOND
     1    1    2 ar   
     2    1    3 ar   
     3    1    4 ar   
     4    1    8 1    
     5    5    6 ar   
     6    5    7 ar   
     7    5    8 1    
     8    5   12 1    
     9    9   10 ar   
    10    9   11 ar   
    11    9   12 1    
    12    9   13 1    
    13   13   14 1    
    14   14   15 1    
    15   14   32 1    
    16   14   33 1    
    17   15   16 1    
    18   15   17 1    
    19   15   34 1    
    20   16   21 1    
    21   17   18 1    
    22   17   19 1    
    23   17   35 1    
    24   18   36 1    
    25   19   20 1    
    26   19   21 1    
    27   19   37 1    
    28   20   38 1    
    29   21   22 1    
    30   21   39 1    
    31   22   23 1    
    32   22   31 1    
    33   23   24 2    
    34   23   40 1    
    35   24   25 1    
    36   25   26 ar   
    37   25   31 ar   
    38   26   27 1    
    39   26   28 ar   
    40   27   41 1    
    41   27   42 1    
    42   28   29 ar   
    43   29   30 ar   
    44   29   43 1    
    45   30   31 ar   
@<TRIPOS>SUBSTRUCTURE
     1 ATP802      1 GROUP   
@<TRIPOS>SET
ATOM$ORANGE STATIC     ATOMS   COLORGROUP SYSTEM 
20 14 14 15 15 17 17 19 19 21 21 23 23 25 25 26 26 29 \
29 31 31 

