#    Name: 6mdp_2_ATP
#    Modification time : Fri May 22 19:35:22 2020

@<TRIPOS>MOLECULE
6mdp_2_ATP
   43    45     1     0     1
SMALL
NO_CHARGES


@<TRIPOS>ATOM
      1 PG        113.4800  154.4530  206.8770 P.3       1 ATP802      0.0000 
      2 O1G       113.6480  153.7360  205.5620 O.co2     1 ATP802      0.0000 
      3 O2G       113.9040  153.6600  208.0860 O.co2     1 ATP802      0.0000 
      4 O3G       113.9260  155.8940  206.8800 O.co2     1 ATP802      0.0000 
      5 PB        111.1190  155.6310  206.1160 P.3       1 ATP802      0.0000 
      6 O1B       111.7560  155.6120  204.7520 O.co2     1 ATP802      0.0000 
      7 O2B       111.0170  156.9260  206.8790 O.co2     1 ATP802      0.0000 
      8 O3B       111.8920  154.5750  207.0400 O.3       1 ATP802      0.0000 
      9 PA        108.8400  155.0900  204.6480 P.3       1 ATP802      0.0000 
     10 O1A       109.3600  154.0440  203.6950 O.co2     1 ATP802      0.0000 
     11 O2A       108.8730  156.5400  204.2410 O.co2     1 ATP802      0.0000 
     12 O3A       109.6600  154.9680  206.0200 O.3       1 ATP802      0.0000 
     13 O5'       107.3330  154.6960  205.0650 O.3       1 ATP802      0.0000 
     14 C5'       106.3520  154.9360  204.0680 C.3       1 ATP802      0.0000 
     15 C4'       104.9020  154.7320  204.4890 C.3       1 ATP802      0.0000 
     16 O4'       104.5980  155.3580  205.7330 O.3       1 ATP802      0.0000 
     17 C3'       103.9560  155.3260  203.4630 C.3       1 ATP802      0.0000 
     18 O3'       103.3040  154.2840  202.7510 O.3       1 ATP802      0.0000 
     19 C2'       102.9590  156.1820  204.2110 C.3       1 ATP802      0.0000 
     20 O2'       101.6250  155.6880  204.0830 O.3       1 ATP802      0.0000 
     21 C1'       103.3930  156.1270  205.6480 C.3       1 ATP802      0.0000 
     22 N9        103.7200  157.4840  206.1050 N.pl3     1 ATP802      0.0000 
     23 C8        104.8720  158.0840  205.8140 C.2       1 ATP802      0.0000 
     24 N7        104.9350  159.3210  206.3640 N.2       1 ATP802      0.0000 
     25 C5        103.7830  159.5190  207.0190 C.ar      1 ATP802      0.0000 
     26 C6        103.1910  160.6080  207.8170 C.ar      1 ATP802      0.0000 
     27 N6        103.8440  161.7670  208.0360 N.pl3     1 ATP802      0.0000 
     28 N1        101.9670  160.4110  208.3250 N.ar      1 ATP802      0.0000 
     29 C2        101.3020  159.2680  208.1230 C.ar      1 ATP802      0.0000 
     30 N3        101.7700  158.2380  207.4070 N.ar      1 ATP802      0.0000 
     31 C4        102.9800  158.3070  206.8300 C.ar      1 ATP802      0.0000 
     32 H5'1      106.5650  154.3310  203.1890 H         1 ATP802      0.0000 
     33 H5'2      106.4810  155.9690  203.7860 H         1 ATP802      0.0000 
     34 H4'       104.7070  153.6570  204.5480 H         1 ATP802      0.0000 
     35 H3'       104.5020  155.9620  202.7600 H         1 ATP802      0.0000 
     36 HO3'      102.8800  154.6950  201.9950 H         1 ATP802      0.0000 
     37 H2'       103.0210  157.2170  203.8620 H         1 ATP802      0.0000 
     38 HO2'      101.2720  155.9450  203.2220 H         1 ATP802      0.0000 
     39 H1'       102.5860  155.6970  206.2530 H         1 ATP802      0.0000 
     40 H8        105.6450  157.6170  205.2270 H         1 ATP802      0.0000 
     41 HN61      103.4110  162.4950  208.5840 H         1 ATP802      0.0000 
     42 HN62      104.7630  161.9010  207.6500 H         1 ATP802      0.0000 
     43 H2        100.3280  159.1790  208.5590 H         1 ATP802      0.0000 
@<TRIPOS>BOND
     1    1    2 ar   
     2    1    3 ar   
     3    1    4 ar   
     4    1    8 1    
     5    5    6 ar   
     6    5    7 ar   
     7    5    8 1    
     8    5   12 1    
     9    9   10 ar   
    10    9   11 ar   
    11    9   12 1    
    12    9   13 1    
    13   13   14 1    
    14   14   15 1    
    15   14   32 1    
    16   14   33 1    
    17   15   16 1    
    18   15   17 1    
    19   15   34 1    
    20   16   21 1    
    21   17   18 1    
    22   17   19 1    
    23   17   35 1    
    24   18   36 1    
    25   19   20 1    
    26   19   21 1    
    27   19   37 1    
    28   20   38 1    
    29   21   22 1    
    30   21   39 1    
    31   22   23 1    
    32   22   31 1    
    33   23   24 2    
    34   23   40 1    
    35   24   25 1    
    36   25   26 ar   
    37   25   31 ar   
    38   26   27 1    
    39   26   28 ar   
    40   27   41 1    
    41   27   42 1    
    42   28   29 ar   
    43   29   30 ar   
    44   29   43 1    
    45   30   31 ar   
@<TRIPOS>SUBSTRUCTURE
     1 ATP802      1 GROUP   
@<TRIPOS>SET
ATOM$ORANGE STATIC     ATOMS   COLORGROUP SYSTEM 
20 14 14 15 15 17 17 19 19 21 21 23 23 25 25 26 26 29 \
29 31 31 

