#    Name: 6mdp_7_ATP
#    Modification time : Fri May 22 19:36:16 2020

@<TRIPOS>MOLECULE
6mdp_7_ATP
   43    45     1     0     1
SMALL
NO_CHARGES


@<TRIPOS>ATOM
      1 PG        173.8940  151.2440  208.9960 P.3       1 ATP801      0.0000 
      2 O1G       173.1740  152.0100  207.9140 O.co2     1 ATP801      0.0000 
      3 O2G       173.8660  151.8960  210.3550 O.co2     1 ATP801      0.0000 
      4 O3G       173.6300  149.7600  209.0000 O.co2     1 ATP801      0.0000 
      5 PB        175.9380  150.5030  207.3010 P.3       1 ATP801      0.0000 
      6 O1B       175.1640  150.9590  206.0910 O.co2     1 ATP801      0.0000 
      7 O2B       175.9620  149.0450  207.6790 O.co2     1 ATP801      0.0000 
      8 O3B       175.4360  151.3350  208.5740 O.3       1 ATP801      0.0000 
      9 PA        178.4000  150.3560  206.0580 P.3       1 ATP801      0.0000 
     10 O1A       177.8910  150.7480  204.6950 O.co2     1 ATP801      0.0000 
     11 O2A       178.5320  148.9060  206.4290 O.co2     1 ATP801      0.0000 
     12 O3A       177.4540  151.0050  207.1730 O.3       1 ATP801      0.0000 
     13 O5'       179.7910  151.1190  206.3300 O.3       1 ATP801      0.0000 
     14 C5'       180.8490  150.8980  205.4090 C.3       1 ATP801      0.0000 
     15 C4'       182.2090  151.3870  205.9030 C.3       1 ATP801      0.0000 
     16 O4'       182.5440  150.8500  207.1900 O.3       1 ATP801      0.0000 
     17 C3'       183.2870  150.9880  204.9130 C.3       1 ATP801      0.0000 
     18 O3'       183.7870  152.1620  204.2630 O.3       1 ATP801      0.0000 
     19 C2'       184.3250  150.2960  205.7730 C.3       1 ATP801      0.0000 
     20 O2'       185.6490  150.8020  205.6940 O.3       1 ATP801      0.0000 
     21 C1'       183.8890  150.3650  207.2180 C.3       1 ATP801      0.0000 
     22 N9        183.9130  149.0150  207.7830 N.pl3     1 ATP801      0.0000 
     23 C8        183.0300  148.0710  207.4910 C.2       1 ATP801      0.0000 
     24 N7        183.2500  146.9410  208.2070 N.2       1 ATP801      0.0000 
     25 C5        184.2760  147.2050  209.0300 C.ar      1 ATP801      0.0000 
     26 C6        185.0330  146.4800  210.0650 C.ar      1 ATP801      0.0000 
     27 N6        184.7400  145.2050  210.3900 N.pl3     1 ATP801      0.0000 
     28 N1        186.0320  147.1390  210.6760 N.ar      1 ATP801      0.0000 
     29 C2        186.3370  148.4030  210.3430 C.ar      1 ATP801      0.0000 
     30 N3        185.6890  149.1230  209.4320 N.ar      1 ATP801      0.0000 
     31 C4        184.6550  148.5940  208.7780 C.ar      1 ATP801      0.0000 
     32 H5'1      180.6120  151.3810  204.4600 H         1 ATP801      0.0000 
     33 H5'2      180.9030  149.8250  205.2270 H         1 ATP801      0.0000 
     34 H4'       182.1840  152.4820  205.9530 H         1 ATP801      0.0000 
     35 H3'       182.8860  150.2820  204.1770 H         1 ATP801      0.0000 
     36 HO3'      184.4710  151.9310  203.6210 H         1 ATP801      0.0000 
     37 H2'       184.3760  149.2550  205.4410 H         1 ATP801      0.0000 
     38 HO2'      185.9300  150.6920  204.7910 H         1 ATP801      0.0000 
     39 H1'       184.5590  151.0300  207.7740 H         1 ATP801      0.0000 
     40 H8        182.2830  148.2210  206.7340 H         1 ATP801      0.0000 
     41 HN61      183.9870  144.7260  209.9190 H         1 ATP801      0.0000 
     42 HN62      185.2770  144.7350  211.1040 H         1 ATP801      0.0000 
     43 H2        187.1180  148.9130  210.8660 H         1 ATP801      0.0000 
@<TRIPOS>BOND
     1    1    2 ar   
     2    1    3 ar   
     3    1    4 ar   
     4    1    8 1    
     5    5    6 ar   
     6    5    7 ar   
     7    5    8 1    
     8    5   12 1    
     9    9   10 ar   
    10    9   11 ar   
    11    9   12 1    
    12    9   13 1    
    13   13   14 1    
    14   14   15 1    
    15   14   32 1    
    16   14   33 1    
    17   15   16 1    
    18   15   17 1    
    19   15   34 1    
    20   16   21 1    
    21   17   18 1    
    22   17   19 1    
    23   17   35 1    
    24   18   36 1    
    25   19   20 1    
    26   19   21 1    
    27   19   37 1    
    28   20   38 1    
    29   21   22 1    
    30   21   39 1    
    31   22   23 1    
    32   22   31 1    
    33   23   24 2    
    34   23   40 1    
    35   24   25 1    
    36   25   26 ar   
    37   25   31 ar   
    38   26   27 1    
    39   26   28 ar   
    40   27   41 1    
    41   27   42 1    
    42   28   29 ar   
    43   29   30 ar   
    44   29   43 1    
    45   30   31 ar   
@<TRIPOS>SUBSTRUCTURE
     1 ATP801      1 GROUP   
@<TRIPOS>SET
ATOM$ORANGE STATIC     ATOMS   COLORGROUP SYSTEM 
20 14 14 15 15 17 17 19 19 21 21 23 23 25 25 26 26 29 \
29 31 31 

