#    Name: 6mdp_5_ATP
#    Modification time : Fri May 22 19:35:56 2020

@<TRIPOS>MOLECULE
6mdp_5_ATP
   43    45     1     0     1
SMALL
NO_CHARGES


@<TRIPOS>ATOM
      1 PG        159.6710  178.3120  207.3580 P.3       1 ATP801      0.0000 
      2 O1G       158.5990  178.7900  206.4110 O.co2     1 ATP801      0.0000 
      3 O2G       159.3470  178.5040  208.8140 O.co2     1 ATP801      0.0000 
      4 O3G       160.2700  176.9740  207.0040 O.co2     1 ATP801      0.0000 
      5 PB        161.5370  179.2960  205.6540 P.3       1 ATP801      0.0000 
      6 O1B       160.4540  179.6300  204.6620 O.co2     1 ATP801      0.0000 
      7 O2B       162.3030  178.0060  205.5190 O.co2     1 ATP801      0.0000 
      8 O3B       160.8910  179.3210  207.1140 O.3       1 ATP801      0.0000 
      9 PA        163.2320  180.8840  204.2680 P.3       1 ATP801      0.0000 
     10 O1A       162.1330  181.1170  203.2640 O.co2     1 ATP801      0.0000 
     11 O2A       164.3360  179.8940  204.0120 O.co2     1 ATP801      0.0000 
     12 O3A       162.5990  180.4920  205.6830 O.3       1 ATP801      0.0000 
     13 O5'       163.9970  182.2590  204.5500 O.3       1 ATP801      0.0000 
     14 C5'       164.4790  182.9870  203.4380 C.3       1 ATP801      0.0000 
     15 C4'       164.5850  184.4600  203.7670 C.3       1 ATP801      0.0000 
     16 O4'       165.5850  184.6620  204.7610 O.3       1 ATP801      0.0000 
     17 C3'       165.0150  185.2810  202.5670 C.3       1 ATP801      0.0000 
     18 O3'       163.8550  185.7980  201.9050 O.3       1 ATP801      0.0000 
     19 C2'       165.9380  186.3440  203.1470 C.3       1 ATP801      0.0000 
     20 O2'       165.4760  187.6830  202.9820 O.3       1 ATP801      0.0000 
     21 C1'       166.0460  186.0010  204.6190 C.3       1 ATP801      0.0000 
     22 N9        167.4080  186.2190  205.1580 N.pl3     1 ATP801      0.0000 
     23 C8        168.1430  187.3200  204.9530 C.2       1 ATP801      0.0000 
     24 N7        169.3170  187.2610  205.6280 N.2       1 ATP801      0.0000 
     25 C5        169.3200  186.1170  206.3230 C.ar      1 ATP801      0.0000 
     26 C6        170.2240  185.4180  207.2600 C.ar      1 ATP801      0.0000 
     27 N6        171.4110  185.9040  207.6280 N.pl3     1 ATP801      0.0000 
     28 N1        169.8480  184.2420  207.7750 N.ar      1 ATP801      0.0000 
     29 C2        168.6760  183.6950  207.4590 C.ar      1 ATP801      0.0000 
     30 N3        167.8030  184.2760  206.6190 N.ar      1 ATP801      0.0000 
     31 C4        168.0470  185.4580  206.0320 C.ar      1 ATP801      0.0000 
     32 H5'1      163.8010  182.8510  202.5950 H         1 ATP801      0.0000 
     33 H5'2      165.4470  182.5980  203.1520 H         1 ATP801      0.0000 
     34 H4'       163.6180  184.8220  204.1350 H         1 ATP801      0.0000 
     35 H3'       165.5910  184.6390  201.8920 H         1 ATP801      0.0000 
     36 HO3'      164.1050  186.3170  201.1300 H         1 ATP801      0.0000 
     37 H2'       166.9220  186.2230  202.6820 H         1 ATP801      0.0000 
     38 HO2'      165.4030  187.8680  202.0430 H         1 ATP801      0.0000 
     39 H1'       165.3570  186.6650  205.1500 H         1 ATP801      0.0000 
     40 H8        167.8570  188.1220  204.2880 H         1 ATP801      0.0000 
     41 HN61      171.7380  186.7740  207.2690 H         1 ATP801      0.0000 
     42 HN62      171.9740  185.3760  208.2640 H         1 ATP801      0.0000 
     43 H2        168.4240  182.7440  207.9060 H         1 ATP801      0.0000 
@<TRIPOS>BOND
     1    1    2 ar   
     2    1    3 ar   
     3    1    4 ar   
     4    1    8 1    
     5    5    6 ar   
     6    5    7 ar   
     7    5    8 1    
     8    5   12 1    
     9    9   10 ar   
    10    9   11 ar   
    11    9   12 1    
    12    9   13 1    
    13   13   14 1    
    14   14   15 1    
    15   14   32 1    
    16   14   33 1    
    17   15   16 1    
    18   15   17 1    
    19   15   34 1    
    20   16   21 1    
    21   17   18 1    
    22   17   19 1    
    23   17   35 1    
    24   18   36 1    
    25   19   20 1    
    26   19   21 1    
    27   19   37 1    
    28   20   38 1    
    29   21   22 1    
    30   21   39 1    
    31   22   23 1    
    32   22   31 1    
    33   23   24 2    
    34   23   40 1    
    35   24   25 1    
    36   25   26 ar   
    37   25   31 ar   
    38   26   27 1    
    39   26   28 ar   
    40   27   41 1    
    41   27   42 1    
    42   28   29 ar   
    43   29   30 ar   
    44   29   43 1    
    45   30   31 ar   
@<TRIPOS>SUBSTRUCTURE
     1 ATP801      1 GROUP   
@<TRIPOS>SET
ATOM$ORANGE STATIC     ATOMS   COLORGROUP SYSTEM 
20 14 14 15 15 17 17 19 19 21 21 23 23 25 25 26 26 29 \
29 31 31 

