#    Name: 6mdp_4_ATP
#    Modification time : Fri May 22 19:35:45 2020

@<TRIPOS>MOLECULE
6mdp_4_ATP
   43    45     1     0     1
SMALL
NO_CHARGES


@<TRIPOS>ATOM
      1 PG        146.9390  179.9230  171.0440 P.3       1 ATP802      0.0000 
      2 O1G       147.0470  178.4900  170.5900 O.co2     1 ATP802      0.0000 
      3 O2G       145.5850  180.5260  170.7740 O.co2     1 ATP802      0.0000 
      4 O3G       147.5660  180.2030  172.3790 O.co2     1 ATP802      0.0000 
      5 PB        148.2710  182.1790  170.4010 P.3       1 ATP802      0.0000 
      6 O1B       149.6230  182.0870  171.0270 O.co2     1 ATP802      0.0000 
      7 O2B       147.1270  182.6860  171.2380 O.co2     1 ATP802      0.0000 
      8 O3B       147.8940  180.6800  170.0090 O.3       1 ATP802      0.0000 
      9 PA        147.3070  184.3520  168.9010 P.3       1 ATP802      0.0000 
     10 O1A       145.8900  183.8620  168.8910 O.co2     1 ATP802      0.0000 
     11 O2A       147.7750  185.3240  169.9530 O.co2     1 ATP802      0.0000 
     12 O3A       148.2360  183.0500  169.0420 O.3       1 ATP802      0.0000 
     13 O5'       147.6030  185.0410  167.4800 O.3       1 ATP802      0.0000 
     14 C5'       146.5670  185.2510  166.5160 C.3       1 ATP802      0.0000 
     15 C4'       145.6720  186.4230  166.9390 C.3       1 ATP802      0.0000 
     16 O4'       146.3460  187.2770  167.8510 O.3       1 ATP802      0.0000 
     17 C3'       145.1700  187.2890  165.7810 C.3       1 ATP802      0.0000 
     18 O3'       143.8140  186.9310  165.4990 O.3       1 ATP802      0.0000 
     19 C2'       145.3190  188.7220  166.2710 C.3       1 ATP802      0.0000 
     20 O2'       144.0920  189.4540  166.3580 O.3       1 ATP802      0.0000 
     21 C1'       145.8800  188.6110  167.6790 C.3       1 ATP802      0.0000 
     22 N9        147.0400  189.4640  167.9420 N.pl3     1 ATP802      0.0000 
     23 C8        148.1510  189.2050  167.2650 C.2       1 ATP802      0.0000 
     24 N7        149.1730  189.9810  167.6450 N.2       1 ATP802      0.0000 
     25 C5        148.7230  190.7020  168.6610 C.ar      1 ATP802      0.0000 
     26 C6        149.3420  191.7050  169.5070 C.ar      1 ATP802      0.0000 
     27 N6        150.6320  192.0170  169.2620 N.pl3     1 ATP802      0.0000 
     28 N1        148.5770  192.2410  170.4720 N.ar      1 ATP802      0.0000 
     29 C2        147.2950  191.8730  170.6450 C.ar      1 ATP802      0.0000 
     30 N3        146.6690  190.9530  169.8930 N.ar      1 ATP802      0.0000 
     31 C4        147.3350  190.3160  168.9140 C.ar      1 ATP802      0.0000 
     32 H5'1      145.9640  184.3480  166.4330 H         1 ATP802      0.0000 
     33 H5'2      147.0330  185.4330  165.5500 H         1 ATP802      0.0000 
     34 H4'       144.7910  186.0010  167.4110 H         1 ATP802      0.0000 
     35 H3'       145.7830  187.1670  164.8810 H         1 ATP802      0.0000 
     36 HO3'      143.4760  187.4370  164.7520 H         1 ATP802      0.0000 
     37 H2'       145.9920  189.2600  165.5970 H         1 ATP802      0.0000 
     38 HO2'      143.6630  189.5170  165.4990 H         1 ATP802      0.0000 
     39 H1'       145.0840  188.8350  168.3910 H         1 ATP802      0.0000 
     40 H8        148.1740  188.5060  166.4500 H         1 ATP802      0.0000 
     41 HN61      151.1210  192.6970  169.8100 H         1 ATP802      0.0000 
     42 HN62      151.1120  191.5470  168.5120 H         1 ATP802      0.0000 
     43 H2        146.7380  192.3530  171.4280 H         1 ATP802      0.0000 
@<TRIPOS>BOND
     1    1    2 ar   
     2    1    3 ar   
     3    1    4 ar   
     4    1    8 1    
     5    5    6 ar   
     6    5    7 ar   
     7    5    8 1    
     8    5   12 1    
     9    9   10 ar   
    10    9   11 ar   
    11    9   12 1    
    12    9   13 1    
    13   13   14 1    
    14   14   15 1    
    15   14   32 1    
    16   14   33 1    
    17   15   16 1    
    18   15   17 1    
    19   15   34 1    
    20   16   21 1    
    21   17   18 1    
    22   17   19 1    
    23   17   35 1    
    24   18   36 1    
    25   19   20 1    
    26   19   21 1    
    27   19   37 1    
    28   20   38 1    
    29   21   22 1    
    30   21   39 1    
    31   22   23 1    
    32   22   31 1    
    33   23   24 2    
    34   23   40 1    
    35   24   25 1    
    36   25   26 ar   
    37   25   31 ar   
    38   26   27 1    
    39   26   28 ar   
    40   27   41 1    
    41   27   42 1    
    42   28   29 ar   
    43   29   30 ar   
    44   29   43 1    
    45   30   31 ar   
@<TRIPOS>SUBSTRUCTURE
     1 ATP802      1 GROUP   
@<TRIPOS>SET
ATOM$ORANGE STATIC     ATOMS   COLORGROUP SYSTEM 
20 14 14 15 15 17 17 19 19 21 21 23 23 25 25 26 26 29 \
29 31 31 

