#    Name: 6mdp_6_ATP
#    Modification time : Fri May 22 19:36:06 2020

@<TRIPOS>MOLECULE
6mdp_6_ATP
   43    45     1     0     1
SMALL
NO_CHARGES


@<TRIPOS>ATOM
      1 PG        171.9210  164.7660  170.4160 P.3       1 ATP802      0.0000 
      2 O1G       172.1000  164.4590  168.9500 O.co2     1 ATP802      0.0000 
      3 O2G       170.5230  165.1810  170.7970 O.co2     1 ATP802      0.0000 
      4 O3G       172.5620  163.7760  171.3570 O.co2     1 ATP802      0.0000 
      5 PB        174.3800  165.9760  170.4610 P.3       1 ATP802      0.0000 
      6 O1B       174.6610  165.2030  169.2000 O.co2     1 ATP802      0.0000 
      7 O2B       174.9620  165.5220  171.7720 O.co2     1 ATP802      0.0000 
      8 O3B       172.7940  166.0920  170.6420 O.3       1 ATP802      0.0000 
      9 PA        175.7720  167.7530  168.9400 P.3       1 ATP802      0.0000 
     10 O1A       174.9220  167.7000  167.7010 O.co2     1 ATP802      0.0000 
     11 O2A       176.9520  166.8340  169.0530 O.co2     1 ATP802      0.0000 
     12 O3A       174.8290  167.4900  170.2070 O.3       1 ATP802      0.0000 
     13 O5'       176.2210  169.2830  169.1120 O.3       1 ATP802      0.0000 
     14 C5'       176.8960  169.9090  168.0320 C.3       1 ATP802      0.0000 
     15 C4'       177.2180  171.3610  168.3420 C.3       1 ATP802      0.0000 
     16 O4'       177.9490  171.4940  169.5660 O.3       1 ATP802      0.0000 
     17 C3'       178.1080  171.9000  167.2500 C.3       1 ATP802      0.0000 
     18 O3'       177.7770  173.2600  166.9590 O.3       1 ATP802      0.0000 
     19 C2'       179.4930  171.7770  167.8200 C.3       1 ATP802      0.0000 
     20 O2'       180.3790  172.7730  167.3120 O.3       1 ATP802      0.0000 
     21 C1'       179.2870  171.9300  169.3130 C.3       1 ATP802      0.0000 
     22 N9        180.2500  171.1160  170.0790 N.pl3     1 ATP802      0.0000 
     23 C8        179.9650  170.4010  171.1770 C.2       1 ATP802      0.0000 
     24 N7        181.0730  169.7800  171.6450 N.2       1 ATP802      0.0000 
     25 C5        182.0850  170.1080  170.8320 C.ar      1 ATP802      0.0000 
     26 C6        183.5170  169.7960  170.7500 C.ar      1 ATP802      0.0000 
     27 N6        184.0740  168.9860  171.6670 N.pl3     1 ATP802      0.0000 
     28 N1        184.2380  170.3410  169.7520 N.ar      1 ATP802      0.0000 
     29 C2        183.6770  171.1510  168.8380 C.ar      1 ATP802      0.0000 
     30 N3        182.3750  171.4760  168.8560 N.ar      1 ATP802      0.0000 
     31 C4        181.5450  170.9980  169.8090 C.ar      1 ATP802      0.0000 
     32 H5'1      176.2810  169.8490  167.1370 H         1 ATP802      0.0000 
     33 H5'2      177.8250  169.3760  167.8350 H         1 ATP802      0.0000 
     34 H4'       176.2920  171.9450  168.3770 H         1 ATP802      0.0000 
     35 H3'       178.0220  171.2700  166.3580 H         1 ATP802      0.0000 
     36 HO3'      178.2990  173.5710  166.2080 H         1 ATP802      0.0000 
     37 H2'       179.8580  170.7690  167.6000 H         1 ATP802      0.0000 
     38 HO2'      180.5960  172.5570  166.3960 H         1 ATP802      0.0000 
     39 H1'       179.3970  172.9870  169.5770 H         1 ATP802      0.0000 
     40 H8        178.9840  170.3290  171.6220 H         1 ATP802      0.0000 
     41 HN61      185.0550  168.7730  171.6170 H         1 ATP802      0.0000 
     42 HN62      183.5010  168.6000  172.4010 H         1 ATP802      0.0000 
     43 H2        184.3000  171.5610  168.0540 H         1 ATP802      0.0000 
@<TRIPOS>BOND
     1    1    2 ar   
     2    1    3 ar   
     3    1    4 ar   
     4    1    8 1    
     5    5    6 ar   
     6    5    7 ar   
     7    5    8 1    
     8    5   12 1    
     9    9   10 ar   
    10    9   11 ar   
    11    9   12 1    
    12    9   13 1    
    13   13   14 1    
    14   14   15 1    
    15   14   32 1    
    16   14   33 1    
    17   15   16 1    
    18   15   17 1    
    19   15   34 1    
    20   16   21 1    
    21   17   18 1    
    22   17   19 1    
    23   17   35 1    
    24   18   36 1    
    25   19   20 1    
    26   19   21 1    
    27   19   37 1    
    28   20   38 1    
    29   21   22 1    
    30   21   39 1    
    31   22   23 1    
    32   22   31 1    
    33   23   24 2    
    34   23   40 1    
    35   24   25 1    
    36   25   26 ar   
    37   25   31 ar   
    38   26   27 1    
    39   26   28 ar   
    40   27   41 1    
    41   27   42 1    
    42   28   29 ar   
    43   29   30 ar   
    44   29   43 1    
    45   30   31 ar   
@<TRIPOS>SUBSTRUCTURE
     1 ATP802      1 GROUP   
@<TRIPOS>SET
ATOM$ORANGE STATIC     ATOMS   COLORGROUP SYSTEM 
20 14 14 15 15 17 17 19 19 21 21 23 23 25 25 26 26 29 \
29 31 31 

