#    Name: 6mdp_1_ADP
#    Modification time : Fri May 22 19:35:12 2020

@<TRIPOS>MOLECULE
6mdp_1_ADP
   39    41     1     0     1
SMALL
NO_CHARGES


@<TRIPOS>ATOM
      1 PB        119.0560  170.2770  170.0940 P.3       1 ADP801      0.0000 
      2 O1B       119.8520  170.0060  168.8430 O.co2     1 ADP801      0.0000 
      3 O2B       119.3360  171.5820  170.7900 O.co2     1 ADP801      0.0000 
      4 O3B       118.9980  169.0680  170.9900 O.co2     1 ADP801      0.0000 
      5 PA        116.9640  169.2690  168.6110 P.3       1 ADP801      0.0000 
      6 O1A       117.6730  169.3650  167.2850 O.co2     1 ADP801      0.0000 
      7 O2A       117.0670  167.9970  169.4120 O.co2     1 ADP801      0.0000 
      8 O3A       117.5500  170.4280  169.5540 O.3       1 ADP801      0.0000 
      9 O5'       115.4260  169.6700  168.3750 O.3       1 ADP801      0.0000 
     10 C5'       114.5070  168.6670  167.9490 C.3       1 ADP801      0.0000 
     11 C4'       113.1880  169.3180  167.5630 C.3       1 ADP801      0.0000 
     12 O4'       112.6890  170.1750  168.5900 O.3       1 ADP801      0.0000 
     13 C3'       113.4000  170.1410  166.3120 C.3       1 ADP801      0.0000 
     14 O3'       112.8470  169.4480  165.1870 O.3       1 ADP801      0.0000 
     15 C2'       112.7060  171.4490  166.6200 C.3       1 ADP801      0.0000 
     16 O2'       111.6750  171.8160  165.6930 O.3       1 ADP801      0.0000 
     17 C1'       112.1150  171.3430  168.0030 C.3       1 ADP801      0.0000 
     18 N9        112.5990  172.5410  168.6940 N.pl3     1 ADP801      0.0000 
     19 C8        113.6550  172.5200  169.5170 C.2       1 ADP801      0.0000 
     20 N7        113.8400  173.7390  170.0570 N.2       1 ADP801      0.0000 
     21 C5        112.8940  174.5480  169.5880 C.ar      1 ADP801      0.0000 
     22 C6        112.5600  175.9590  169.7830 C.ar      1 ADP801      0.0000 
     23 N6        113.3280  176.7120  170.5970 N.pl3     1 ADP801      0.0000 
     24 N1        111.4890  176.4360  169.1270 N.ar      1 ADP801      0.0000 
     25 C2        110.7470  175.6490  168.3250 C.ar      1 ADP801      0.0000 
     26 N3        111.0040  174.3480  168.1090 N.ar      1 ADP801      0.0000 
     27 C4        112.0340  173.7420  168.7300 C.ar      1 ADP801      0.0000 
     28 H5'1      114.3480  167.9570  168.7600 H         1 ADP801      0.0000 
     29 H5'2      114.9250  168.1330  167.0960 H         1 ADP801      0.0000 
     30 H4'       112.4550  168.5300  167.3450 H         1 ADP801      0.0000 
     31 H3'       114.4720  170.3250  166.1710 H         1 ADP801      0.0000 
     32 HO3'      112.9760  169.9560  164.3770 H         1 ADP801      0.0000 
     33 H2'       113.4670  172.2330  166.6740 H         1 ADP801      0.0000 
     34 HO2'      112.0420  171.9420  164.8100 H         1 ADP801      0.0000 
     35 H1'       111.0200  171.3030  167.9570 H         1 ADP801      0.0000 
     36 H8        114.2810  171.6580  169.7110 H         1 ADP801      0.0000 
     37 HN61      113.1130  177.6810  170.7430 H         1 ADP801      0.0000 
     38 HN62      114.1240  176.2960  171.0610 H         1 ADP801      0.0000 
     39 H2        109.8930  176.0900  167.8300 H         1 ADP801      0.0000 
@<TRIPOS>BOND
     1    1    2 ar   
     2    1    3 ar   
     3    1    4 ar   
     4    1    8 1    
     5    5    6 ar   
     6    5    7 ar   
     7    5    8 1    
     8    5    9 1    
     9    9   10 1    
    10   10   11 1    
    11   10   28 1    
    12   10   29 1    
    13   11   12 1    
    14   11   13 1    
    15   11   30 1    
    16   12   17 1    
    17   13   14 1    
    18   13   15 1    
    19   13   31 1    
    20   14   32 1    
    21   15   16 1    
    22   15   17 1    
    23   15   33 1    
    24   16   34 1    
    25   17   18 1    
    26   17   35 1    
    27   18   19 1    
    28   18   27 1    
    29   19   20 2    
    30   19   36 1    
    31   20   21 1    
    32   21   22 ar   
    33   21   27 ar   
    34   22   23 1    
    35   22   24 ar   
    36   23   37 1    
    37   23   38 1    
    38   24   25 ar   
    39   25   26 ar   
    40   25   39 1    
    41   26   27 ar   
@<TRIPOS>SUBSTRUCTURE
     1 ADP801      1 GROUP   
@<TRIPOS>SET
ATOM$ORANGE STATIC     ATOMS   COLORGROUP SYSTEM 
20 10 10 11 11 13 13 15 15 17 17 19 19 21 21 22 22 25 \
25 27 27 

