#    Name: 6mdp_3_ATP
#    Modification time : Fri May 22 19:35:34 2020

@<TRIPOS>MOLECULE
6mdp_3_ATP
   43    45     1     0     1
SMALL
NO_CHARGES


@<TRIPOS>ATOM
      1 PG        129.9470  180.1900  205.7020 P.3       1 ATP801      0.0000 
      2 O1G       129.6070  179.8180  204.2810 O.co2     1 ATP801      0.0000 
      3 O2G       129.1980  179.3990  206.7440 O.co2     1 ATP801      0.0000 
      4 O3G       131.4140  180.3690  205.9920 O.co2     1 ATP801      0.0000 
      5 PB        129.9010  182.8300  204.8900 P.3       1 ATP801      0.0000 
      6 O1B       130.6890  182.2030  203.7700 O.co2     1 ATP801      0.0000 
      7 O2B       130.5210  183.9190  205.7260 O.co2     1 ATP801      0.0000 
      8 O3B       129.3690  181.6750  205.8630 O.3       1 ATP801      0.0000 
      9 PA        128.6580  184.4120  203.0530 P.3       1 ATP801      0.0000 
     10 O1A       128.4990  183.6470  201.7620 O.co2     1 ATP801      0.0000 
     11 O2A       129.8870  185.2370  203.3110 O.co2     1 ATP801      0.0000 
     12 O3A       128.5380  183.4060  204.2880 O.3       1 ATP801      0.0000 
     13 O5'       127.3450  185.2880  203.3050 O.3       1 ATP801      0.0000 
     14 C5'       126.9990  186.2290  202.3120 C.3       1 ATP801      0.0000 
     15 C4'       126.1970  187.3570  202.9270 C.3       1 ATP801      0.0000 
     16 O4'       126.8400  187.8280  204.1050 O.3       1 ATP801      0.0000 
     17 C3'       126.0960  188.5350  201.9800 C.3       1 ATP801      0.0000 
     18 O3'       124.8470  188.6420  201.3320 O.3       1 ATP801      0.0000 
     19 C2'       126.4530  189.7400  202.8150 C.3       1 ATP801      0.0000 
     20 O2'       125.3370  190.5980  203.0810 O.3       1 ATP801      0.0000 
     21 C1'       126.5780  189.2210  204.2040 C.3       1 ATP801      0.0000 
     22 N9        127.6900  189.9380  204.8110 N.pl3     1 ATP801      0.0000 
     23 C8        128.9410  189.5030  204.7640 C.2       1 ATP801      0.0000 
     24 N7        129.7710  190.3130  205.4660 N.2       1 ATP801      0.0000 
     25 C5        129.0030  191.2790  205.9890 C.ar      1 ATP801      0.0000 
     26 C6        129.2040  192.4660  206.8320 C.ar      1 ATP801      0.0000 
     27 N6        130.4230  192.8230  207.2820 N.pl3     1 ATP801      0.0000 
     28 N1        128.1120  193.1820  207.1350 N.ar      1 ATP801      0.0000 
     29 C2        126.8770  192.8600  206.7090 C.ar      1 ATP801      0.0000 
     30 N3        126.6270  191.8080  205.9340 N.ar      1 ATP801      0.0000 
     31 C4        127.6280  190.9960  205.5750 C.ar      1 ATP801      0.0000 
     32 H5'1      126.4220  185.7530  201.5190 H         1 ATP801      0.0000 
     33 H5'2      127.9270  186.6080  201.8860 H         1 ATP801      0.0000 
     34 H4'       125.1880  187.0060  203.1610 H         1 ATP801      0.0000 
     35 H3'       126.8720  188.4580  201.2120 H         1 ATP801      0.0000 
     36 HO3'      124.9590  189.4160  200.7810 H         1 ATP801      0.0000 
     37 H2'       127.3570  190.2620  202.4900 H         1 ATP801      0.0000 
     38 HO2'      124.9200  190.9790  202.3080 H         1 ATP801      0.0000 
     39 H1'       125.6460  189.4170  204.7400 H         1 ATP801      0.0000 
     40 H8        129.2260  188.6150  204.2250 H         1 ATP801      0.0000 
     41 HN61      130.5310  193.6440  207.8600 H         1 ATP801      0.0000 
     42 HN62      131.2240  192.2640  207.0380 H         1 ATP801      0.0000 
     43 H2        126.0430  193.4900  206.9890 H         1 ATP801      0.0000 
@<TRIPOS>BOND
     1    1    2 ar   
     2    1    3 ar   
     3    1    4 ar   
     4    1    8 1    
     5    5    6 ar   
     6    5    7 ar   
     7    5    8 1    
     8    5   12 1    
     9    9   10 ar   
    10    9   11 ar   
    11    9   12 1    
    12    9   13 1    
    13   13   14 1    
    14   14   15 1    
    15   14   32 1    
    16   14   33 1    
    17   15   16 1    
    18   15   17 1    
    19   15   34 1    
    20   16   21 1    
    21   17   18 1    
    22   17   19 1    
    23   17   35 1    
    24   18   36 1    
    25   19   20 1    
    26   19   21 1    
    27   19   37 1    
    28   20   38 1    
    29   21   22 1    
    30   21   39 1    
    31   22   23 1    
    32   22   31 1    
    33   23   24 2    
    34   23   40 1    
    35   24   25 1    
    36   25   26 ar   
    37   25   31 ar   
    38   26   27 1    
    39   26   28 ar   
    40   27   41 1    
    41   27   42 1    
    42   28   29 ar   
    43   29   30 ar   
    44   29   43 1    
    45   30   31 ar   
@<TRIPOS>SUBSTRUCTURE
     1 ATP801      1 GROUP   
@<TRIPOS>SET
ATOM$ORANGE STATIC     ATOMS   COLORGROUP SYSTEM 
20 14 14 15 15 17 17 19 19 21 21 23 23 25 25 26 26 29 \
29 31 31 

