#    Name: 6mdp_11_ATP
#    Modification time : Fri May 22 19:36:55 2020

@<TRIPOS>MOLECULE
6mdp_11_ATP
   43    45     1     0     1
SMALL
NO_CHARGES


@<TRIPOS>ATOM
      1 PG        127.9520  128.0800  208.1200 P.3       1 ATP801      0.0000 
      2 O1G       128.4000  128.1670  206.6870 O.co2     1 ATP801      0.0000 
      3 O2G       126.8670  129.0870  208.4080 O.co2     1 ATP801      0.0000 
      4 O3G       129.0380  127.9530  209.1600 O.co2     1 ATP801      0.0000 
      5 PB        125.8600  126.5830  207.2480 P.3       1 ATP801      0.0000 
      6 O1B       126.2650  126.8500  205.8220 O.co2     1 ATP801      0.0000 
      7 O2B       124.7840  127.4220  207.8910 O.co2     1 ATP801      0.0000 
      8 O3B       127.1510  126.6950  208.1860 O.3       1 ATP801      0.0000 
      9 PA        124.1900  124.6640  206.3610 P.3       1 ATP801      0.0000 
     10 O1A       124.6210  124.9090  204.9380 O.co2     1 ATP801      0.0000 
     11 O2A       122.9820  125.3370  206.9430 O.co2     1 ATP801      0.0000 
     12 O3A       125.3810  125.0580  207.3550 O.3       1 ATP801      0.0000 
     13 O5'       124.0270  123.0710  206.6000 O.3       1 ATP801      0.0000 
     14 C5'       123.1210  122.3140  205.7900 C.3       1 ATP801      0.0000 
     15 C4'       123.1040  120.8130  206.1090 C.3       1 ATP801      0.0000 
     16 O4'       122.4150  120.4620  207.3250 O.3       1 ATP801      0.0000 
     17 C3'       122.3870  120.0560  205.0050 C.3       1 ATP801      0.0000 
     18 O3'       123.3550  119.2190  204.3680 O.3       1 ATP801      0.0000 
     19 C2'       121.2740  119.2560  205.6590 C.3       1 ATP801      0.0000 
     20 O2'       121.1610  117.9020  205.2060 O.3       1 ATP801      0.0000 
     21 C1'       121.5450  119.3210  207.1540 C.3       1 ATP801      0.0000 
     22 N9        120.3290  119.4270  208.0170 N.pl3     1 ATP801      0.0000 
     23 C8        120.1640  118.6200  209.0790 C.2       1 ATP801      0.0000 
     24 N7        118.9930  118.8560  209.7130 N.2       1 ATP801      0.0000 
     25 C5        118.3610  119.8200  209.0430 C.ar      1 ATP801      0.0000 
     26 C6        117.0770  120.5340  209.1810 C.ar      1 ATP801      0.0000 
     27 N6        116.2190  120.2540  210.1880 N.pl3     1 ATP801      0.0000 
     28 N1        116.7900  121.4760  208.2640 N.ar      1 ATP801      0.0000 
     29 C2        117.6270  121.7690  207.2580 C.ar      1 ATP801      0.0000 
     30 N3        118.8070  121.1500  207.0860 N.ar      1 ATP801      0.0000 
     31 C4        119.2320  120.1850  207.9200 C.ar      1 ATP801      0.0000 
     32 H5'1      123.4180  122.4490  204.7490 H         1 ATP801      0.0000 
     33 H5'2      122.1150  122.7180  205.8980 H         1 ATP801      0.0000 
     34 H4'       124.1400  120.4540  206.1560 H         1 ATP801      0.0000 
     35 H3'       121.9460  120.7580  204.2870 H         1 ATP801      0.0000 
     36 HO3'      122.9480  118.7160  203.6570 H         1 ATP801      0.0000 
     37 H2'       120.3400  119.7760  205.4260 H         1 ATP801      0.0000 
     38 HO2'      120.9530  117.8970  204.2620 H         1 ATP801      0.0000 
     39 H1'       122.0890  118.4090  207.4260 H         1 ATP801      0.0000 
     40 H8        120.8930  117.8910  209.4010 H         1 ATP801      0.0000 
     41 HN61      115.3470  120.7570  210.2600 H         1 ATP801      0.0000 
     42 HN62      116.4510  119.5430  210.8660 H         1 ATP801      0.0000 
     43 H2        117.3360  122.5390  206.5550 H         1 ATP801      0.0000 
@<TRIPOS>BOND
     1    1    2 ar   
     2    1    3 ar   
     3    1    4 ar   
     4    1    8 1    
     5    5    6 ar   
     6    5    7 ar   
     7    5    8 1    
     8    5   12 1    
     9    9   10 ar   
    10    9   11 ar   
    11    9   12 1    
    12    9   13 1    
    13   13   14 1    
    14   14   15 1    
    15   14   32 1    
    16   14   33 1    
    17   15   16 1    
    18   15   17 1    
    19   15   34 1    
    20   16   21 1    
    21   17   18 1    
    22   17   19 1    
    23   17   35 1    
    24   18   36 1    
    25   19   20 1    
    26   19   21 1    
    27   19   37 1    
    28   20   38 1    
    29   21   22 1    
    30   21   39 1    
    31   22   23 1    
    32   22   31 1    
    33   23   24 2    
    34   23   40 1    
    35   24   25 1    
    36   25   26 ar   
    37   25   31 ar   
    38   26   27 1    
    39   26   28 ar   
    40   27   41 1    
    41   27   42 1    
    42   28   29 ar   
    43   29   30 ar   
    44   29   43 1    
    45   30   31 ar   
@<TRIPOS>SUBSTRUCTURE
     1 ATP801      1 GROUP   
@<TRIPOS>SET
ATOM$ORANGE STATIC     ATOMS   COLORGROUP SYSTEM 
20 14 14 15 15 17 17 19 19 21 21 23 23 25 25 26 26 29 \
29 31 31 

