#    Name: 6mdp_9_ATP
#    Modification time : Fri May 22 19:36:36 2020

@<TRIPOS>MOLECULE
6mdp_9_ATP
   43    45     1     0     1
SMALL
NO_CHARGES


@<TRIPOS>ATOM
      1 PG        157.5850  125.9560  209.2210 P.3       1 ATP801      0.0000 
      2 O1G       156.6280  126.2410  208.0920 O.co2     1 ATP801      0.0000 
      3 O2G       158.9950  126.4280  208.9710 O.co2     1 ATP801      0.0000 
      4 O3G       157.0520  126.2510  210.5990 O.co2     1 ATP801      0.0000 
      5 PB        158.4320  123.6810  207.9240 P.3       1 ATP801      0.0000 
      6 O1B       157.9750  124.3970  206.6800 O.co2     1 ATP801      0.0000 
      7 O2B       159.9020  123.5290  208.2240 O.co2     1 ATP801      0.0000 
      8 O3B       157.7170  124.3600  209.1880 O.3       1 ATP801      0.0000 
      9 PA        158.0680  121.1680  206.7730 P.3       1 ATP801      0.0000 
     10 O1A       158.7810  121.9010  205.6650 O.co2     1 ATP801      0.0000 
     11 O2A       156.7840  120.4340  206.4730 O.co2     1 ATP801      0.0000 
     12 O3A       157.7580  122.2310  207.9330 O.3       1 ATP801      0.0000 
     13 O5'       159.0870  120.1290  207.4600 O.3       1 ATP801      0.0000 
     14 C5'       160.3670  120.0010  206.8650 C.3       1 ATP801      0.0000 
     15 C4'       161.3090  119.0710  207.6400 C.3       1 ATP801      0.0000 
     16 O4'       160.6030  118.0310  208.3320 O.3       1 ATP801      0.0000 
     17 C3'       162.3170  118.3610  206.7360 C.3       1 ATP801      0.0000 
     18 O3'       163.5790  119.0350  206.8160 O.3       1 ATP801      0.0000 
     19 C2'       162.3530  116.9200  207.2190 C.3       1 ATP801      0.0000 
     20 O2'       163.6350  116.4790  207.6740 O.3       1 ATP801      0.0000 
     21 C1'       161.3750  116.8200  208.3820 C.3       1 ATP801      0.0000 
     22 N9        160.4710  115.6340  208.3760 N.pl3     1 ATP801      0.0000 
     23 C8        159.8380  115.0540  207.3390 C.2       1 ATP801      0.0000 
     24 N7        159.0740  114.0100  207.7480 N.2       1 ATP801      0.0000 
     25 C5        159.1960  113.9260  209.0790 C.ar      1 ATP801      0.0000 
     26 C6        158.6670  113.0660  210.1540 C.ar      1 ATP801      0.0000 
     27 N6        157.8360  112.0650  209.8760 N.pl3     1 ATP801      0.0000 
     28 N1        159.0210  113.2880  211.4220 N.ar      1 ATP801      0.0000 
     29 C2        159.8490  114.2820  211.7170 C.ar      1 ATP801      0.0000 
     30 N3        160.3770  115.1070  210.7920 N.ar      1 ATP801      0.0000 
     31 C4        160.0880  115.0040  209.4830 C.ar      1 ATP801      0.0000 
     32 H5'1      160.2150  119.6700  205.8390 H         1 ATP801      0.0000 
     33 H5'2      160.8140  120.9940  206.8230 H         1 ATP801      0.0000 
     34 H4'       161.8600  119.6800  208.3670 H         1 ATP801      0.0000 
     35 H3'       161.9810  118.3430  205.6930 H         1 ATP801      0.0000 
     36 HO3'      164.2280  118.6200  206.2340 H         1 ATP801      0.0000 
     37 H2'       162.0510  116.2980  206.3800 H         1 ATP801      0.0000 
     38 HO2'      164.2750  116.5240  206.9580 H         1 ATP801      0.0000 
     39 H1'       161.9670  116.7980  209.3040 H         1 ATP801      0.0000 
     40 H8        159.9420  115.3680  206.3110 H         1 ATP801      0.0000 
     41 HN61      157.5780  111.9170  208.9290 H         1 ATP801      0.0000 
     42 HN62      157.4790  111.4800  210.6080 H         1 ATP801      0.0000 
     43 H2        160.1130  114.4260  212.7550 H         1 ATP801      0.0000 
@<TRIPOS>BOND
     1    1    2 ar   
     2    1    3 ar   
     3    1    4 ar   
     4    1    8 1    
     5    5    6 ar   
     6    5    7 ar   
     7    5    8 1    
     8    5   12 1    
     9    9   10 ar   
    10    9   11 ar   
    11    9   12 1    
    12    9   13 1    
    13   13   14 1    
    14   14   15 1    
    15   14   32 1    
    16   14   33 1    
    17   15   16 1    
    18   15   17 1    
    19   15   34 1    
    20   16   21 1    
    21   17   18 1    
    22   17   19 1    
    23   17   35 1    
    24   18   36 1    
    25   19   20 1    
    26   19   21 1    
    27   19   37 1    
    28   20   38 1    
    29   21   22 1    
    30   21   39 1    
    31   22   23 1    
    32   22   31 1    
    33   23   24 2    
    34   23   40 1    
    35   24   25 1    
    36   25   26 ar   
    37   25   31 ar   
    38   26   27 1    
    39   26   28 ar   
    40   27   41 1    
    41   27   42 1    
    42   28   29 ar   
    43   29   30 ar   
    44   29   43 1    
    45   30   31 ar   
@<TRIPOS>SUBSTRUCTURE
     1 ATP801      1 GROUP   
@<TRIPOS>SET
ATOM$ORANGE STATIC     ATOMS   COLORGROUP SYSTEM 
20 14 14 15 15 17 17 19 19 21 21 23 23 25 25 26 26 29 \
29 31 31 

