#    Name: 6mdp_10_ADP
#    Modification time : Fri May 22 19:36:47 2020

@<TRIPOS>MOLECULE
6mdp_10_ADP
   39    41     1     0     1
SMALL
NO_CHARGES


@<TRIPOS>ATOM
      1 PB        151.5270  117.3280  165.2740 P.3       1 ADP802      0.0000 
      2 O1B       152.0890  117.9060  163.9980 O.co2     1 ADP802      0.0000 
      3 O2B       152.0960  117.9260  166.5360 O.co2     1 ADP802      0.0000 
      4 O3B       150.0310  117.1650  165.2810 O.co2     1 ADP802      0.0000 
      5 PA        151.7720  114.7780  164.1200 P.3       1 ADP802      0.0000 
      6 O1A       152.1490  115.4970  162.8500 O.co2     1 ADP802      0.0000 
      7 O2A       150.4150  114.1460  164.3190 O.co2     1 ADP802      0.0000 
      8 O3A       152.0600  115.8140  165.3140 O.3       1 ADP802      0.0000 
      9 O5'       152.9260  113.7140  164.4550 O.3       1 ADP802      0.0000 
     10 C5'       153.6480  113.0360  163.4340 C.3       1 ADP802      0.0000 
     11 C4'       154.8830  112.4590  164.0980 C.3       1 ADP802      0.0000 
     12 O4'       154.4560  111.5770  165.1300 O.3       1 ADP802      0.0000 
     13 C3'       155.7640  111.6470  163.1600 C.3       1 ADP802      0.0000 
     14 O3'       156.8790  112.4480  162.7500 O.3       1 ADP802      0.0000 
     15 C2'       156.1470  110.3820  163.9250 C.3       1 ADP802      0.0000 
     16 O2'       157.5390  110.2420  164.2280 O.3       1 ADP802      0.0000 
     17 C1'       155.3580  110.4780  165.2290 C.3       1 ADP802      0.0000 
     18 N9        154.6170  109.2490  165.6200 N.pl3     1 ADP802      0.0000 
     19 C8        154.8180  107.9650  165.2480 C.2       1 ADP802      0.0000 
     20 N7        153.9660  107.1290  165.8880 N.2       1 ADP802      0.0000 
     21 C5        153.2470  107.8760  166.7330 C.ar      1 ADP802      0.0000 
     22 C6        152.1810  107.6410  167.7180 C.ar      1 ADP802      0.0000 
     23 N6        151.7240  106.4000  167.9130 N.pl3     1 ADP802      0.0000 
     24 N1        151.6900  108.6860  168.4060 N.ar      1 ADP802      0.0000 
     25 C2        152.1580  109.9260  168.2050 C.ar      1 ADP802      0.0000 
     26 N3        153.1210  110.2150  167.3180 N.ar      1 ADP802      0.0000 
     27 C4        153.7190  109.2490  166.5930 C.ar      1 ADP802      0.0000 
     28 H5'1      153.9230  113.7190  162.6300 H         1 ADP802      0.0000 
     29 H5'2      153.0460  112.2260  163.0300 H         1 ADP802      0.0000 
     30 H4'       155.4740  113.2790  164.5230 H         1 ADP802      0.0000 
     31 H3'       155.1630  111.3630  162.2870 H         1 ADP802      0.0000 
     32 HO3'      157.4620  111.9440  162.1700 H         1 ADP802      0.0000 
     33 H2'       155.8200  109.5550  163.2880 H         1 ADP802      0.0000 
     34 HO2'      158.0600  110.1860  163.4200 H         1 ADP802      0.0000 
     35 H1'       156.0780  110.7050  166.0250 H         1 ADP802      0.0000 
     36 H8        155.5180  107.6430  164.4890 H         1 ADP802      0.0000 
     37 HN61      150.9940  106.2420  168.5870 H         1 ADP802      0.0000 
     38 HN62      152.1250  105.6460  167.3760 H         1 ADP802      0.0000 
     39 H2        151.7380  110.7310  168.7800 H         1 ADP802      0.0000 
@<TRIPOS>BOND
     1    1    2 ar   
     2    1    3 ar   
     3    1    4 ar   
     4    1    8 1    
     5    5    6 ar   
     6    5    7 ar   
     7    5    8 1    
     8    5    9 1    
     9    9   10 1    
    10   10   11 1    
    11   10   28 1    
    12   10   29 1    
    13   11   12 1    
    14   11   13 1    
    15   11   30 1    
    16   12   17 1    
    17   13   14 1    
    18   13   15 1    
    19   13   31 1    
    20   14   32 1    
    21   15   16 1    
    22   15   17 1    
    23   15   33 1    
    24   16   34 1    
    25   17   18 1    
    26   17   35 1    
    27   18   19 1    
    28   18   27 1    
    29   19   20 2    
    30   19   36 1    
    31   20   21 1    
    32   21   22 ar   
    33   21   27 ar   
    34   22   23 1    
    35   22   24 ar   
    36   23   37 1    
    37   23   38 1    
    38   24   25 ar   
    39   25   26 ar   
    40   25   39 1    
    41   26   27 ar   
@<TRIPOS>SUBSTRUCTURE
     1 ADP802      1 GROUP   
@<TRIPOS>SET
ATOM$ORANGE STATIC     ATOMS   COLORGROUP SYSTEM 
20 10 10 11 11 13 13 15 15 17 17 19 19 21 21 22 22 25 \
25 27 27 

