#    Name: 6qti_1_NAP
#    Modification time : Fri May 22 19:27:56 2020

@<TRIPOS>MOLECULE
6qti_1_NAP
   48    52     1     0     1
SMALL
NO_CHARGES


@<TRIPOS>ATOM
      1 PA         93.0780   61.9980   83.0970 P.3       1 NAP1101     0.0000 
      2 O1A        93.2590   63.2740   82.3840 O.co2     1 NAP1101     0.0000 
      3 O2A        94.2100   60.9860   82.9510 O.co2     1 NAP1101     0.0000 
      4 O5B        92.9460   62.2720   84.6840 O.3       1 NAP1101     0.0000 
      5 C5B        92.1230   61.4670   85.5490 C.3       1 NAP1101     0.0000 
      6 C4B        91.3840   62.4030   86.4700 C.3       1 NAP1101     0.0000 
      7 O4B        90.6460   61.6410   87.4500 O.3       1 NAP1101     0.0000 
      8 C3B        92.2570   63.3770   87.2550 C.3       1 NAP1101     0.0000 
      9 O3B        91.6380   64.6560   87.3200 O.3       1 NAP1101     0.0000 
     10 C2B        92.3260   62.7780   88.6540 C.3       1 NAP1101     0.0000 
     11 O2B        92.3820   63.8840   89.5800 O.3       1 NAP1101     0.0000 
     12 C1B        91.0010   62.0330   88.7620 C.3       1 NAP1101     0.0000 
     13 N9A        91.0750   60.8310   89.5820 N.pl3     1 NAP1101     0.0000 
     14 C8A        92.0390   59.8600   89.5500 C.2       1 NAP1101     0.0000 
     15 N7A        91.8440   58.8840   90.4040 N.2       1 NAP1101     0.0000 
     16 C5A        90.6640   59.2360   91.0390 C.ar      1 NAP1101     0.0000 
     17 C6A        89.9080   58.6150   92.0510 C.ar      1 NAP1101     0.0000 
     18 N6A        90.2490   57.4620   92.6330 N.pl3     1 NAP1101     0.0000 
     19 N1A        88.7790   59.2340   92.4610 N.ar      1 NAP1101     0.0000 
     20 C2A        88.4320   60.3880   91.8850 C.ar      1 NAP1101     0.0000 
     21 N3A        89.0620   61.0630   90.9230 N.ar      1 NAP1101     0.0000 
     22 C4A        90.1760   60.4330   90.5420 C.ar      1 NAP1101     0.0000 
     23 O3         91.7420   61.2690   82.6310 O.3       1 NAP1101     0.0000 
     24 PN         91.0650   61.1250   81.1900 P.3       1 NAP1101     0.0000 
     25 O1N        90.2970   62.3510   80.8950 O.co2     1 NAP1101     0.0000 
     26 O2N        90.3930   59.8080   81.1020 O.co2     1 NAP1101     0.0000 
     27 O5D        92.3450   61.1250   80.2400 O.3       1 NAP1101     0.0000 
     28 C5D        92.8780   59.8720   79.7670 C.3       1 NAP1101     0.0000 
     29 C4D        94.2860   60.0950   79.2780 C.3       1 NAP1101     0.0000 
     30 O4D        94.8170   58.8650   78.7590 O.3       1 NAP1101     0.0000 
     31 C3D        94.4350   61.0730   78.1230 C.3       1 NAP1101     0.0000 
     32 O3D        94.5110   62.4090   78.6040 O.3       1 NAP1101     0.0000 
     33 C2D        95.7580   60.6380   77.4810 C.3       1 NAP1101     0.0000 
     34 O2D        96.8480   61.4150   77.9640 O.3       1 NAP1101     0.0000 
     35 C1D        95.9070   59.1740   77.9310 C.3       1 NAP1101     0.0000 
     36 N1N        95.9050   58.1920   76.7460 N.pl3     1 NAP1101     0.0000 
     37 C2N        94.9100   57.2900   76.7020 C.ar      1 NAP1101     0.0000 
     38 C3N        94.8480   56.3760   75.6670 C.ar      1 NAP1101     0.0000 
     39 C7N        93.7310   55.3740   75.6220 C.2       1 NAP1101     0.0000 
     40 O7N        93.6800   54.5620   74.7000 O.2       1 NAP1101     0.0000 
     41 N7N        92.8350   55.4050   76.5910 N.am      1 NAP1101     0.0000 
     42 C4N        95.8300   56.4150   74.6870 C.ar      1 NAP1101     0.0000 
     43 C5N        96.8470   57.3490   74.7620 C.ar      1 NAP1101     0.0000 
     44 C6N        96.8710   58.2390   75.8090 C.ar      1 NAP1101     0.0000 
     45 P2B        92.6020   63.8450   91.1740 P.3       1 NAP1101     0.0000 
     46 O1X        91.4090   63.2840   91.8280 O.co2     1 NAP1101     0.0000 
     47 O2X        93.8710   63.0440   91.4360 O.co2     1 NAP1101     0.0000 
     48 O3X        92.8710   65.2870   91.5800 O.co2     1 NAP1101     0.0000 
@<TRIPOS>BOND
     1    1    2 ar   
     2    1    3 ar   
     3    1    4 1    
     4    1   23 1    
     5    4    5 1    
     6    5    6 1    
     7    6    7 1    
     8    6    8 1    
     9    7   12 1    
    10    8    9 1    
    11    8   10 1    
    12   10   11 1    
    13   10   12 1    
    14   11   45 1    
    15   12   13 1    
    16   13   14 1    
    17   13   22 1    
    18   14   15 2    
    19   15   16 1    
    20   16   17 ar   
    21   16   22 ar   
    22   17   18 1    
    23   17   19 ar   
    24   19   20 ar   
    25   20   21 ar   
    26   21   22 ar   
    27   23   24 1    
    28   24   25 ar   
    29   24   26 ar   
    30   24   27 1    
    31   27   28 1    
    32   28   29 1    
    33   29   30 1    
    34   29   31 1    
    35   30   35 1    
    36   31   32 1    
    37   31   33 1    
    38   33   34 1    
    39   33   35 1    
    40   35   36 1    
    41   36   37 ar   
    42   36   44 ar   
    43   37   38 ar   
    44   38   39 1    
    45   38   42 ar   
    46   39   40 2    
    47   39   41 am   
    48   42   43 ar   
    49   43   44 ar   
    50   45   46 ar   
    51   45   47 ar   
    52   45   48 ar   
@<TRIPOS>SUBSTRUCTURE
     1 NAP1101     1 GROUP   
@<TRIPOS>SET
ATOM$ORANGE STATIC     ATOMS   COLORGROUP SYSTEM 
42 5 5 6 6 8 8 10 10 12 12 14 14 16 16 17 17 20 \
20 22 22 28 28 29 29 31 31 33 33 35 35 37 37 38 38 39 \
39 42 42 43 43 44 44 

