#    Name: 6qti_3_NAP
#    Modification time : Fri May 22 19:28:24 2020

@<TRIPOS>MOLECULE
6qti_3_NAP
   48    52     1     0     1
SMALL
NO_CHARGES


@<TRIPOS>ATOM
      1 PA         55.5530   57.5700   37.0690 P.3       1 NAP1102     0.0000 
      2 O1A        54.4770   57.4120   38.0610 O.co2     1 NAP1102     0.0000 
      3 O2A        55.5990   56.4720   36.0160 O.co2     1 NAP1102     0.0000 
      4 O5B        55.4280   58.9770   36.2570 O.3       1 NAP1102     0.0000 
      5 C5B        55.1820   60.2050   36.9720 C.3       1 NAP1102     0.0000 
      6 C4B        54.0690   60.9780   36.3100 C.3       1 NAP1102     0.0000 
      7 O4B        54.6160   62.0910   35.5770 O.3       1 NAP1102     0.0000 
      8 C3B        53.2520   60.2130   35.2780 C.3       1 NAP1102     0.0000 
      9 O3B        52.1900   59.4950   35.8930 O.3       1 NAP1102     0.0000 
     10 C2B        52.7060   61.3380   34.4010 C.3       1 NAP1102     0.0000 
     11 O2B        51.3650   61.7140   34.7800 O.3       1 NAP1102     0.0000 
     12 C1B        53.6580   62.5150   34.6270 C.3       1 NAP1102     0.0000 
     13 N9A        54.3580   62.9220   33.4170 N.pl3     1 NAP1102     0.0000 
     14 C8A        54.9470   62.1010   32.4920 C.2       1 NAP1102     0.0000 
     15 N7A        55.5000   62.7370   31.4870 N.2       1 NAP1102     0.0000 
     16 C5A        55.2540   64.0720   31.7690 C.ar      1 NAP1102     0.0000 
     17 C6A        55.5810   65.2610   31.0910 C.ar      1 NAP1102     0.0000 
     18 N6A        56.2590   65.2970   29.9400 N.pl3     1 NAP1102     0.0000 
     19 N1A        55.1880   66.4280   31.6450 N.ar      1 NAP1102     0.0000 
     20 C2A        54.5120   66.3990   32.7980 C.ar      1 NAP1102     0.0000 
     21 N3A        54.1460   65.3410   33.5240 N.ar      1 NAP1102     0.0000 
     22 C4A        54.5480   64.2010   32.9530 C.ar      1 NAP1102     0.0000 
     23 O3         56.9870   57.6120   37.7590 O.3       1 NAP1102     0.0000 
     24 PN         57.5060   57.7030   39.2700 P.3       1 NAP1102     0.0000 
     25 O1N        56.3710   58.0160   40.1630 O.co2     1 NAP1102     0.0000 
     26 O2N        58.7120   58.5630   39.3090 O.co2     1 NAP1102     0.0000 
     27 O5D        57.9320   56.1920   39.5430 O.3       1 NAP1102     0.0000 
     28 C5D        59.1930   55.7020   39.0420 C.3       1 NAP1102     0.0000 
     29 C4D        59.0140   54.2600   38.6410 C.3       1 NAP1102     0.0000 
     30 O4D        60.2210   53.7710   38.0330 O.3       1 NAP1102     0.0000 
     31 C3D        58.7640   53.2880   39.7850 C.3       1 NAP1102     0.0000 
     32 O3D        57.3820   53.2310   40.1180 O.3       1 NAP1102     0.0000 
     33 C2D        59.2720   51.9510   39.2200 C.3       1 NAP1102     0.0000 
     34 O2D        58.2060   51.1180   38.7820 O.3       1 NAP1102     0.0000 
     35 C1D        60.1310   52.3740   38.0170 C.3       1 NAP1102     0.0000 
     36 N1N        61.5540   51.7960   38.1000 N.pl3     1 NAP1102     0.0000 
     37 C2N        62.5920   52.6500   38.0880 C.ar      1 NAP1102     0.0000 
     38 C3N        63.8850   52.1700   38.1580 C.ar      1 NAP1102     0.0000 
     39 C7N        65.0570   53.1090   38.1470 C.2       1 NAP1102     0.0000 
     40 O7N        66.2020   52.6530   38.2110 O.2       1 NAP1102     0.0000 
     41 N7N        64.8090   54.4040   38.0620 N.am      1 NAP1102     0.0000 
     42 C4N        64.0810   50.7990   38.2410 C.ar      1 NAP1102     0.0000 
     43 C5N        62.9960   49.9430   38.2430 C.ar      1 NAP1102     0.0000 
     44 C6N        61.7260   50.4620   38.1760 C.ar      1 NAP1102     0.0000 
     45 P2B        50.2570   62.2130   33.7280 P.3       1 NAP1102     0.0000 
     46 O1X        50.2230   63.6880   33.6750 O.co2     1 NAP1102     0.0000 
     47 O2X        50.6440   61.5830   32.3920 O.co2     1 NAP1102     0.0000 
     48 O3X        48.9360   61.6040   34.1790 O.co2     1 NAP1102     0.0000 
@<TRIPOS>BOND
     1    1    2 ar   
     2    1    3 ar   
     3    1    4 1    
     4    1   23 1    
     5    4    5 1    
     6    5    6 1    
     7    6    7 1    
     8    6    8 1    
     9    7   12 1    
    10    8    9 1    
    11    8   10 1    
    12   10   11 1    
    13   10   12 1    
    14   11   45 1    
    15   12   13 1    
    16   13   14 1    
    17   13   22 1    
    18   14   15 2    
    19   15   16 1    
    20   16   17 ar   
    21   16   22 ar   
    22   17   18 1    
    23   17   19 ar   
    24   19   20 ar   
    25   20   21 ar   
    26   21   22 ar   
    27   23   24 1    
    28   24   25 ar   
    29   24   26 ar   
    30   24   27 1    
    31   27   28 1    
    32   28   29 1    
    33   29   30 1    
    34   29   31 1    
    35   30   35 1    
    36   31   32 1    
    37   31   33 1    
    38   33   34 1    
    39   33   35 1    
    40   35   36 1    
    41   36   37 ar   
    42   36   44 ar   
    43   37   38 ar   
    44   38   39 1    
    45   38   42 ar   
    46   39   40 2    
    47   39   41 am   
    48   42   43 ar   
    49   43   44 ar   
    50   45   46 ar   
    51   45   47 ar   
    52   45   48 ar   
@<TRIPOS>SUBSTRUCTURE
     1 NAP1102     1 GROUP   
@<TRIPOS>SET
ATOM$ORANGE STATIC     ATOMS   COLORGROUP SYSTEM 
42 5 5 6 6 8 8 10 10 12 12 14 14 16 16 17 17 20 \
20 22 22 28 28 29 29 31 31 33 33 35 35 37 37 38 38 39 \
39 42 42 43 43 44 44 

