#    Name: 6qti_2_NAD
#    Modification time : Fri May 22 19:28:09 2020

@<TRIPOS>MOLECULE
6qti_2_NAD
   44    48     1     0     1
SMALL
NO_CHARGES


@<TRIPOS>ATOM
      1 PA         74.4740  101.3720   78.3510 P.3       1 NAD1102     0.0000 
      2 O1A        73.5340  101.4570   79.4830 O.co2     1 NAD1102     0.0000 
      3 O2A        75.1490  102.6710   77.9360 O.co2     1 NAD1102     0.0000 
      4 O5B        73.7310  100.7910   77.0300 O.3       1 NAD1102     0.0000 
      5 C5B        73.3160  101.6720   75.9690 C.3       1 NAD1102     0.0000 
      6 C4B        73.6140  101.0080   74.6500 C.3       1 NAD1102     0.0000 
      7 O4B        73.2220  101.8800   73.5660 O.3       1 NAD1102     0.0000 
      8 C3B        75.0880  100.6600   74.4200 C.3       1 NAD1102     0.0000 
      9 O3B        75.2240   99.3610   73.8600 O.3       1 NAD1102     0.0000 
     10 C2B        75.5490  101.7360   73.4350 C.3       1 NAD1102     0.0000 
     11 O2B        76.5840  101.2530   72.5890 O.3       1 NAD1102     0.0000 
     12 C1B        74.2750  101.9480   72.6300 C.3       1 NAD1102     0.0000 
     13 N9A        74.2090  103.2270   71.9340 N.pl3     1 NAD1102     0.0000 
     14 C8A        74.7900  104.4070   72.3140 C.2       1 NAD1102     0.0000 
     15 N7A        74.5750  105.4000   71.4860 N.2       1 NAD1102     0.0000 
     16 C5A        73.7990  104.8320   70.4870 C.ar      1 NAD1102     0.0000 
     17 C6A        73.2360  105.3560   69.3090 C.ar      1 NAD1102     0.0000 
     18 N6A        73.3680  106.6280   68.9220 N.pl3     1 NAD1102     0.0000 
     19 N1A        72.5150  104.5190   68.5310 N.ar      1 NAD1102     0.0000 
     20 C2A        72.3750  103.2460   68.9120 C.ar      1 NAD1102     0.0000 
     21 N3A        72.8620  102.6420   69.9980 N.ar      1 NAD1102     0.0000 
     22 C4A        73.5680  103.4920   70.7490 C.ar      1 NAD1102     0.0000 
     23 O3         75.6280  100.3150   78.6360 O.3       1 NAD1102     0.0000 
     24 PN         75.5210   98.8380   79.2340 P.3       1 NAD1102     0.0000 
     25 O1N        74.1460   98.3460   78.9870 O.co2     1 NAD1102     0.0000 
     26 O2N        76.0420   98.8400   80.6170 O.co2     1 NAD1102     0.0000 
     27 O5D        76.5600   98.0420   78.3210 O.3       1 NAD1102     0.0000 
     28 C5D        77.3730   97.0130   78.9200 C.3       1 NAD1102     0.0000 
     29 C4D        78.7980   97.4980   79.0000 C.3       1 NAD1102     0.0000 
     30 O4D        79.4880   96.7880   80.0500 O.3       1 NAD1102     0.0000 
     31 C3D        79.6410   97.2580   77.7550 C.3       1 NAD1102     0.0000 
     32 O3D        79.4650   98.3090   76.8120 O.3       1 NAD1102     0.0000 
     33 C2D        81.0610   97.2340   78.3240 C.3       1 NAD1102     0.0000 
     34 O2D        81.6070   98.5420   78.4500 O.3       1 NAD1102     0.0000 
     35 C1D        80.8410   96.6100   79.7090 C.3       1 NAD1102     0.0000 
     36 N1N        81.1510   95.1030   79.7440 N.pl3     1 NAD1102     0.0000 
     37 C2N        82.4520   94.7640   79.7430 C.ar      1 NAD1102     0.0000 
     38 C3N        82.8220   93.4330   79.7750 C.ar      1 NAD1102     0.0000 
     39 C7N        84.2770   93.0620   79.7710 C.2       1 NAD1102     0.0000 
     40 O7N        85.1330   93.9550   79.7400 O.2       1 NAD1102     0.0000 
     41 N7N        84.5860   91.7720   79.8010 N.am      1 NAD1102     0.0000 
     42 C4N        81.8250   92.4660   79.8090 C.ar      1 NAD1102     0.0000 
     43 C5N        80.4940   92.8430   79.8100 C.ar      1 NAD1102     0.0000 
     44 C6N        80.1700   94.1790   79.7780 C.ar      1 NAD1102     0.0000 
@<TRIPOS>BOND
     1    1    2 ar   
     2    1    3 ar   
     3    1    4 1    
     4    1   23 1    
     5    4    5 1    
     6    5    6 1    
     7    6    7 1    
     8    6    8 1    
     9    7   12 1    
    10    8    9 1    
    11    8   10 1    
    12   10   11 1    
    13   10   12 1    
    14   12   13 1    
    15   13   14 1    
    16   13   22 1    
    17   14   15 2    
    18   15   16 1    
    19   16   17 ar   
    20   16   22 ar   
    21   17   18 1    
    22   17   19 ar   
    23   19   20 ar   
    24   20   21 ar   
    25   21   22 ar   
    26   23   24 1    
    27   24   25 ar   
    28   24   26 ar   
    29   24   27 1    
    30   27   28 1    
    31   28   29 1    
    32   29   30 1    
    33   29   31 1    
    34   30   35 1    
    35   31   32 1    
    36   31   33 1    
    37   33   34 1    
    38   33   35 1    
    39   35   36 1    
    40   36   37 ar   
    41   36   44 ar   
    42   37   38 ar   
    43   38   39 1    
    44   38   42 ar   
    45   39   40 2    
    46   39   41 am   
    47   42   43 ar   
    48   43   44 ar   
@<TRIPOS>SUBSTRUCTURE
     1 NAD1102     1 GROUP   
@<TRIPOS>SET
ATOM$ORANGE STATIC     ATOMS   COLORGROUP SYSTEM 
42 5 5 6 6 8 8 10 10 12 12 14 14 16 16 17 17 20 \
20 22 22 28 28 29 29 31 31 33 33 35 35 37 37 38 38 39 \
39 42 42 43 43 44 44 

