#    Name: 6qti_4_NAD
#    Modification time : Fri May 22 19:28:36 2020

@<TRIPOS>MOLECULE
6qti_4_NAD
   44    48     1     0     1
SMALL
NO_CHARGES


@<TRIPOS>ATOM
      1 PA         35.9960   73.1950   78.6300 P.3       1 NAD1103     0.0000 
      2 O1A        35.9270   74.6620   78.7680 O.co2     1 NAD1103     0.0000 
      3 O2A        34.8110   72.3940   79.1520 O.co2     1 NAD1103     0.0000 
      4 O5B        37.3280   72.6080   79.3440 O.3       1 NAD1103     0.0000 
      5 C5B        37.3910   72.3900   80.7650 C.3       1 NAD1103     0.0000 
      6 C4B        38.4960   71.4020   81.0290 C.3       1 NAD1103     0.0000 
      7 O4B        38.5270   71.0690   82.4350 O.3       1 NAD1103     0.0000 
      8 C3B        38.3670   70.0790   80.2680 C.3       1 NAD1103     0.0000 
      9 O3B        39.6110   69.6910   79.7010 O.3       1 NAD1103     0.0000 
     10 C2B        37.9090   69.0990   81.3470 C.3       1 NAD1103     0.0000 
     11 O2B        38.3710   67.7840   81.0760 O.3       1 NAD1103     0.0000 
     12 C1B        38.6090   69.6670   82.5710 C.3       1 NAD1103     0.0000 
     13 N9A        38.0060   69.2770   83.8380 N.pl3     1 NAD1103     0.0000 
     14 C8A        36.6740   69.1030   84.1020 C.2       1 NAD1103     0.0000 
     15 N7A        36.4160   68.7360   85.3330 N.2       1 NAD1103     0.0000 
     16 C5A        37.6680   68.6580   85.9210 C.ar      1 NAD1103     0.0000 
     17 C6A        38.0880   68.3180   87.2210 C.ar      1 NAD1103     0.0000 
     18 N6A        37.2550   67.9800   88.2090 N.pl3     1 NAD1103     0.0000 
     19 N1A        39.4140   68.3390   87.4780 N.ar      1 NAD1103     0.0000 
     20 C2A        40.2540   68.6770   86.4970 C.ar      1 NAD1103     0.0000 
     21 N3A        39.9740   69.0150   85.2370 N.ar      1 NAD1103     0.0000 
     22 C4A        38.6580   68.9870   85.0120 C.ar      1 NAD1103     0.0000 
     23 O3         36.2200   72.7650   77.1170 O.3       1 NAD1103     0.0000 
     24 PN         37.3970   73.2010   76.1280 P.3       1 NAD1103     0.0000 
     25 O1N        38.3980   73.9620   76.9120 O.co2     1 NAD1103     0.0000 
     26 O2N        36.8100   73.8200   74.9200 O.co2     1 NAD1103     0.0000 
     27 O5D        38.0000   71.7820   75.7200 O.3       1 NAD1103     0.0000 
     28 C5D        37.8800   71.3480   74.3520 C.3       1 NAD1103     0.0000 
     29 C4D        37.1730   70.0180   74.3160 C.3       1 NAD1103     0.0000 
     30 O4D        36.5190   69.8620   73.0380 O.3       1 NAD1103     0.0000 
     31 C3D        38.0770   68.8000   74.4360 C.3       1 NAD1103     0.0000 
     32 O3D        37.3540   67.6790   74.9300 O.3       1 NAD1103     0.0000 
     33 C2D        38.5200   68.5850   72.9890 C.3       1 NAD1103     0.0000 
     34 O2D        38.8340   67.2210   72.7370 O.3       1 NAD1103     0.0000 
     35 C1D        37.2600   68.9940   72.2160 C.3       1 NAD1103     0.0000 
     36 N1N        37.5780   69.7320   70.9010 N.pl3     1 NAD1103     0.0000 
     37 C2N        38.0740   68.9860   69.9010 C.ar      1 NAD1103     0.0000 
     38 C3N        38.3840   69.5720   68.6870 C.ar      1 NAD1103     0.0000 
     39 C7N        38.9400   68.7370   67.5710 C.2       1 NAD1103     0.0000 
     40 O7N        39.1160   67.5250   67.7470 O.2       1 NAD1103     0.0000 
     41 N7N        39.2220   69.3450   66.4260 N.am      1 NAD1103     0.0000 
     42 C4N        38.1680   70.9360   68.5330 C.ar      1 NAD1103     0.0000 
     43 C5N        37.6550   71.6790   69.5800 C.ar      1 NAD1103     0.0000 
     44 C6N        37.3600   71.0560   70.7710 C.ar      1 NAD1103     0.0000 
@<TRIPOS>BOND
     1    1    2 ar   
     2    1    3 ar   
     3    1    4 1    
     4    1   23 1    
     5    4    5 1    
     6    5    6 1    
     7    6    7 1    
     8    6    8 1    
     9    7   12 1    
    10    8    9 1    
    11    8   10 1    
    12   10   11 1    
    13   10   12 1    
    14   12   13 1    
    15   13   14 1    
    16   13   22 1    
    17   14   15 2    
    18   15   16 1    
    19   16   17 ar   
    20   16   22 ar   
    21   17   18 1    
    22   17   19 ar   
    23   19   20 ar   
    24   20   21 ar   
    25   21   22 ar   
    26   23   24 1    
    27   24   25 ar   
    28   24   26 ar   
    29   24   27 1    
    30   27   28 1    
    31   28   29 1    
    32   29   30 1    
    33   29   31 1    
    34   30   35 1    
    35   31   32 1    
    36   31   33 1    
    37   33   34 1    
    38   33   35 1    
    39   35   36 1    
    40   36   37 ar   
    41   36   44 ar   
    42   37   38 ar   
    43   38   39 1    
    44   38   42 ar   
    45   39   40 2    
    46   39   41 am   
    47   42   43 ar   
    48   43   44 ar   
@<TRIPOS>SUBSTRUCTURE
     1 NAD1103     1 GROUP   
@<TRIPOS>SET
ATOM$ORANGE STATIC     ATOMS   COLORGROUP SYSTEM 
42 5 5 6 6 8 8 10 10 12 12 14 14 16 16 17 17 20 \
20 22 22 28 28 29 29 31 31 33 33 35 35 37 37 38 38 39 \
39 42 42 43 43 44 44 

