#    Name: 6quy_3_GTP
#    Modification time : Fri May 22 19:33:26 2020

@<TRIPOS>MOLECULE
6quy_3_GTP
   32    34     1     0     1
SMALL
NO_CHARGES


@<TRIPOS>ATOM
      1 PG        265.5180  193.5090  304.3620 P.3       1 GTP501      0.0000 
      2 O1G       266.7340  194.3300  304.1890 O.co2     1 GTP501      0.0000 
      3 O2G       264.2380  194.3070  304.3680 O.co2     1 GTP501      0.0000 
      4 O3G       265.5540  192.6440  305.6060 O.co2     1 GTP501      0.0000 
      5 O3B       265.3550  192.4800  303.1640 O.3       1 GTP501      0.0000 
      6 PB        265.7600  190.9460  303.1590 P.3       1 GTP501      0.0000 
      7 O1B       265.0620  190.2130  302.1000 O.co2     1 GTP501      0.0000 
      8 O2B       265.4610  190.3560  304.5210 O.co2     1 GTP501      0.0000 
      9 O3A       267.3270  190.9200  302.8920 O.3       1 GTP501      0.0000 
     10 PA        268.1910  191.6200  301.7550 P.3       1 GTP501      0.0000 
     11 O1A       268.8030  192.8410  302.3030 O.co2     1 GTP501      0.0000 
     12 O2A       267.2140  191.9900  300.6550 O.co2     1 GTP501      0.0000 
     13 O5'       269.2720  190.6010  301.1800 O.3       1 GTP501      0.0000 
     14 C5'       270.5980  190.4470  301.7280 C.3       1 GTP501      0.0000 
     15 C4'       271.6270  190.4280  300.6250 C.3       1 GTP501      0.0000 
     16 O4'       271.8020  191.7560  300.0880 O.3       1 GTP501      0.0000 
     17 C3'       273.0200  189.9440  301.0470 C.3       1 GTP501      0.0000 
     18 O3'       273.3960  188.7760  300.3290 O.3       1 GTP501      0.0000 
     19 C2'       273.9460  191.1200  300.7090 C.3       1 GTP501      0.0000 
     20 O2'       275.1650  190.6590  300.1440 O.3       1 GTP501      0.0000 
     21 C1'       273.1390  191.8710  299.6640 C.3       1 GTP501      0.0000 
     22 N9        273.4800  193.2960  299.5730 N.pl3     1 GTP501      0.0000 
     23 C8        273.2880  194.2560  300.5250 C.2       1 GTP501      0.0000 
     24 N7        273.6750  195.4470  300.1450 N.2       1 GTP501      0.0000 
     25 C5        274.1530  195.2550  298.8620 C.2       1 GTP501      0.0000 
     26 C6        274.7320  196.1680  297.9380 C.2       1 GTP501      0.0000 
     27 O6        274.8950  197.3730  298.0910 O.2       1 GTP501      0.0000 
     28 N1        275.1220  195.5520  296.7690 N.am      1 GTP501      0.0000 
     29 C2        274.9790  194.2210  296.5000 C.2       1 GTP501      0.0000 
     30 N2        275.4180  193.7910  295.3200 N.pl3     1 GTP501      0.0000 
     31 N3        274.4290  193.3600  297.3520 N.2       1 GTP501      0.0000 
     32 C4        274.0430  193.9370  298.5010 C.2       1 GTP501      0.0000 
@<TRIPOS>BOND
     1    1    2 ar   
     2    1    3 ar   
     3    1    4 ar   
     4    1    5 1    
     5    5    6 1    
     6    6    7 ar   
     7    6    8 ar   
     8    6    9 1    
     9    9   10 1    
    10   10   11 ar   
    11   10   12 ar   
    12   10   13 1    
    13   13   14 1    
    14   14   15 1    
    15   15   16 1    
    16   15   17 1    
    17   16   21 1    
    18   17   18 1    
    19   17   19 1    
    20   19   20 1    
    21   19   21 1    
    22   21   22 1    
    23   22   23 1    
    24   22   32 1    
    25   23   24 2    
    26   24   25 1    
    27   25   26 1    
    28   25   32 2    
    29   26   27 2    
    30   26   28 am   
    31   28   29 1    
    32   29   30 1    
    33   29   31 2    
    34   31   32 1    
@<TRIPOS>SUBSTRUCTURE
     1 GTP501      1 GROUP   
@<TRIPOS>SET
ATOM$ORANGE STATIC     ATOMS   COLORGROUP SYSTEM 
20 14 14 15 15 17 17 19 19 21 21 23 23 25 25 26 26 29 \
29 32 32 

