#    Name: 6quy_5_GDP
#    Modification time : Fri May 22 19:33:43 2020

@<TRIPOS>MOLECULE
6quy_5_GDP
   28    30     1     0     1
SMALL
NO_CHARGES


@<TRIPOS>ATOM
      1 PB        320.8090  187.8720  334.1070 P.3       1 GDP501      0.0000 
      2 O1B       320.8080  187.5030  332.6300 O.co2     1 GDP501      0.0000 
      3 O2B       319.8490  189.0180  334.2930 O.co2     1 GDP501      0.0000 
      4 O3B       320.5280  186.7420  335.0100 O.co2     1 GDP501      0.0000 
      5 O3A       322.2500  188.4710  334.4130 O.3       1 GDP501      0.0000 
      6 PA        323.1360  189.4900  333.5750 P.3       1 GDP501      0.0000 
      7 O1A       322.4110  189.6660  332.2590 O.co2     1 GDP501      0.0000 
      8 O2A       323.2020  190.7810  334.2850 O.co2     1 GDP501      0.0000 
      9 O5'       324.5520  188.8290  333.3000 O.3       1 GDP501      0.0000 
     10 C5'       325.8210  189.3210  333.7780 C.3       1 GDP501      0.0000 
     11 C4'       326.7480  189.5260  332.6070 C.3       1 GDP501      0.0000 
     12 O4'       326.2060  190.5430  331.7360 O.3       1 GDP501      0.0000 
     13 C3'       328.1580  189.9860  332.9720 C.3       1 GDP501      0.0000 
     14 O3'       329.1310  189.3600  332.1470 O.3       1 GDP501      0.0000 
     15 C2'       328.1000  191.4920  332.7270 C.3       1 GDP501      0.0000 
     16 O2'       329.3680  192.0270  332.3720 O.3       1 GDP501      0.0000 
     17 C1'       327.1690  191.5520  331.5290 C.3       1 GDP501      0.0000 
     18 N9        326.4770  192.8280  331.4350 N.pl3     1 GDP501      0.0000 
     19 C8        325.5470  193.3270  332.3000 C.2       1 GDP501      0.0000 
     20 N7        325.1060  194.5070  331.9510 N.2       1 GDP501      0.0000 
     21 C5        325.7880  194.7920  330.7820 C.2       1 GDP501      0.0000 
     22 C6        325.7140  195.8990  329.9340 C.2       1 GDP501      0.0000 
     23 O6        325.0100  196.8910  330.0880 O.2       1 GDP501      0.0000 
     24 N1        326.5490  195.7840  328.8440 N.am      1 GDP501      0.0000 
     25 C2        327.3660  194.7190  328.5920 C.2       1 GDP501      0.0000 
     26 N2        328.0960  194.7600  327.4810 N.pl3     1 GDP501      0.0000 
     27 N3        327.4470  193.6640  329.3940 N.2       1 GDP501      0.0000 
     28 C4        326.6360  193.7680  330.4580 C.2       1 GDP501      0.0000 
@<TRIPOS>BOND
     1    1    2 ar   
     2    1    3 ar   
     3    1    4 ar   
     4    1    5 1    
     5    5    6 1    
     6    6    7 ar   
     7    6    8 ar   
     8    6    9 1    
     9    9   10 1    
    10   10   11 1    
    11   11   12 1    
    12   11   13 1    
    13   12   17 1    
    14   13   14 1    
    15   13   15 1    
    16   15   16 1    
    17   15   17 1    
    18   17   18 1    
    19   18   19 1    
    20   18   28 1    
    21   19   20 2    
    22   20   21 1    
    23   21   22 1    
    24   21   28 2    
    25   22   23 2    
    26   22   24 am   
    27   24   25 1    
    28   25   26 1    
    29   25   27 2    
    30   27   28 1    
@<TRIPOS>SUBSTRUCTURE
     1 GDP501      1 GROUP   
@<TRIPOS>SET
ATOM$ORANGE STATIC     ATOMS   COLORGROUP SYSTEM 
20 10 10 11 11 13 13 15 15 17 17 19 19 21 21 22 22 25 \
25 28 28 

