#    Name: 6quy_4_GTP
#    Modification time : Fri May 22 19:33:38 2020

@<TRIPOS>MOLECULE
6quy_4_GTP
   32    34     1     0     1
SMALL
NO_CHARGES


@<TRIPOS>ATOM
      1 PG        319.4950  187.4740  294.8860 P.3       1 GTP501      0.0000 
      2 O1G       318.0460  187.2500  294.7880 O.co2     1 GTP501      0.0000 
      3 O2G       320.2800  186.2570  295.3480 O.co2     1 GTP501      0.0000 
      4 O3G       319.8540  188.6590  295.7700 O.co2     1 GTP501      0.0000 
      5 O3B       320.0640  187.8550  293.4530 O.3       1 GTP501      0.0000 
      6 PB        320.6990  189.2500  293.0350 P.3       1 GTP501      0.0000 
      7 O1B       320.2840  190.3070  293.9770 O.co2     1 GTP501      0.0000 
      8 O2B       320.2830  189.5750  291.6140 O.co2     1 GTP501      0.0000 
      9 O3A       322.2780  189.0820  293.0360 O.3       1 GTP501      0.0000 
     10 PA        323.1650  189.1110  291.7190 P.3       1 GTP501      0.0000 
     11 O1A       323.1390  190.4760  291.1680 O.co2     1 GTP501      0.0000 
     12 O2A       322.4850  188.1600  290.7570 O.co2     1 GTP501      0.0000 
     13 O5'       324.6130  188.5520  291.9900 O.3       1 GTP501      0.0000 
     14 C5'       325.7000  189.3550  292.4840 C.3       1 GTP501      0.0000 
     15 C4'       326.5890  189.7390  291.3310 C.3       1 GTP501      0.0000 
     16 O4'       325.9760  190.8040  290.5690 O.3       1 GTP501      0.0000 
     17 C3'       327.9800  190.2360  291.7280 C.3       1 GTP501      0.0000 
     18 O3'       328.9710  189.6480  290.8960 O.3       1 GTP501      0.0000 
     19 C2'       327.8850  191.7440  291.4980 C.3       1 GTP501      0.0000 
     20 O2'       329.1410  192.3100  291.1510 O.3       1 GTP501      0.0000 
     21 C1'       326.9570  191.7800  290.3000 C.3       1 GTP501      0.0000 
     22 N9        326.3050  193.0750  290.1010 N.pl3     1 GTP501      0.0000 
     23 C8        325.3930  193.6890  290.9100 C.2       1 GTP501      0.0000 
     24 N7        325.0240  194.8660  290.4720 N.2       1 GTP501      0.0000 
     25 C5        325.7340  195.0300  289.2960 C.2       1 GTP501      0.0000 
     26 C6        325.7640  196.1060  288.3660 C.2       1 GTP501      0.0000 
     27 O6        325.1370  197.1580  288.4290 O.2       1 GTP501      0.0000 
     28 N1        326.6230  195.8650  287.3180 N.am      1 GTP501      0.0000 
     29 C2        327.3740  194.7340  287.1650 C.2       1 GTP501      0.0000 
     30 N2        328.1700  194.6740  286.0990 N.pl3     1 GTP501      0.0000 
     31 N3        327.3530  193.7230  288.0270 N.2       1 GTP501      0.0000 
     32 C4        326.5230  193.9350  289.0580 C.2       1 GTP501      0.0000 
@<TRIPOS>BOND
     1    1    2 ar   
     2    1    3 ar   
     3    1    4 ar   
     4    1    5 1    
     5    5    6 1    
     6    6    7 ar   
     7    6    8 ar   
     8    6    9 1    
     9    9   10 1    
    10   10   11 ar   
    11   10   12 ar   
    12   10   13 1    
    13   13   14 1    
    14   14   15 1    
    15   15   16 1    
    16   15   17 1    
    17   16   21 1    
    18   17   18 1    
    19   17   19 1    
    20   19   20 1    
    21   19   21 1    
    22   21   22 1    
    23   22   23 1    
    24   22   32 1    
    25   23   24 2    
    26   24   25 1    
    27   25   26 1    
    28   25   32 2    
    29   26   27 2    
    30   26   28 am   
    31   28   29 1    
    32   29   30 1    
    33   29   31 2    
    34   31   32 1    
@<TRIPOS>SUBSTRUCTURE
     1 GTP501      1 GROUP   
@<TRIPOS>SET
ATOM$ORANGE STATIC     ATOMS   COLORGROUP SYSTEM 
20 14 14 15 15 17 17 19 19 21 21 23 23 25 25 26 26 29 \
29 32 32 

