#    Name: 6quy_2_TA1
#    Modification time : Fri May 22 19:33:16 2020

@<TRIPOS>MOLECULE
6quy_2_TA1
   62    68     1     0     0
SMALL
NO_CHARGES


@<TRIPOS>ATOM
      1 O01       284.6250  207.7550  329.1460 O.3       1 TA1502      0.0000 
      2 C01       284.8890  207.5700  327.7490 C.3       1 TA1502      0.0000 
      3 C02       286.0930  206.3690  327.6280 C.3       1 TA1502      0.0000 
      4 O02       285.5980  205.2450  328.3910 O.3       1 TA1502      0.0000 
      5 C03       285.9800  205.0720  329.6650 C.2       1 TA1502      0.0000 
      6 O03       286.7530  205.7980  330.2320 O.2       1 TA1502      0.0000 
      7 C04       285.3760  203.8550  330.2670 C.ar      1 TA1502      0.0000 
      8 C05       284.6620  202.9340  329.5060 C.ar      1 TA1502      0.0000 
      9 C06       283.9630  201.9090  330.1220 C.ar      1 TA1502      0.0000 
     10 C07       283.9570  201.7990  331.4970 C.ar      1 TA1502      0.0000 
     11 C08       284.6620  202.7060  332.2600 C.ar      1 TA1502      0.0000 
     12 C09       285.3790  203.7220  331.6510 C.ar      1 TA1502      0.0000 
     13 C10       286.5560  205.8500  326.1900 C.3       1 TA1502      0.0000 
     14 C11       286.5170  204.2030  325.9450 C.3       1 TA1502      0.0000 
     15 O04       285.1890  203.6330  326.1830 O.3       1 TA1502      0.0000 
     16 C12       284.0920  203.8750  325.4260 C.2       1 TA1502      0.0000 
     17 O05       284.0650  204.6130  324.4900 O.2       1 TA1502      0.0000 
     18 C13       282.9400  203.0850  325.9410 C.3       1 TA1502      0.0000 
     19 C14       287.4140  203.2290  326.7040 C.3       1 TA1502      0.0000 
     20 O06       288.0420  202.7630  325.5000 O.3       1 TA1502      0.0000 
     21 C15       287.2000  203.6350  324.6910 C.3       1 TA1502      0.0000 
     22 C16       287.9950  204.5830  323.8170 C.3       1 TA1502      0.0000 
     23 C17       287.7040  206.0690  324.0120 C.3       1 TA1502      0.0000 
     24 O07       288.5520  206.8340  323.1500 O.3       1 TA1502      0.0000 
     25 C18       287.8290  206.5670  325.4800 C.3       1 TA1502      0.0000 
     26 C19       289.2190  206.2980  326.0860 C.3       1 TA1502      0.0000 
     27 C20       287.8770  208.1560  325.3150 C.2       1 TA1502      0.0000 
     28 O08       288.9280  208.7270  325.5020 O.2       1 TA1502      0.0000 
     29 C21       286.6930  209.2100  324.9580 C.3       1 TA1502      0.0000 
     30 O09       287.2660  210.5480  325.0880 O.3       1 TA1502      0.0000 
     31 C22       287.4540  211.3030  323.9850 C.2       1 TA1502      0.0000 
     32 O10       287.2450  210.9060  322.8760 O.2       1 TA1502      0.0000 
     33 C23       287.9340  212.6670  324.3490 C.3       1 TA1502      0.0000 
     34 C24       285.3450  209.0390  325.6780 C.2       1 TA1502      0.0000 
     35 C25       284.3580  208.3760  325.0360 C.2       1 TA1502      0.0000 
     36 C26       283.1590  207.8340  325.8070 C.3       1 TA1502      0.0000 
     37 O11       282.2220  206.9850  325.0930 O.3       1 TA1502      0.0000 
     38 C27       281.1190  207.5900  324.6320 C.2       1 TA1502      0.0000 
     39 O12       280.8930  208.7610  324.7410 O.2       1 TA1502      0.0000 
     40 C28       280.1980  206.6150  323.9700 C.3       1 TA1502      0.0000 
     41 O13       279.0860  207.3110  323.4390 O.3       1 TA1502      0.0000 
     42 C29       279.7580  205.6690  325.0400 C.3       1 TA1502      0.0000 
     43 N01       279.1450  206.4670  326.0820 N.am      1 TA1502      0.0000 
     44 C30       279.2340  206.0800  327.3550 C.2       1 TA1502      0.0000 
     45 O14       279.6970  204.9880  327.6680 O.2       1 TA1502      0.0000 
     46 C31       278.7620  207.0460  328.3930 C.ar      1 TA1502      0.0000 
     47 C32       277.4400  207.4750  328.4110 C.ar      1 TA1502      0.0000 
     48 C33       277.0050  208.3620  329.3800 C.ar      1 TA1502      0.0000 
     49 C34       277.8780  208.8270  330.3410 C.ar      1 TA1502      0.0000 
     50 C35       279.1910  208.4100  330.3310 C.ar      1 TA1502      0.0000 
     51 C36       279.6360  207.5280  329.3630 C.ar      1 TA1502      0.0000 
     52 C37       278.8660  204.5530  324.5430 C.ar      1 TA1502      0.0000 
     53 C38       279.4090  203.3450  324.1290 C.ar      1 TA1502      0.0000 
     54 C39       278.5980  202.3450  323.6220 C.ar      1 TA1502      0.0000 
     55 C40       277.2420  202.5370  323.5250 C.ar      1 TA1502      0.0000 
     56 C41       276.6920  203.7280  323.9340 C.ar      1 TA1502      0.0000 
     57 C42       277.4960  204.7290  324.4470 C.ar      1 TA1502      0.0000 
     58 C43       283.5640  207.1220  327.1020 C.3       1 TA1502      0.0000 
     59 C44       284.3630  208.1140  323.5580 C.3       1 TA1502      0.0000 
     60 C45       285.4110  209.0750  327.2650 C.3       1 TA1502      0.0000 
     61 C46       284.7050  210.3050  327.8610 C.3       1 TA1502      0.0000 
     62 C47       286.5880  209.4740  328.1630 C.3       1 TA1502      0.0000 
@<TRIPOS>BOND
     1    1    2 1    
     2    2    3 1    
     3    2   58 1    
     4    2   60 1    
     5    3    4 1    
     6    3   13 1    
     7    4    5 1    
     8    5    6 2    
     9    5    7 1    
    10    7    8 ar   
    11    7   12 ar   
    12    8    9 ar   
    13    9   10 ar   
    14   10   11 ar   
    15   11   12 ar   
    16   13   14 1    
    17   13   25 1    
    18   14   15 1    
    19   14   19 1    
    20   14   21 1    
    21   15   16 1    
    22   16   17 2    
    23   16   18 1    
    24   19   20 1    
    25   20   21 1    
    26   21   22 1    
    27   22   23 1    
    28   23   24 1    
    29   23   25 1    
    30   25   26 1    
    31   25   27 1    
    32   27   28 2    
    33   27   29 1    
    34   29   30 1    
    35   29   34 1    
    36   30   31 1    
    37   31   32 2    
    38   31   33 1    
    39   34   35 2    
    40   34   60 1    
    41   35   36 1    
    42   35   59 1    
    43   36   37 1    
    44   36   58 1    
    45   37   38 1    
    46   38   39 2    
    47   38   40 1    
    48   40   41 1    
    49   40   42 1    
    50   42   43 1    
    51   42   52 1    
    52   43   44 am   
    53   44   45 2    
    54   44   46 1    
    55   46   47 ar   
    56   46   51 ar   
    57   47   48 ar   
    58   48   49 ar   
    59   49   50 ar   
    60   50   51 ar   
    61   52   53 ar   
    62   52   57 ar   
    63   53   54 ar   
    64   54   55 ar   
    65   55   56 ar   
    66   56   57 ar   
    67   60   61 1    
    68   60   62 1    
@<TRIPOS>SUBSTRUCTURE
     1 TA1502      1 GROUP   
@<TRIPOS>SET

