#    Name: 6quy_1_TA1
#    Modification time : Fri May 22 19:33:09 2020

@<TRIPOS>MOLECULE
6quy_1_TA1
   62    68     1     0     0
SMALL
NO_CHARGES


@<TRIPOS>ATOM
      1 O01       329.3690  211.0770  319.6700 O.3       1 TA1502      0.0000 
      2 C01       329.6890  211.0370  318.2720 C.3       1 TA1502      0.0000 
      3 C02       331.3130  210.5320  318.1520 C.3       1 TA1502      0.0000 
      4 O02       331.3950  209.3050  318.9150 O.3       1 TA1502      0.0000 
      5 C03       331.8150  209.3290  320.1880 C.2       1 TA1502      0.0000 
      6 O03       332.1640  210.3310  320.7540 O.2       1 TA1502      0.0000 
      7 C04       331.8450  207.9730  320.7890 C.ar      1 TA1502      0.0000 
      8 C05       331.6400  206.8250  320.0290 C.ar      1 TA1502      0.0000 
      9 C06       331.4970  205.5930  320.6450 C.ar      1 TA1502      0.0000 
     10 C07       331.5430  205.4920  322.0200 C.ar      1 TA1502      0.0000 
     11 C08       331.7470  206.6230  322.7830 C.ar      1 TA1502      0.0000 
     12 C09       331.9090  207.8550  322.1740 C.ar      1 TA1502      0.0000 
     13 C10       331.9630  210.2870  316.7130 C.3       1 TA1502      0.0000 
     14 C11       332.6920  208.8090  316.4670 C.3       1 TA1502      0.0000 
     15 O04       331.7790  207.6890  316.7050 O.3       1 TA1502      0.0000 
     16 C12       330.6960  207.3930  315.9490 C.2       1 TA1502      0.0000 
     17 O05       330.3300  208.0340  315.0130 O.2       1 TA1502      0.0000 
     18 C13       330.0400  206.1600  316.4650 C.3       1 TA1502      0.0000 
     19 C14       333.9380  208.3620  317.2250 C.3       1 TA1502      0.0000 
     20 O06       334.7120  208.2420  316.0210 O.3       1 TA1502      0.0000 
     21 C15       333.5600  208.6230  315.2120 C.3       1 TA1502      0.0000 
     22 C16       333.8240  209.8300  314.3390 C.3       1 TA1502      0.0000 
     23 C17       332.8780  211.0130  314.5340 C.3       1 TA1502      0.0000 
     24 O07       333.2730  212.0830  313.6710 O.3       1 TA1502      0.0000 
     25 C18       332.7580  211.5120  316.0030 C.3       1 TA1502      0.0000 
     26 C19       334.1150  211.9180  316.6070 C.3       1 TA1502      0.0000 
     27 C20       332.0620  212.9430  315.8350 C.2       1 TA1502      0.0000 
     28 O08       332.7290  213.9350  316.0240 O.2       1 TA1502      0.0000 
     29 C21       330.5240  213.3260  315.4800 C.3       1 TA1502      0.0000 
     30 O09       330.4120  214.7770  315.6090 O.3       1 TA1502      0.0000 
     31 C22       330.2270  215.5330  314.5070 C.2       1 TA1502      0.0000 
     32 O10       330.2270  215.0850  313.3980 O.2       1 TA1502      0.0000 
     33 C23       330.0200  216.9640  314.8700 C.3       1 TA1502      0.0000 
     34 C24       329.4100  212.5510  316.2010 C.2       1 TA1502      0.0000 
     35 C25       328.8450  211.5040  315.5590 C.2       1 TA1502      0.0000 
     36 C26       328.0330  210.4690  316.3310 C.3       1 TA1502      0.0000 
     37 O11       327.5950  209.2810  315.6180 O.3       1 TA1502      0.0000 
     38 C27       326.3380  209.3060  315.1570 C.2       1 TA1502      0.0000 
     39 O12       325.5940  210.2390  315.2660 O.2       1 TA1502      0.0000 
     40 C28       325.9740  208.0150  314.4950 C.3       1 TA1502      0.0000 
     41 O13       324.6660  208.1160  313.9660 O.3       1 TA1502      0.0000 
     42 C29       326.0240  206.9730  315.5660 C.3       1 TA1502      0.0000 
     43 N01       325.1090  207.3950  316.6080 N.am      1 TA1502      0.0000 
     44 C30       325.3690  207.0940  317.8810 C.2       1 TA1502      0.0000 
     45 O14       326.2860  206.3410  318.1930 O.2       1 TA1502      0.0000 
     46 C31       324.5030  207.7310  318.9200 C.ar      1 TA1502      0.0000 
     47 C32       323.1330  207.4980  318.9390 C.ar      1 TA1502      0.0000 
     48 C33       322.3370  208.0830  319.9070 C.ar      1 TA1502      0.0000 
     49 C34       322.8950  208.8980  320.8680 C.ar      1 TA1502      0.0000 
     50 C35       324.2520  209.1380  320.8590 C.ar      1 TA1502      0.0000 
     51 C36       325.0540  208.5640  319.8890 C.ar      1 TA1502      0.0000 
     52 C37       325.7510  205.5710  315.0680 C.ar      1 TA1502      0.0000 
     53 C38       326.7920  204.7520  314.6560 C.ar      1 TA1502      0.0000 
     54 C39       326.5380  203.4900  314.1490 C.ar      1 TA1502      0.0000 
     55 C40       325.2470  203.0300  314.0520 C.ar      1 TA1502      0.0000 
     56 C41       324.2070  203.8300  314.4620 C.ar      1 TA1502      0.0000 
     57 C42       324.4550  205.0910  314.9730 C.ar      1 TA1502      0.0000 
     58 C43       328.7230  210.0250  317.6250 C.3       1 TA1502      0.0000 
     59 C44       328.9710  211.2740  314.0810 C.3       1 TA1502      0.0000 
     60 C45       329.4520  212.6130  317.7880 C.3       1 TA1502      0.0000 
     61 C46       328.2570  213.3750  318.3860 C.3       1 TA1502      0.0000 
     62 C47       330.3120  213.5120  318.6850 C.3       1 TA1502      0.0000 
@<TRIPOS>BOND
     1    1    2 1    
     2    2    3 1    
     3    2   58 1    
     4    2   60 1    
     5    3    4 1    
     6    3   13 1    
     7    4    5 1    
     8    5    6 2    
     9    5    7 1    
    10    7    8 ar   
    11    7   12 ar   
    12    8    9 ar   
    13    9   10 ar   
    14   10   11 ar   
    15   11   12 ar   
    16   13   14 1    
    17   13   25 1    
    18   14   15 1    
    19   14   19 1    
    20   14   21 1    
    21   15   16 1    
    22   16   17 2    
    23   16   18 1    
    24   19   20 1    
    25   20   21 1    
    26   21   22 1    
    27   22   23 1    
    28   23   24 1    
    29   23   25 1    
    30   25   26 1    
    31   25   27 1    
    32   27   28 2    
    33   27   29 1    
    34   29   30 1    
    35   29   34 1    
    36   30   31 1    
    37   31   32 2    
    38   31   33 1    
    39   34   35 2    
    40   34   60 1    
    41   35   36 1    
    42   35   59 1    
    43   36   37 1    
    44   36   58 1    
    45   37   38 1    
    46   38   39 2    
    47   38   40 1    
    48   40   41 1    
    49   40   42 1    
    50   42   43 1    
    51   42   52 1    
    52   43   44 am   
    53   44   45 2    
    54   44   46 1    
    55   46   47 ar   
    56   46   51 ar   
    57   47   48 ar   
    58   48   49 ar   
    59   49   50 ar   
    60   50   51 ar   
    61   52   53 ar   
    62   52   57 ar   
    63   53   54 ar   
    64   54   55 ar   
    65   55   56 ar   
    66   56   57 ar   
    67   60   61 1    
    68   60   62 1    
@<TRIPOS>SUBSTRUCTURE
     1 TA1502      1 GROUP   
@<TRIPOS>SET

