#    Name: 6quy_6_GDP
#    Modification time : Fri May 22 19:33:48 2020

@<TRIPOS>MOLECULE
6quy_6_GDP
   28    30     1     0     1
SMALL
NO_CHARGES


@<TRIPOS>ATOM
      1 PB        266.2710  191.1680  343.5760 P.3       1 GDP501      0.0000 
      2 O1B       266.0990  190.8400  342.0990 O.co2     1 GDP501      0.0000 
      3 O2B       265.9540  192.6310  343.7610 O.co2     1 GDP501      0.0000 
      4 O3B       265.4970  190.2970  344.4820 O.co2     1 GDP501      0.0000 
      5 O3A       267.8240  191.0310  343.8830 O.3       1 GDP501      0.0000 
      6 PA        269.0830  191.5240  343.0480 P.3       1 GDP501      0.0000 
      7 O1A       268.5210  192.0150  341.7300 O.co2     1 GDP501      0.0000 
      8 O2A       269.7390  192.6350  343.7560 O.co2     1 GDP501      0.0000 
      9 O5'       270.0320  190.2800  342.7700 O.3       1 GDP501      0.0000 
     10 C5'       271.3830  190.1260  343.2490 C.3       1 GDP501      0.0000 
     11 C4'       272.2990  189.8790  342.0790 C.3       1 GDP501      0.0000 
     12 O4'       272.2910  191.0310  341.2080 O.3       1 GDP501      0.0000 
     13 C3'       273.7630  189.6320  342.4460 C.3       1 GDP501      0.0000 
     14 O3'       274.3350  188.6270  341.6220 O.3       1 GDP501      0.0000 
     15 C2'       274.4090  190.9930  342.2000 C.3       1 GDP501      0.0000 
     16 O2'       275.7810  190.8810  341.8470 O.3       1 GDP501      0.0000 
     17 C1'       273.6130  191.4780  341.0010 C.3       1 GDP501      0.0000 
     18 N9        273.5910  192.9300  340.9070 N.pl3     1 GDP501      0.0000 
     19 C8        273.0010  193.8040  341.7730 C.2       1 GDP501      0.0000 
     20 N7        273.1560  195.0540  341.4230 N.2       1 GDP501      0.0000 
     21 C5        273.8910  194.9890  340.2530 C.2       1 GDP501      0.0000 
     22 C6        274.3400  196.0040  339.4060 C.2       1 GDP501      0.0000 
     23 O6        274.1750  197.2080  339.5610 O.2       1 GDP501      0.0000 
     24 N1        275.0280  195.5150  338.3160 N.am      1 GDP501      0.0000 
     25 C2        275.2580  194.1930  338.0650 C.2       1 GDP501      0.0000 
     26 N2        275.9250  193.8890  336.9540 N.pl3     1 GDP501      0.0000 
     27 N3        274.8390  193.2210  338.8670 N.2       1 GDP501      0.0000 
     28 C4        274.1660  193.6880  339.9300 C.2       1 GDP501      0.0000 
@<TRIPOS>BOND
     1    1    2 ar   
     2    1    3 ar   
     3    1    4 ar   
     4    1    5 1    
     5    5    6 1    
     6    6    7 ar   
     7    6    8 ar   
     8    6    9 1    
     9    9   10 1    
    10   10   11 1    
    11   11   12 1    
    12   11   13 1    
    13   12   17 1    
    14   13   14 1    
    15   13   15 1    
    16   15   16 1    
    17   15   17 1    
    18   17   18 1    
    19   18   19 1    
    20   18   28 1    
    21   19   20 2    
    22   20   21 1    
    23   21   22 1    
    24   21   28 2    
    25   22   23 2    
    26   22   24 am   
    27   24   25 1    
    28   25   26 1    
    29   25   27 2    
    30   27   28 1    
@<TRIPOS>SUBSTRUCTURE
     1 GDP501      1 GROUP   
@<TRIPOS>SET
ATOM$ORANGE STATIC     ATOMS   COLORGROUP SYSTEM 
20 10 10 11 11 13 13 15 15 17 17 19 19 21 21 22 22 25 \
25 28 28 

