#    Name: 6h7m_2_68H
#    Modification time : Fri May 22 19:26:50 2020

@<TRIPOS>MOLECULE
6h7m_2_68H
   17    17     1     0     0
SMALL
NO_CHARGES


@<TRIPOS>ATOM
      1 O2        -22.3030  -32.3430   54.2540 O.3       1 68H405      0.0000 
      2 C2        -21.2580  -31.3770   54.3540 C.3       1 68H405      0.0000 
      3 C12       -20.8210  -30.8600   52.9910 C.ar      1 68H405      0.0000 
      4 C11       -19.8470  -31.6190   52.1480 C.ar      1 68H405      0.0000 
      5 O1        -19.3430  -32.8150   52.5730 O.3       1 68H405      0.0000 
      6 C10       -19.4740  -31.0870   50.9200 C.ar      1 68H405      0.0000 
      7 C9        -19.9950  -29.8630   50.4810 C.ar      1 68H405      0.0000 
      8 C13       -21.2990  -29.6400   52.5100 C.ar      1 68H405      0.0000 
      9 C8        -20.9000  -29.1340   51.2700 C.ar      1 68H405      0.0000 
     10 C1        -21.4740  -27.8300   50.8240 C.3       1 68H405      0.0000 
     11 O3        -20.7850  -27.2350   49.7100 O.3       1 68H405      0.0000 
     12 C3        -22.9450  -28.0590   50.4750 C.3       1 68H405      0.0000 
     13 N1        -23.5310  -26.8900   49.8420 N.4       1 68H405      0.0000 
     14 C4        -24.9820  -26.6890   49.7740 C.3       1 68H405      0.0000 
     15 C7        -25.2430  -25.4190   48.9490 C.3       1 68H405      0.0000 
     16 C6        -25.6660  -27.8840   49.0920 C.3       1 68H405      0.0000 
     17 C5        -25.5030  -26.4840   51.1940 C.3       1 68H405      0.0000 
@<TRIPOS>BOND
     1    1    2 1    
     2    2    3 1    
     3    3    4 ar   
     4    3    8 ar   
     5    4    5 1    
     6    4    6 ar   
     7    6    7 ar   
     8    7    9 ar   
     9    8    9 ar   
    10    9   10 1    
    11   10   11 1    
    12   10   12 1    
    13   12   13 1    
    14   13   14 1    
    15   14   15 1    
    16   14   16 1    
    17   14   17 1    
@<TRIPOS>SUBSTRUCTURE
     1 68H405      1 GROUP   
@<TRIPOS>SET

