#    Name: 6h7m_2_68H_CAVITY_N1_4
#    Modification time : Fri May 22 19:26:51 2020

@<TRIPOS>MOLECULE
6h7m_2_68H_CAVITY_N1_4
   56     0     6     0     0
SMALL
NO_CHARGES


@<TRIPOS>ATOM
      1 OG        -25.3400  -25.1300   48.5600 O.3       1 SER1        0.0000 
      2 OG        -25.2800  -23.9000   47.7100 O.3       1 SER1        0.0000 
      3 OG        -19.5200  -32.4300   51.6600 O.3       1 SER1        0.0000 
      4 N         -28.2200  -25.2300   50.8400 N.am      2 ALA2        0.0000 
      5 N         -26.1700  -25.6100   50.4600 N.am      2 ALA2        0.0000 
      6 O         -27.7600  -25.3200   53.3900 O.2       2 ALA2        0.0000 
      7 N         -24.1900  -27.2100   50.9200 N.am      2 ALA2        0.0000 
      8 N         -24.9500  -26.4500   51.9700 N.am      2 ALA2        0.0000 
      9 N         -24.7500  -22.7500   49.4100 N.am      2 ALA2        0.0000 
     10 O         -24.6800  -21.5200   48.5600 O.2       2 ALA2        0.0000 
     11 N         -25.6400  -24.4600   52.1600 N.am      2 ALA2        0.0000 
     12 N         -25.5800  -23.2300   51.3100 N.am      2 ALA2        0.0000 
     13 O         -21.8100  -30.1400   54.8000 O.2       2 ALA2        0.0000 
     14 NZ        -25.4100  -26.3700   49.4100 N.4       3 LYS4        0.0000 
     15 NZ        -23.4200  -27.9800   49.8800 N.4       3 LYS4        0.0000 
     16 NZ        -21.4400  -29.5800   50.3500 N.4       3 LYS4        0.0000 
     17 NZ        -22.2000  -28.8200   51.3900 N.4       3 LYS4        0.0000 
     18 NZ        -22.1300  -27.5900   50.5400 N.4       3 LYS4        0.0000 
     19 NZ        -20.1500  -29.2000   51.0100 N.4       3 LYS4        0.0000 
     20 NZ        -20.0800  -27.9600   50.1600 N.4       3 LYS4        0.0000 
     21 CZ        -26.7000  -26.7500   48.7500 C.ar      4 PHE5        0.0000 
     22 CZ        -27.4600  -25.9900   49.7900 C.ar      4 PHE5        0.0000 
     23 CZ        -27.4000  -24.7600   48.9400 C.ar      4 PHE5        0.0000 
     24 CZ        -26.1100  -24.3700   49.6000 C.ar      4 PHE5        0.0000 
     25 CZ        -26.0400  -23.1400   48.7500 C.ar      4 PHE5        0.0000 
     26 CZ        -24.2500  -28.4500   51.7700 C.ar      4 PHE5        0.0000 
     27 CZ        -26.4100  -23.7000   53.2000 C.ar      4 PHE5        0.0000 
     28 CZ        -22.3300  -31.2900   53.0900 C.ar      4 PHE5        0.0000 
     29 CZ        -22.2700  -30.0600   52.2400 C.ar      4 PHE5        0.0000 
     30 CZ        -23.1000  -30.5300   54.1400 C.ar      4 PHE5        0.0000 
     31 CZ        -23.0300  -29.3000   53.2800 C.ar      4 PHE5        0.0000 
     32 CZ        -22.9600  -28.0600   52.4300 C.ar      4 PHE5        0.0000 
     33 CZ        -20.2800  -31.6700   52.7100 C.ar      4 PHE5        0.0000 
     34 CZ        -20.2100  -30.4300   51.8600 C.ar      4 PHE5        0.0000 
     35 CZ        -21.0400  -30.9000   53.7500 C.ar      4 PHE5        0.0000 
     36 CZ        -20.9800  -29.6700   52.9000 C.ar      4 PHE5        0.0000 
     37 CZ        -20.9100  -28.4400   52.0500 C.ar      4 PHE5        0.0000 
     38 CZ        -20.8400  -27.2000   51.2000 C.ar      4 PHE5        0.0000 
     39 CZ        -21.7400  -28.9100   53.9500 C.ar      4 PHE5        0.0000 
     40 CZ        -18.8600  -28.8100   51.6700 C.ar      4 PHE5        0.0000 
     41 CZ        -19.6900  -29.2900   53.5600 C.ar      4 PHE5        0.0000 
     42 CA        -28.1600  -24.0000   49.9900 C.3       5 GLY6        0.0000 
     43 CA        -28.0900  -22.7600   49.1400 C.3       5 GLY6        0.0000 
     44 CA        -25.4800  -27.6000   50.2600 C.3       5 GLY6        0.0000 
     45 CA        -26.2400  -26.8400   51.3100 C.3       5 GLY6        0.0000 
     46 CA        -25.9700  -21.9100   47.9000 C.3       5 GLY6        0.0000 
     47 CA        -27.0000  -26.0800   52.3500 C.3       5 GLY6        0.0000 
     48 CA        -23.4900  -29.2100   50.7300 C.3       5 GLY6        0.0000 
     49 CA        -25.5100  -21.9900   50.4600 C.3       5 GLY6        0.0000 
     50 CA        -21.5700  -32.0500   52.0500 C.3       5 GLY6        0.0000 
     51 CA        -21.5000  -30.8200   51.2000 C.3       5 GLY6        0.0000 
     52 CA        -19.4500  -31.1900   50.8100 C.3       5 GLY6        0.0000 
     53 DU        -26.9300  -24.8500   51.5000 H         6 CUB7        0.0000 
     54 DU        -26.8700  -23.6100   50.6500 H         6 CUB7        0.0000 
     55 DU        -26.8000  -22.3800   49.8000 H         6 CUB7        0.0000 
     56 DU        -27.7000  -24.0800   52.5400 H         6 CUB7        0.0000 
@<TRIPOS>BOND
@<TRIPOS>SUBSTRUCTURE
     1 SER1        1 GROUP   
     2 ALA2        4 GROUP   
     3 LYS4       14 GROUP   
     4 PHE5       21 GROUP   
     5 GLY6       42 GROUP   
     6 CUB7       53 GROUP   
@<TRIPOS>SET

