#    Name: 5y5s_1_BPH
#    Modification time : Fri May 22 19:26:19 2020

@<TRIPOS>MOLECULE
5y5s_1_BPH
   65    70     1     0     0
SMALL
NO_CHARGES


@<TRIPOS>ATOM
      1 O1D       -49.6300   46.4050   45.7090 O.2       1 BPH302      0.0000 
      2 CGD       -49.0990   45.4250   46.2270 C.2       1 BPH302      0.0000 
      3 O2D       -48.5670   44.4050   45.3680 O.3       1 BPH302      0.0000 
      4 CED       -48.6750   44.5350   43.9460 C.3       1 BPH302      0.0000 
      5 CBD       -48.9530   45.1940   47.6890 C.3       1 BPH302      0.0000 
      6 CHA       -47.7090   44.5460   48.1590 C.2       1 BPH302      0.0000 
      7 C4D       -48.1100   43.2900   48.8110 C.2       1 BPH302      0.0000 
      8 C3D       -49.4820   43.1300   48.8140 C.2       1 BPH302      0.0000 
      9 CAD       -50.0640   44.3070   48.1340 C.2       1 BPH302      0.0000 
     10 OBD       -51.3140   44.4450   47.9760 O.2       1 BPH302      0.0000 
     11 C2D       -49.7660   41.8590   49.5180 C.2       1 BPH302      0.0000 
     12 CMD       -51.1010   41.1990   49.7690 C.3       1 BPH302      0.0000 
     13 C1D       -48.4120   41.4060   49.8790 C.2       1 BPH302      0.0000 
     14 ND        -47.4820   42.2660   49.4680 N.pl3     1 BPH302      0.0000 
     15 CHD       -48.1190   40.0680   50.4190 C.2       1 BPH302      0.0000 
     16 C4C       -46.7220   39.7280   50.6600 C.2       1 BPH302      0.0000 
     17 C3C       -46.4160   38.3950   51.2720 C.3       1 BPH302      0.0000 
     18 CAC       -47.2540   37.7280   52.3610 C.3       1 BPH302      0.0000 
     19 CBC       -47.5390   38.7760   53.4210 C.3       1 BPH302      0.0000 
     20 C2C       -44.9040   38.4790   51.4690 C.3       1 BPH302      0.0000 
     21 CMC       -43.9670   37.2600   51.6210 C.3       1 BPH302      0.0000 
     22 C1C       -44.5980   39.7450   50.7370 C.2       1 BPH302      0.0000 
     23 NC        -45.7050   40.4310   50.3790 N.2       1 BPH302      0.0000 
     24 CHC       -43.3340   40.0950   50.4700 C.2       1 BPH302      0.0000 
     25 C4B       -42.7020   41.1770   49.6270 C.2       1 BPH302      0.0000 
     26 C3B       -41.2280   41.4560   49.4890 C.2       1 BPH302      0.0000 
     27 CAB       -40.0860   40.5940   49.9570 C.2       1 BPH302      0.0000 
     28 CBB       -40.4600   39.2660   50.3830 C.3       1 BPH302      0.0000 
     29 OBB       -38.9260   41.0260   50.0430 O.2       1 BPH302      0.0000 
     30 C2B       -41.0960   42.6700   48.6580 C.2       1 BPH302      0.0000 
     31 CMB       -39.8540   43.1720   47.9550 C.3       1 BPH302      0.0000 
     32 C1B       -42.5290   42.9190   48.3440 C.2       1 BPH302      0.0000 
     33 NB        -43.3830   42.1580   49.0510 N.pl3     1 BPH302      0.0000 
     34 CHB       -42.9840   44.1080   47.5870 C.2       1 BPH302      0.0000 
     35 C4A       -44.2660   44.5090   47.4050 C.2       1 BPH302      0.0000 
     36 C3A       -44.5500   45.6080   46.4090 C.3       1 BPH302      0.0000 
     37 CMA       -44.6070   44.9920   45.0140 C.3       1 BPH302      0.0000 
     38 C2A       -45.9790   45.9790   46.8540 C.3       1 BPH302      0.0000 
     39 C1A       -46.3120   44.7850   47.7030 C.2       1 BPH302      0.0000 
     40 NA        -45.3350   44.0330   48.0470 N.2       1 BPH302      0.0000 
     41 CAA       -45.9930   47.2270   47.7380 C.3       1 BPH302      0.0000 
     42 CBA       -45.7760   48.4600   46.8730 C.3       1 BPH302      0.0000 
     43 CGA       -45.7160   49.7450   47.6720 C.2       1 BPH302      0.0000 
     44 O1A       -45.8670   49.7840   48.8880 O.2       1 BPH302      0.0000 
     45 O2A       -45.4490   50.9620   46.9480 O.3       1 BPH302      0.0000 
     46 C1        -45.0940   52.1350   47.6800 C.3       1 BPH302      0.0000 
     47 C2        -43.5860   52.1940   47.7300 C.2       1 BPH302      0.0000 
     48 C3        -42.8050   52.3890   46.6520 C.2       1 BPH302      0.0000 
     49 C4        -43.3650   52.6000   45.2710 C.3       1 BPH302      0.0000 
     50 C5        -41.3120   52.4190   46.8710 C.3       1 BPH302      0.0000 
     51 C6        -41.0760   53.0920   48.2200 C.3       1 BPH302      0.0000 
     52 C7        -39.6280   53.5120   48.3300 C.3       1 BPH302      0.0000 
     53 C8        -39.2750   53.8570   49.7620 C.3       1 BPH302      0.0000 
     54 C9        -39.9990   55.1400   50.1790 C.3       1 BPH302      0.0000 
     55 C10       -37.7710   54.0020   49.8090 C.3       1 BPH302      0.0000 
     56 C11       -37.1420   52.6060   49.7780 C.3       1 BPH302      0.0000 
     57 C12       -36.9090   52.1170   51.2000 C.3       1 BPH302      0.0000 
     58 C13       -36.7280   50.6000   51.3010 C.3       1 BPH302      0.0000 
     59 C14       -36.8820   50.2140   52.7660 C.3       1 BPH302      0.0000 
     60 C15       -35.3390   50.2160   50.7810 C.3       1 BPH302      0.0000 
     61 C16       -35.0920   48.6980   50.6500 C.3       1 BPH302      0.0000 
     62 C17       -33.7120   48.4860   50.0100 C.3       1 BPH302      0.0000 
     63 C18       -33.1450   47.0610   50.0070 C.3       1 BPH302      0.0000 
     64 C19       -33.0130   46.5300   48.5850 C.3       1 BPH302      0.0000 
     65 C20       -33.8520   46.0970   50.9520 C.3       1 BPH302      0.0000 
@<TRIPOS>BOND
     1    1    2 2    
     2    2    3 1    
     3    2    5 1    
     4    3    4 1    
     5    5    6 1    
     6    5    9 1    
     7    6    7 1    
     8    6   39 2    
     9    7    8 2    
    10    7   14 1    
    11    8    9 1    
    12    8   11 1    
    13    9   10 2    
    14   11   12 1    
    15   11   13 2    
    16   13   14 1    
    17   13   15 1    
    18   15   16 2    
    19   16   17 1    
    20   16   23 1    
    21   17   18 1    
    22   17   20 1    
    23   18   19 1    
    24   20   21 1    
    25   20   22 1    
    26   22   23 2    
    27   22   24 1    
    28   24   25 2    
    29   25   26 1    
    30   25   33 1    
    31   26   27 1    
    32   26   30 2    
    33   27   28 1    
    34   27   29 2    
    35   30   31 1    
    36   30   32 1    
    37   32   33 1    
    38   32   34 2    
    39   34   35 1    
    40   35   36 1    
    41   35   40 2    
    42   36   37 1    
    43   36   38 1    
    44   38   39 1    
    45   38   41 1    
    46   39   40 1    
    47   41   42 1    
    48   42   43 1    
    49   43   44 2    
    50   43   45 1    
    51   45   46 1    
    52   46   47 1    
    53   47   48 2    
    54   48   49 1    
    55   48   50 1    
    56   50   51 1    
    57   51   52 1    
    58   52   53 1    
    59   53   54 1    
    60   53   55 1    
    61   55   56 1    
    62   56   57 1    
    63   57   58 1    
    64   58   59 1    
    65   58   60 1    
    66   60   61 1    
    67   61   62 1    
    68   62   63 1    
    69   63   64 1    
    70   63   65 1    
@<TRIPOS>SUBSTRUCTURE
     1 BPH302      1 GROUP   
@<TRIPOS>SET

