#    Name: 5y5s_2_BPH
#    Modification time : Fri May 22 19:26:27 2020

@<TRIPOS>MOLECULE
5y5s_2_BPH
   65    70     1     0     0
SMALL
NO_CHARGES


@<TRIPOS>ATOM
      1 O1D       -48.3630   15.2090   43.4360 O.2       1 BPH404      0.0000 
      2 CGD       -47.7390   16.2190   43.6870 C.2       1 BPH404      0.0000 
      3 O2D       -48.2760   17.2190   44.5910 O.3       1 BPH404      0.0000 
      4 CED       -49.6350   17.0950   45.0350 C.3       1 BPH404      0.0000 
      5 CBD       -46.4100   16.4490   43.0850 C.3       1 BPH404      0.0000 
      6 CHA       -45.3820   17.0160   43.9580 C.2       1 BPH404      0.0000 
      7 C4D       -45.1040   18.3630   43.4350 C.2       1 BPH404      0.0000 
      8 C3D       -45.8590   18.6120   42.2860 C.2       1 BPH404      0.0000 
      9 CAD       -46.6860   17.4200   42.0190 C.2       1 BPH404      0.0000 
     10 OBD       -47.4820   17.2910   41.0420 O.2       1 BPH404      0.0000 
     11 C2D       -45.4990   19.9520   41.8230 C.2       1 BPH404      0.0000 
     12 CMD       -46.0540   20.7040   40.6290 C.3       1 BPH404      0.0000 
     13 C1D       -44.4790   20.3640   42.8270 C.2       1 BPH404      0.0000 
     14 ND        -44.2740   19.4200   43.7480 N.pl3     1 BPH404      0.0000 
     15 CHD       -43.8340   21.6830   42.8340 C.2       1 BPH404      0.0000 
     16 C4C       -43.0740   22.0690   44.0290 C.2       1 BPH404      0.0000 
     17 C3C       -42.4740   23.4490   44.1030 C.3       1 BPH404      0.0000 
     18 CAC       -41.8210   24.1450   42.9020 C.3       1 BPH404      0.0000 
     19 CBC       -42.9120   24.7480   42.0010 C.3       1 BPH404      0.0000 
     20 C2C       -41.7160   23.3520   45.4280 C.3       1 BPH404      0.0000 
     21 CMC       -41.4690   24.4550   46.4460 C.3       1 BPH404      0.0000 
     22 C1C       -41.9950   21.9460   45.8480 C.2       1 BPH404      0.0000 
     23 NC        -42.8620   21.3290   45.0390 N.2       1 BPH404      0.0000 
     24 CHC       -41.4040   21.4340   46.9540 C.2       1 BPH404      0.0000 
     25 C4B       -41.7010   20.1850   47.7270 C.2       1 BPH404      0.0000 
     26 C3B       -41.2600   19.9660   49.1380 C.2       1 BPH404      0.0000 
     27 CAB       -40.1900   20.7210   49.8530 C.2       1 BPH404      0.0000 
     28 CBB       -40.3520   22.1640   49.8050 C.3       1 BPH404      0.0000 
     29 OBB       -39.2270   20.1910   50.4340 O.2       1 BPH404      0.0000 
     30 C2B       -41.7380   18.6300   49.4910 C.2       1 BPH404      0.0000 
     31 CMB       -41.5350   17.9780   50.8230 C.3       1 BPH404      0.0000 
     32 C1B       -42.6180   18.3040   48.3300 C.2       1 BPH404      0.0000 
     33 NB        -42.5140   19.1990   47.3290 N.pl3     1 BPH404      0.0000 
     34 CHB       -43.5170   17.1310   48.2850 C.2       1 BPH404      0.0000 
     35 C4A       -44.2080   16.6660   47.2200 C.2       1 BPH404      0.0000 
     36 C3A       -45.0940   15.4620   47.3590 C.3       1 BPH404      0.0000 
     37 CMA       -46.3190   15.9010   48.1620 C.3       1 BPH404      0.0000 
     38 C2A       -45.4430   15.2420   45.8760 C.3       1 BPH404      0.0000 
     39 C1A       -45.0330   16.5780   45.3260 C.2       1 BPH404      0.0000 
     40 NA        -44.3530   17.3190   46.0760 N.2       1 BPH404      0.0000 
     41 CAA       -44.5690   14.1440   45.2480 C.3       1 BPH404      0.0000 
     42 CBA       -45.0200   12.8580   45.9000 C.3       1 BPH404      0.0000 
     43 CGA       -44.2520   11.6430   45.4510 C.2       1 BPH404      0.0000 
     44 O1A       -43.3360   11.6650   44.6300 O.2       1 BPH404      0.0000 
     45 O2A       -44.6640   10.4220   46.0830 O.3       1 BPH404      0.0000 
     46 C1        -43.9460    9.2140   45.8230 C.3       1 BPH404      0.0000 
     47 C2        -43.0200    9.2310   47.0040 C.2       1 BPH404      0.0000 
     48 C3        -43.3440    8.5080   48.0750 C.2       1 BPH404      0.0000 
     49 C4        -42.4540    8.5790   49.2660 C.3       1 BPH404      0.0000 
     50 C5        -44.5970    7.6830   48.0730 C.3       1 BPH404      0.0000 
     51 C6        -44.7810    7.1840   49.5110 C.3       1 BPH404      0.0000 
     52 C7        -46.1830    6.6910   49.8420 C.3       1 BPH404      0.0000 
     53 C8        -46.7250    7.3410   51.1130 C.3       1 BPH404      0.0000 
     54 C9        -45.8580    7.0460   52.3280 C.3       1 BPH404      0.0000 
     55 C10       -48.1880    6.9390   51.3330 C.3       1 BPH404      0.0000 
     56 C11       -48.3280    5.5290   51.9060 C.3       1 BPH404      0.0000 
     57 C12       -49.5890    4.8640   51.3620 C.3       1 BPH404      0.0000 
     58 C13       -49.8300    3.4760   51.9520 C.3       1 BPH404      0.0000 
     59 C14       -50.7110    2.6510   51.0220 C.3       1 BPH404      0.0000 
     60 C15       -50.4350    3.5880   53.3500 C.3       1 BPH404      0.0000 
     61 C16       -50.8900    2.2300   53.8790 C.3       1 BPH404      0.0000 
     62 C17       -50.9520    2.2130   55.4060 C.3       1 BPH404      0.0000 
     63 C18       -52.0730    1.3150   55.9260 C.3       1 BPH404      0.0000 
     64 C19       -53.4440    1.8800   55.5720 C.3       1 BPH404      0.0000 
     65 C20       -51.9480    1.0850   57.4290 C.3       1 BPH404      0.0000 
@<TRIPOS>BOND
     1    1    2 2    
     2    2    3 1    
     3    2    5 1    
     4    3    4 1    
     5    5    6 1    
     6    5    9 1    
     7    6    7 1    
     8    6   39 2    
     9    7    8 2    
    10    7   14 1    
    11    8    9 1    
    12    8   11 1    
    13    9   10 2    
    14   11   12 1    
    15   11   13 2    
    16   13   14 1    
    17   13   15 1    
    18   15   16 2    
    19   16   17 1    
    20   16   23 1    
    21   17   18 1    
    22   17   20 1    
    23   18   19 1    
    24   20   21 1    
    25   20   22 1    
    26   22   23 2    
    27   22   24 1    
    28   24   25 2    
    29   25   26 1    
    30   25   33 1    
    31   26   27 1    
    32   26   30 2    
    33   27   28 1    
    34   27   29 2    
    35   30   31 1    
    36   30   32 1    
    37   32   33 1    
    38   32   34 2    
    39   34   35 1    
    40   35   36 1    
    41   35   40 2    
    42   36   37 1    
    43   36   38 1    
    44   38   39 1    
    45   38   41 1    
    46   39   40 1    
    47   41   42 1    
    48   42   43 1    
    49   43   44 2    
    50   43   45 1    
    51   45   46 1    
    52   46   47 1    
    53   47   48 2    
    54   48   49 1    
    55   48   50 1    
    56   50   51 1    
    57   51   52 1    
    58   52   53 1    
    59   53   54 1    
    60   53   55 1    
    61   55   56 1    
    62   56   57 1    
    63   57   58 1    
    64   58   59 1    
    65   58   60 1    
    66   60   61 1    
    67   61   62 1    
    68   62   63 1    
    69   63   64 1    
    70   63   65 1    
@<TRIPOS>SUBSTRUCTURE
     1 BPH404      1 GROUP   
@<TRIPOS>SET

