#    Name: 5y7r_1_58K_CAVITY_N1_4
#    Modification time : Fri May 22 19:29:31 2020

@<TRIPOS>MOLECULE
5y7r_1_58K_CAVITY_N1_4
   64     0     7     0     0
SMALL
NO_CHARGES


@<TRIPOS>ATOM
      1 OG        -24.8000  -23.6000   -2.7900 O.3       1 SER1        0.0000 
      2 OG        -23.9900  -23.1900   -3.9800 O.3       1 SER1        0.0000 
      3 OG        -22.2200  -23.3100   -2.8100 O.3       1 SER1        0.0000 
      4 OG        -23.2200  -22.2300   -3.1200 O.3       1 SER1        0.0000 
      5 OG        -21.7700  -19.9300   -7.0100 O.3       1 SER1        0.0000 
      6 O         -26.7500  -21.9900   -5.4600 O.2       2 ALA2        0.0000 
      7 O         -26.0200  -20.4800   -2.5500 O.2       2 ALA2        0.0000 
      8 O         -27.8300  -19.8100   -1.6700 O.2       2 ALA2        0.0000 
      9 O         -27.0100  -19.4000   -2.8600 O.2       2 ALA2        0.0000 
     10 O         -28.8200  -18.7300   -1.9800 O.2       2 ALA2        0.0000 
     11 O         -28.0100  -18.3200   -3.1700 O.2       2 ALA2        0.0000 
     12 O         -20.6400  -21.9500   -3.1500 O.2       2 ALA2        0.0000 
     13 O         -25.2500  -19.5300   -1.6900 O.2       2 ALA2        0.0000 
     14 OD1       -22.4000  -21.8200   -4.3200 O.co2     3 ASP3        0.0000 
     15 OD1       -21.5900  -21.4200   -5.5100 O.co2     3 ASP3        0.0000 
     16 NZ        -24.7600  -24.1500   -4.8400 N.4       4 LYS4        0.0000 
     17 NZ        -25.7600  -23.0700   -5.1500 N.4       4 LYS4        0.0000 
     18 NZ        -24.9400  -22.6600   -6.3400 N.4       4 LYS4        0.0000 
     19 NZ        -24.9900  -22.1100   -4.2900 N.4       4 LYS4        0.0000 
     20 NZ        -24.1700  -21.7000   -5.4800 N.4       4 LYS4        0.0000 
     21 NZ        -23.3600  -21.2900   -6.6700 N.4       4 LYS4        0.0000 
     22 CZ        -25.5800  -24.5600   -3.6500 C.ar      5 PHE5        0.0000 
     23 CZ        -26.5700  -23.4800   -3.9500 C.ar      5 PHE5        0.0000 
     24 CZ        -27.5700  -22.4000   -4.2600 C.ar      5 PHE5        0.0000 
     25 CZ        -25.6200  -24.0100   -1.6000 C.ar      5 PHE5        0.0000 
     26 CZ        -26.6100  -22.9300   -1.9100 C.ar      5 PHE5        0.0000 
     27 CZ        -25.8000  -22.5200   -3.1000 C.ar      5 PHE5        0.0000 
     28 CZ        -27.6100  -21.8500   -2.2100 C.ar      5 PHE5        0.0000 
     29 CZ        -26.7900  -21.4400   -3.4100 C.ar      5 PHE5        0.0000 
     30 CA        -28.7400  -19.8300   -6.0700 C.3       6 GLY6        0.0000 
     31 CA        -24.3500  -20.2100   -6.9800 C.3       6 GLY6        0.0000 
     32 CA        -29.4200  -21.1800   -1.3300 C.3       6 GLY6        0.0000 
     33 CA        -28.6000  -20.7700   -2.5200 C.3       6 GLY6        0.0000 
     34 CA        -26.1600  -19.5400   -6.1000 C.3       6 GLY6        0.0000 
     35 CA        -29.6000  -19.6900   -2.8300 C.3       6 GLY6        0.0000 
     36 CA        -27.9700  -18.8700   -5.2200 C.3       6 GLY6        0.0000 
     37 CA        -24.0300  -22.6400   -1.9300 C.3       6 GLY6        0.0000 
     38 CA        -25.8400  -21.9700   -1.0500 C.3       6 GLY6        0.0000 
     39 CA        -25.0300  -21.5600   -2.2400 C.3       6 GLY6        0.0000 
     40 CA        -24.2100  -21.1500   -3.4300 C.3       6 GLY6        0.0000 
     41 CA        -26.8300  -20.8900   -1.3600 C.3       6 GLY6        0.0000 
     42 CA        -24.3900  -19.6600   -4.9300 C.3       6 GLY6        0.0000 
     43 CA        -23.5800  -19.2600   -6.1200 C.3       6 GLY6        0.0000 
     44 CA        -22.7600  -18.8500   -7.3200 C.3       6 GLY6        0.0000 
     45 CA        -28.6400  -20.2200   -0.4700 C.3       6 GLY6        0.0000 
     46 CA        -22.4400  -21.2800   -2.2700 C.3       6 GLY6        0.0000 
     47 CA        -21.6300  -20.8700   -3.4600 C.3       6 GLY6        0.0000 
     48 CA        -20.8200  -20.4600   -4.6500 C.3       6 GLY6        0.0000 
     49 CA        -23.4400  -20.2000   -2.5800 C.3       6 GLY6        0.0000 
     50 CA        -22.6200  -19.7900   -3.7700 C.3       6 GLY6        0.0000 
     51 CA        -21.8100  -19.3800   -4.9600 C.3       6 GLY6        0.0000 
     52 CA        -21.0000  -18.9700   -6.1500 C.3       6 GLY6        0.0000 
     53 CA        -24.4300  -19.1200   -2.8800 C.3       6 GLY6        0.0000 
     54 CA        -23.6200  -18.7100   -4.0800 C.3       6 GLY6        0.0000 
     55 CA        -22.8000  -18.3000   -5.2700 C.3       6 GLY6        0.0000 
     56 CA        -21.8500  -18.8300   -2.9100 C.3       6 GLY6        0.0000 
     57 DU        -25.9800  -21.0300   -4.6000 H         7 CUB7        0.0000 
     58 DU        -25.1700  -20.6200   -5.7900 H         7 CUB7        0.0000 
     59 DU        -27.7900  -20.3600   -3.7200 H         7 CUB7        0.0000 
     60 DU        -26.9700  -19.9500   -4.9100 H         7 CUB7        0.0000 
     61 DU        -28.7800  -19.2800   -4.0200 H         7 CUB7        0.0000 
     62 DU        -23.4000  -20.7400   -4.6200 H         7 CUB7        0.0000 
     63 DU        -22.5800  -20.3400   -5.8200 H         7 CUB7        0.0000 
     64 DU        -25.2100  -20.0700   -3.7400 H         7 CUB7        0.0000 
@<TRIPOS>BOND
@<TRIPOS>SUBSTRUCTURE
     1 SER1        1 GROUP   
     2 ALA2        6 GROUP   
     3 ASP3       14 GROUP   
     4 LYS4       16 GROUP   
     5 PHE5       22 GROUP   
     6 GLY6       30 GROUP   
     7 CUB7       57 GROUP   
@<TRIPOS>SET

