#    Name: 5y7r_1_58K
#    Modification time : Fri May 22 19:29:30 2020

@<TRIPOS>MOLECULE
5y7r_1_58K
   37    39     1     0     0
SMALL
NO_CHARGES


@<TRIPOS>ATOM
      1 C4        -24.9510  -20.1740   -3.5900           1 58K403      0.0000 
      2 C7        -25.0960  -22.6580   -4.0330           1 58K403      0.0000 
      3 C8        -25.3360  -24.0970   -3.2780           1 58K403      0.0000 
      4 C10       -24.6190  -25.3970   -1.3220           1 58K403      0.0000 
      5 C13       -22.8070  -23.4120   -0.4460           1 58K403      0.0000 
      6 C15       -25.9190  -22.5390   -5.1900           1 58K403      0.0000 
      7 C20       -22.6530  -19.5520   -7.1730           1 58K403      0.0000 
      8 C12       -22.9600  -24.7070    0.3410           1 58K403      0.0000 
      9 C11       -23.8080  -25.6260   -0.0600           1 58K403      0.0000 
     10 C14       -23.5100  -23.2140   -1.5460           1 58K403      0.0000 
     11 C9        -24.4840  -24.2840   -2.0170           1 58K403      0.0000 
     12 O16       -26.8240  -23.2780   -5.4090           1 58K403      0.0000 
     13 N17       -25.6540  -21.5130   -6.1050           1 58K403      0.0000 
     14 C18       -24.5760  -20.6220   -5.9790           1 58K403      0.0000 
     15 C19       -23.7830  -20.3940   -7.0960           1 58K403      0.0000 
     16 C1        -22.2860  -18.8860   -5.9560           1 58K403      0.0000 
     17 C2        -23.0240  -19.0720   -4.7990           1 58K403      0.0000 
     18 C3        -24.2100  -19.9790   -4.7600           1 58K403      0.0000 
     19 O5        -25.1940  -19.2180   -2.9110           1 58K403      0.0000 
     20 N6        -25.4060  -21.4300   -3.1860           1 58K403      0.0000 
     21 C23       -26.1800  -21.4550   -1.9430           1 58K403      0.0000 
     22 H1        -24.1980  -22.6090   -4.3030           1 58K403      0.0000 
     23 H2        -25.1340  -24.7880   -3.8810           1 58K403      0.0000 
     24 H3        -26.2420  -24.1620   -3.0390           1 58K403      0.0000 
     25 H4        -25.2160  -26.0490   -1.6090           1 58K403      0.0000 
     26 H5        -22.2050  -22.7650   -0.1580           1 58K403      0.0000 
     27 H6        -22.1770  -19.4350   -7.9620           1 58K403      0.0000 
     28 H7        -22.4610  -24.8410    1.1140           1 58K403      0.0000 
     29 H8        -23.9040  -26.4160    0.4200           1 58K403      0.0000 
     30 H9        -23.4130  -22.4240   -2.0270           1 58K403      0.0000 
     31 H10       -26.1460  -21.4630   -6.8180           1 58K403      0.0000 
     32 H11       -24.0130  -20.7940   -7.8170           1 58K403      0.0000 
     33 H12       -21.5520  -18.3170   -5.9470           1 58K403      0.0000 
     34 H13       -22.7840  -18.6690   -4.0830           1 58K403      0.0000 
     35 H14       -25.6320  -21.1900   -1.2280           1 58K403      0.0000 
     36 H15       -26.9070  -20.8650   -2.0150           1 58K403      0.0000 
     37 H16       -26.4970  -22.3250   -1.7890           1 58K403      0.0000 
@<TRIPOS>BOND
     1    1   18 du   
     2    1   19 du   
     3    1   20 du   
     4    2    3 du   
     5    2    6 du   
     6    2   20 du   
     7    3   11 du   
     8    2   22 1    
     9    4    9 du   
    10    3   23 1    
    11    3   24 1    
    12    4   11 du   
    13    5    8 du   
    14    4   25 1    
    15    5   10 du   
    16    6   12 du   
    17    5   26 1    
    18    6   13 du   
    19    7   15 du   
    20    7   16 du   
    21    8    9 du   
    22    7   27 1    
    23   10   11 du   
    24    8   28 1    
    25    9   29 1    
    26   13   14 du   
    27   10   30 1    
    28   14   15 du   
    29   13   31 1    
    30   14   18 du   
    31   16   17 du   
    32   15   32 1    
    33   17   18 du   
    34   16   33 1    
    35   20   21 du   
    36   17   34 1    
    37   21   35 1    
    38   21   36 1    
    39   21   37 1    
@<TRIPOS>SUBSTRUCTURE
     1 58K403      1 GROUP   
@<TRIPOS>SET

