#    Name: 6b1i_2_ADP
#    Modification time : Fri May 22 19:32:20 2020

@<TRIPOS>MOLECULE
6b1i_2_ADP
   27    29     1     0     1
SMALL
NO_CHARGES


@<TRIPOS>ATOM
      1 PB         87.7080   25.1470  110.3550 P.3       1 ADP403      0.0000 
      2 O1B        87.4580   23.9530  109.4640 O.co2     1 ADP403      0.0000 
      3 O2B        87.0310   25.0520  111.7010 O.co2     1 ADP403      0.0000 
      4 O3B        89.1470   25.6040  110.3810 O.co2     1 ADP403      0.0000 
      5 PA         86.0380   27.4500  110.3260 P.3       1 ADP403      0.0000 
      6 O1A        86.9380   28.4320  111.0320 O.co2     1 ADP403      0.0000 
      7 O2A        84.8910   26.7860  111.0500 O.co2     1 ADP403      0.0000 
      8 O3A        86.9260   26.3240  109.5920 O.3       1 ADP403      0.0000 
      9 O5'        85.4690   28.1490  108.9970 O.3       1 ADP403      0.0000 
     10 C5'        86.2720   29.1040  108.3170 C.3       1 ADP403      0.0000 
     11 C4'        85.6760   29.3220  106.9370 C.3       1 ADP403      0.0000 
     12 O4'        84.4170   29.9850  107.0530 O.3       1 ADP403      0.0000 
     13 C3'        86.5730   30.1820  106.0670 C.3       1 ADP403      0.0000 
     14 O3'        86.8300   29.4620  104.8590 O.3       1 ADP403      0.0000 
     15 C2'        85.7680   31.4220  105.7470 C.3       1 ADP403      0.0000 
     16 O2'        85.8910   31.7400  104.3600 O.3       1 ADP403      0.0000 
     17 C1'        84.3390   31.0430  106.0990 C.3       1 ADP403      0.0000 
     18 N9         83.6160   32.1990  106.6760 N.pl3     1 ADP403      0.0000 
     19 C8         83.9650   32.8870  107.7800 C.2       1 ADP403      0.0000 
     20 N7         83.0820   33.8880  108.0240 N.2       1 ADP403      0.0000 
     21 C5         82.1450   33.8470  107.0570 C.ar      1 ADP403      0.0000 
     22 C6         80.9260   34.6140  106.7110 C.ar      1 ADP403      0.0000 
     23 N6         80.5180   35.6600  107.4680 N.pl3     1 ADP403      0.0000 
     24 N1         80.2350   34.2350  105.6120 N.ar      1 ADP403      0.0000 
     25 C2         80.6270   33.2000  104.8480 C.ar      1 ADP403      0.0000 
     26 N3         81.7190   32.4600  105.1030 N.ar      1 ADP403      0.0000 
     27 C4         82.5050   32.7320  106.1710 C.ar      1 ADP403      0.0000 
@<TRIPOS>BOND
     1    1    2 ar   
     2    1    3 ar   
     3    1    4 ar   
     4    1    8 1    
     5    5    6 ar   
     6    5    7 ar   
     7    5    8 1    
     8    5    9 1    
     9    9   10 1    
    10   10   11 1    
    11   11   12 1    
    12   11   13 1    
    13   12   17 1    
    14   13   14 1    
    15   13   15 1    
    16   15   16 1    
    17   15   17 1    
    18   17   18 1    
    19   18   19 1    
    20   18   27 1    
    21   19   20 2    
    22   20   21 1    
    23   21   22 ar   
    24   21   27 ar   
    25   22   23 1    
    26   22   24 ar   
    27   24   25 ar   
    28   25   26 ar   
    29   26   27 ar   
@<TRIPOS>SUBSTRUCTURE
     1 ADP403      1 GROUP   
@<TRIPOS>SET
ATOM$ORANGE STATIC     ATOMS   COLORGROUP SYSTEM 
20 10 10 11 11 13 13 15 15 17 17 19 19 21 21 22 22 25 \
25 27 27 

