#    Name: 6b1i_2_ADP_CAVITY_N1_ALL
#    Modification time : Fri May 22 19:32:21 2020

@<TRIPOS>MOLECULE
6b1i_2_ADP_CAVITY_N1_ALL
   84     0     7     0     0
SMALL
NO_CHARGES


@<TRIPOS>ATOM
      1 OG         85.1900   29.6200  105.7600 O.3       1 SER1        0.0000 
      2 OG         86.5900   32.3300  109.7000 O.3       1 SER1        0.0000 
      3 OG         87.3100   35.5800  110.0600 O.3       1 SER1        0.0000 
      4 OG         87.4000   34.1400  110.4500 O.3       1 SER1        0.0000 
      5 OG         89.4000   35.7800  110.3200 O.3       1 SER1        0.0000 
      6 N          82.6100   32.8400  106.7500 N.am      2 ALA2        0.0000 
      7 O          83.9900   29.7900  106.6500 O.2       2 ALA2        0.0000 
      8 N          85.2800   28.1800  106.1500 N.am      2 ALA2        0.0000 
      9 N          82.3100   33.3700  108.7800 N.am      2 ALA2        0.0000 
     10 N          83.5100   33.2100  107.9000 N.am      2 ALA2        0.0000 
     11 O          84.9800   28.7100  108.1900 O.2       2 ALA2        0.0000 
     12 O          86.1700   28.5400  107.3000 O.2       2 ALA2        0.0000 
     13 O          85.8700   29.0700  109.3300 O.2       2 ALA2        0.0000 
     14 O          85.9600   27.6300  109.7200 O.2       2 ALA2        0.0000 
     15 O          87.1600   27.4600  108.8400 O.2       2 ALA2        0.0000 
     16 O          87.2500   26.0100  109.2300 O.2       2 ALA2        0.0000 
     17 N          88.1200   37.3900  110.8100 N.am      2 ALA2        0.0000 
     18 N          89.3100   37.2300  109.9300 N.am      2 ALA2        0.0000 
     19 OD1        85.1000   31.0700  105.3700 O.co2     3 ASP3        0.0000 
     20 OD1        80.6300   36.9600  110.9200 O.co2     3 ASP3        0.0000 
     21 OD1        81.8300   36.7900  110.0300 O.co2     3 ASP3        0.0000 
     22 OD1        81.9200   35.3500  110.4300 O.co2     3 ASP3        0.0000 
     23 OD1        83.0300   36.6300  109.1500 O.co2     3 ASP3        0.0000 
     24 OD1        84.2300   36.4600  108.2600 O.co2     3 ASP3        0.0000 
     25 OD1        82.8100   35.7100  111.5700 O.co2     3 ASP3        0.0000 
     26 OD1        85.1200   36.8300  109.4100 O.co2     3 ASP3        0.0000 
     27 OD1        86.4100   35.2200  108.9100 O.co2     3 ASP3        0.0000 
     28 OD1        86.0200   37.1900  110.5500 O.co2     3 ASP3        0.0000 
     29 OD1        87.2200   37.0300  109.6700 O.co2     3 ASP3        0.0000 
     30 OD1        88.4200   36.8600  108.7800 O.co2     3 ASP3        0.0000 
     31 NZ         84.7100   33.0400  107.0100 N.4       4 LYS4        0.0000 
     32 NZ         86.0000   31.4300  106.5200 N.4       4 LYS4        0.0000 
     33 NZ         87.2000   31.2700  105.6300 N.4       4 LYS4        0.0000 
     34 NZ         83.2100   33.7400  109.9300 N.4       4 LYS4        0.0000 
     35 NZ         83.3000   32.2900  110.3200 N.4       4 LYS4        0.0000 
     36 NZ         84.4000   33.5700  109.0400 N.4       4 LYS4        0.0000 
     37 NZ         85.6000   33.4100  108.1600 N.4       4 LYS4        0.0000 
     38 NZ         86.8000   33.2400  107.2700 N.4       4 LYS4        0.0000 
     39 NZ         84.0100   35.5500  110.6900 N.4       4 LYS4        0.0000 
     40 NZ         85.3000   33.9400  110.1900 N.4       4 LYS4        0.0000 
     41 NZ         85.4800   31.0500  110.9700 N.4       4 LYS4        0.0000 
     42 NZ         87.6100   35.0500  108.0300 N.4       4 LYS4        0.0000 
     43 NZ         87.7000   33.6100  108.4200 N.4       4 LYS4        0.0000 
     44 NZ         88.8100   34.8900  107.1400 N.4       4 LYS4        0.0000 
     45 NZ         83.7100   36.0800  112.7200 N.4       4 LYS4        0.0000 
     46 NZ         84.9100   35.9100  111.8300 N.4       4 LYS4        0.0000 
     47 NZ         86.2000   34.3000  111.3400 N.4       4 LYS4        0.0000 
     48 CZ         87.2800   29.8200  106.0200 C.ar      5 PHE5        0.0000 
     49 CZ         86.8900   31.8000  107.6600 C.ar      5 PHE5        0.0000 
     50 CZ         86.9800   30.3500  108.0500 C.ar      5 PHE5        0.0000 
     51 CZ         87.0700   28.9100  108.4500 C.ar      5 PHE5        0.0000 
     52 CZ         88.0900   31.6300  106.7800 C.ar      5 PHE5        0.0000 
     53 CZ         86.6800   30.8800  110.0900 C.ar      5 PHE5        0.0000 
     54 CZ         87.7900   32.1600  108.8100 C.ar      5 PHE5        0.0000 
     55 CZ         88.6000   33.9700  109.5600 C.ar      5 PHE5        0.0000 
     56 CA         83.8100   32.6800  105.8700 C.3       6 GLY6        0.0000 
     57 CA         83.9000   31.2300  106.2600 C.3       6 GLY6        0.0000 
     58 CA         80.9300   36.4300  108.8900 C.3       6 GLY6        0.0000 
     59 CA         82.1300   36.2600  108.0000 C.3       6 GLY6        0.0000 
     60 CA         82.2200   34.8200  108.3900 C.3       6 GLY6        0.0000 
     61 CA         83.4200   34.6500  107.5100 C.3       6 GLY6        0.0000 
     62 CA         83.6000   31.7600  108.2900 C.3       6 GLY6        0.0000 
     63 CA         84.8000   31.6000  107.4000 C.3       6 GLY6        0.0000 
     64 CA         84.8900   30.1500  107.7900 C.3       6 GLY6        0.0000 
     65 CA         85.0600   27.2600  108.5800 C.3       6 GLY6        0.0000 
     66 CA         84.3200   35.0200  108.6500 C.3       6 GLY6        0.0000 
     67 CA         84.4900   32.1300  109.4400 C.3       6 GLY6        0.0000 
     68 CA         84.5800   30.6800  109.8300 C.3       6 GLY6        0.0000 
     69 CA         85.5100   34.8500  107.7700 C.3       6 GLY6        0.0000 
     70 CA         85.7800   30.5200  108.9400 C.3       6 GLY6        0.0000 
     71 CA         86.0500   26.1800  110.1100 C.3       6 GLY6        0.0000 
     72 CA         86.7700   29.4400  110.4800 C.3       6 GLY6        0.0000 
     73 CA         86.8600   27.9900  110.8700 C.3       6 GLY6        0.0000 
     74 CA         88.0600   27.8300  109.9800 C.3       6 GLY6        0.0000 
     75 DU         86.0900   29.9900  106.9100 H         7 CUB7        0.0000 
     76 DU         83.1200   35.1800  109.5400 H         7 CUB7        0.0000 
     77 DU         85.6900   31.9600  108.5500 H         7 CUB7        0.0000 
     78 DU         82.7200   37.1600  111.1800 H         7 CUB7        0.0000 
     79 DU         83.9200   36.9900  110.2900 H         7 CUB7        0.0000 
     80 DU         85.2100   35.3800  109.8000 H         7 CUB7        0.0000 
     81 DU         86.5000   33.7700  109.3000 H         7 CUB7        0.0000 
     82 DU         84.8200   37.3600  111.4400 H         7 CUB7        0.0000 
     83 DU         86.1100   35.7500  110.9500 H         7 CUB7        0.0000 
     84 DU         88.5100   35.4200  109.1700 H         7 CUB7        0.0000 
@<TRIPOS>BOND
@<TRIPOS>SUBSTRUCTURE
     1 SER1        1 GROUP   
     2 ALA2        6 GROUP   
     3 ASP3       19 GROUP   
     4 LYS4       31 GROUP   
     5 PHE5       48 GROUP   
     6 GLY6       56 GROUP   
     7 CUB7       75 GROUP   
@<TRIPOS>SET

