#    Name: 6sh3_6_ADP_CAVITY_N1_6
#    Modification time : Fri May 22 19:37:26 2020

@<TRIPOS>MOLECULE
6sh3_6_ADP_CAVITY_N1_6
   14     0     4     0     0
SMALL
NO_CHARGES


@<TRIPOS>ATOM
      1 N          92.5700  143.1700  145.0800 N.am      1 ALA2        0.0000 
      2 N          91.5800  144.2900  144.9100 N.am      1 ALA2        0.0000 
      3 N          94.4700  145.0700  146.4200 N.am      1 ALA2        0.0000 
      4 OD1        92.1900  144.6200  143.5800 O.co2     2 ASP3        0.0000 
      5 OD1        90.3700  143.6200  147.5700 O.co2     2 ASP3        0.0000 
      6 OD1        93.5200  144.1200  145.7500 O.co2     2 ASP3        0.0000 
      7 OD1        91.9200  144.9000  146.9100 O.co2     2 ASP3        0.0000 
      8 CA         91.6200  142.2200  144.4100 C.3       3 GLY6        0.0000 
      9 CA         92.9500  141.7200  146.5800 C.3       3 GLY6        0.0000 
     10 CA         91.9600  142.8400  146.4100 C.3       3 GLY6        0.0000 
     11 DU         93.9000  142.6700  147.2500 H         4 CUB7        0.0000 
     12 DU         92.9100  143.7800  147.0800 H         4 CUB7        0.0000 
     13 DU         93.8600  144.7300  147.7500 H         4 CUB7        0.0000 
     14 DU         94.2000  145.3400  149.7600 H         4 CUB7        0.0000 
@<TRIPOS>BOND
@<TRIPOS>SUBSTRUCTURE
     1 ALA2        1 GROUP   
     2 ASP3        4 GROUP   
     3 GLY6        8 GROUP   
     4 CUB7       11 GROUP   
@<TRIPOS>SET

