#    Name: 6sh3_5_ADP_CAVITY_N1_6
#    Modification time : Fri May 22 19:37:21 2020

@<TRIPOS>MOLECULE
6sh3_5_ADP_CAVITY_N1_6
   16     0     4     0     0
SMALL
NO_CHARGES


@<TRIPOS>ATOM
      1 N         101.7400  106.6300  143.4400 N.am      1 ALA2        0.0000 
      2 O         103.0700  106.1300  145.6200 O.2       1 ALA2        0.0000 
      3 N         101.0500  110.4200  145.7800 N.am      1 ALA2        0.0000 
      4 N         102.3800  109.9200  147.9500 N.am      1 ALA2        0.0000 
      5 N         100.7900  110.6900  149.1100 N.am      1 ALA2        0.0000 
      6 OD1       102.0800  107.2400  145.4500 O.co2     2 ASP3        0.0000 
      7 OD1       101.4800  106.9100  146.7800 O.co2     2 ASP3        0.0000 
      8 OD1       102.0400  109.3000  145.9500 O.co2     2 ASP3        0.0000 
      9 OD1       101.4400  108.9700  147.2800 O.co2     2 ASP3        0.0000 
     10 CA        102.4700  105.7900  146.9500 C.3       3 GLY6        0.0000 
     11 CA        104.4000  105.6300  147.7900 C.3       3 GLY6        0.0000 
     12 CA        103.4100  106.7400  147.6200 C.3       3 GLY6        0.0000 
     13 DU        103.0300  108.1900  146.1200 H         4 CUB7        0.0000 
     14 DU        102.4300  107.8500  147.4500 H         4 CUB7        0.0000 
     15 DU        104.3600  107.6900  148.2900 H         4 CUB7        0.0000 
     16 DU        103.3700  108.8000  148.1200 H         4 CUB7        0.0000 
@<TRIPOS>BOND
@<TRIPOS>SUBSTRUCTURE
     1 ALA2        1 GROUP   
     2 ASP3        6 GROUP   
     3 GLY6       10 GROUP   
     4 CUB7       13 GROUP   
@<TRIPOS>SET

