#    Name: 6sh3_4_ADP_CAVITY_N1_8
#    Modification time : Fri May 22 19:37:15 2020

@<TRIPOS>MOLECULE
6sh3_4_ADP_CAVITY_N1_8
   48     0     4     0     0
SMALL
NO_CHARGES


@<TRIPOS>ATOM
      1 N         137.9100   92.2100  142.8100 N.am      1 ALA2        0.0000 
      2 N         138.2900   90.7700  144.3100 N.am      1 ALA2        0.0000 
      3 N         134.7200   93.7700  145.1300 N.am      1 ALA2        0.0000 
      4 N         135.6700   94.7200  145.8000 N.am      1 ALA2        0.0000 
      5 N         135.0600   94.3800  147.1300 N.am      1 ALA2        0.0000 
      6 N         134.4500   94.0500  148.4600 N.am      1 ALA2        0.0000 
      7 OD1       136.3600   90.9300  143.4700 O.co2     2 ASP3        0.0000 
      8 OD1       137.3000   91.8800  144.1400 O.co2     2 ASP3        0.0000 
      9 OD1       136.3200   92.9900  143.9700 O.co2     2 ASP3        0.0000 
     10 OD1       136.7000   91.5400  145.4700 O.co2     2 ASP3        0.0000 
     11 OD1       135.7100   92.6600  145.3000 O.co2     2 ASP3        0.0000 
     12 OD1       137.0800   90.1000  146.9700 O.co2     2 ASP3        0.0000 
     13 OD1       136.0900   91.2100  146.8000 O.co2     2 ASP3        0.0000 
     14 OD1       135.1000   92.3200  146.6300 O.co2     2 ASP3        0.0000 
     15 OD1       136.4700   89.7600  148.3000 O.co2     2 ASP3        0.0000 
     16 OD1       135.4800   90.8700  148.1300 O.co2     2 ASP3        0.0000 
     17 OD1       134.4900   91.9900  147.9600 O.co2     2 ASP3        0.0000 
     18 CA        135.9700   92.3800  141.9700 C.3       3 GLY6        0.0000 
     19 CA        135.3300   94.1100  143.8000 C.3       3 GLY6        0.0000 
     20 CA        138.8600   93.1600  143.4800 C.3       3 GLY6        0.0000 
     21 CA        138.2500   92.8300  144.8100 C.3       3 GLY6        0.0000 
     22 CA        138.6400   91.3800  146.3100 C.3       3 GLY6        0.0000 
     23 CA        138.0300   91.0400  147.6400 C.3       3 GLY6        0.0000 
     24 CA        138.4100   89.5900  149.1400 C.3       3 GLY6        0.0000 
     25 CA        139.2000   93.7700  145.4800 C.3       3 GLY6        0.0000 
     26 CA        138.6000   93.4400  146.8100 C.3       3 GLY6        0.0000 
     27 CA        138.9800   91.9900  148.3200 C.3       3 GLY6        0.0000 
     28 CA        140.1500   94.7200  146.1600 C.3       3 GLY6        0.0000 
     29 CA        139.5400   94.3900  147.4900 C.3       3 GLY6        0.0000 
     30 CA        138.5500   95.5000  147.3100 C.3       3 GLY6        0.0000 
     31 CA        137.9500   95.1600  148.6400 C.3       3 GLY6        0.0000 
     32 DU        136.9200   93.3300  142.6400 H         4 CUB7        0.0000 
     33 DU        137.2600   93.9400  144.6400 H         4 CUB7        0.0000 
     34 DU        136.2700   95.0500  144.4700 H         4 CUB7        0.0000 
     35 DU        137.6500   92.4900  146.1400 H         4 CUB7        0.0000 
     36 DU        136.6600   93.6100  145.9700 H         4 CUB7        0.0000 
     37 DU        137.0400   92.1600  147.4700 H         4 CUB7        0.0000 
     38 DU        136.0500   93.2700  147.3000 H         4 CUB7        0.0000 
     39 DU        137.4200   90.7100  148.9700 H         4 CUB7        0.0000 
     40 DU        136.4300   91.8200  148.8000 H         4 CUB7        0.0000 
     41 DU        135.4400   92.9400  148.6300 H         4 CUB7        0.0000 
     42 DU        138.2100   94.8900  145.3100 H         4 CUB7        0.0000 
     43 DU        137.6100   94.5500  146.6400 H         4 CUB7        0.0000 
     44 DU        136.6200   95.6700  146.4700 H         4 CUB7        0.0000 
     45 DU        137.9900   93.1000  148.1400 H         4 CUB7        0.0000 
     46 DU        137.0000   94.2200  147.9700 H         4 CUB7        0.0000 
     47 DU        136.0100   95.3300  147.8000 H         4 CUB7        0.0000 
     48 DU        137.3400   94.8300  149.9700 H         4 CUB7        0.0000 
@<TRIPOS>BOND
@<TRIPOS>SUBSTRUCTURE
     1 ALA2        1 GROUP   
     2 ASP3        7 GROUP   
     3 GLY6       18 GROUP   
     4 CUB7       32 GROUP   
@<TRIPOS>SET

