#    Name: 6sh3_4_ADP_CAVITY_N1_12
#    Modification time : Fri May 22 19:37:15 2020

@<TRIPOS>MOLECULE
6sh3_4_ADP_CAVITY_N1_12
   83     0     4     0     0
SMALL
NO_CHARGES


@<TRIPOS>ATOM
      1 N         138.5200   92.5500  141.4800 N.am      1 ALA2        0.0000 
      2 N         137.5300   93.6600  141.3100 N.am      1 ALA2        0.0000 
      3 N         137.9100   92.2100  142.8100 N.am      1 ALA2        0.0000 
      4 N         135.9300   94.4400  142.4700 N.am      1 ALA2        0.0000 
      5 N         138.2900   90.7700  144.3100 N.am      1 ALA2        0.0000 
      6 N         134.3400   95.2200  143.6200 N.am      1 ALA2        0.0000 
      7 N         134.7200   93.7700  145.1300 N.am      1 ALA2        0.0000 
      8 N         139.4700   93.5000  142.1500 N.am      1 ALA2        0.0000 
      9 N         136.8800   95.3900  143.1400 N.am      1 ALA2        0.0000 
     10 N         135.2800   96.1700  144.3000 N.am      1 ALA2        0.0000 
     11 N         135.6700   94.7200  145.8000 N.am      1 ALA2        0.0000 
     12 N         134.6800   95.8300  145.6300 N.am      1 ALA2        0.0000 
     13 N         135.0600   94.3800  147.1300 N.am      1 ALA2        0.0000 
     14 N         134.4500   94.0500  148.4600 N.am      1 ALA2        0.0000 
     15 O         140.4200   94.4400  142.8200 O.2       1 ALA2        0.0000 
     16 O         138.4400   96.6700  142.4800 O.2       1 ALA2        0.0000 
     17 O         137.8300   96.3400  143.8100 O.2       1 ALA2        0.0000 
     18 N         135.0200   96.4500  147.6300 N.am      1 ALA2        0.0000 
     19 O         141.3700   95.3900  143.5000 O.2       1 ALA2        0.0000 
     20 N         140.3800   96.5100  143.3300 N.am      1 ALA2        0.0000 
     21 N         139.3900   97.6200  143.1500 N.am      1 ALA2        0.0000 
     22 O         142.3200   96.3400  144.1700 O.2       1 ALA2        0.0000 
     23 N         141.3300   97.4500  144.0000 N.am      1 ALA2        0.0000 
     24 OD1       136.3600   90.9300  143.4700 O.co2     2 ASP3        0.0000 
     25 OD1       137.3000   91.8800  144.1400 O.co2     2 ASP3        0.0000 
     26 OD1       136.3200   92.9900  143.9700 O.co2     2 ASP3        0.0000 
     27 OD1       136.7000   91.5400  145.4700 O.co2     2 ASP3        0.0000 
     28 OD1       135.7100   92.6600  145.3000 O.co2     2 ASP3        0.0000 
     29 OD1       137.0800   90.1000  146.9700 O.co2     2 ASP3        0.0000 
     30 OD1       136.0900   91.2100  146.8000 O.co2     2 ASP3        0.0000 
     31 OD1       135.1000   92.3200  146.6300 O.co2     2 ASP3        0.0000 
     32 OD1       136.4700   89.7600  148.3000 O.co2     2 ASP3        0.0000 
     33 OD1       135.4800   90.8700  148.1300 O.co2     2 ASP3        0.0000 
     34 OD1       134.4900   91.9900  147.9600 O.co2     2 ASP3        0.0000 
     35 CA        135.9700   92.3800  141.9700 C.3       3 GLY6        0.0000 
     36 CA        135.3300   94.1100  143.8000 C.3       3 GLY6        0.0000 
     37 CA        138.4800   94.6100  141.9800 C.3       3 GLY6        0.0000 
     38 CA        137.4900   95.7200  141.8100 C.3       3 GLY6        0.0000 
     39 CA        138.8600   93.1600  143.4800 C.3       3 GLY6        0.0000 
     40 CA        138.2500   92.8300  144.8100 C.3       3 GLY6        0.0000 
     41 CA        138.6400   91.3800  146.3100 C.3       3 GLY6        0.0000 
     42 CA        138.0300   91.0400  147.6400 C.3       3 GLY6        0.0000 
     43 CA        138.4100   89.5900  149.1400 C.3       3 GLY6        0.0000 
     44 CA        139.8100   94.1100  144.1500 C.3       3 GLY6        0.0000 
     45 CA        139.2000   93.7700  145.4800 C.3       3 GLY6        0.0000 
     46 CA        137.2200   96.0000  145.1400 C.3       3 GLY6        0.0000 
     47 CA        136.2300   97.1200  144.9700 C.3       3 GLY6        0.0000 
     48 CA        138.6000   93.4400  146.8100 C.3       3 GLY6        0.0000 
     49 CA        135.6300   96.7800  146.3000 C.3       3 GLY6        0.0000 
     50 CA        138.9800   91.9900  148.3200 C.3       3 GLY6        0.0000 
     51 CA        140.7600   95.0600  144.8300 C.3       3 GLY6        0.0000 
     52 CA        139.7700   96.1700  144.6600 C.3       3 GLY6        0.0000 
     53 CA        138.7800   97.2800  144.4800 C.3       3 GLY6        0.0000 
     54 CA        140.1500   94.7200  146.1600 C.3       3 GLY6        0.0000 
     55 CA        139.1600   95.8300  145.9900 C.3       3 GLY6        0.0000 
     56 CA        138.1700   96.9500  145.8100 C.3       3 GLY6        0.0000 
     57 CA        139.5400   94.3900  147.4900 C.3       3 GLY6        0.0000 
     58 CA        138.5500   95.5000  147.3100 C.3       3 GLY6        0.0000 
     59 CA        137.5600   96.6100  147.1400 C.3       3 GLY6        0.0000 
     60 CA        137.9500   95.1600  148.6400 C.3       3 GLY6        0.0000 
     61 CA        141.7100   96.0000  145.5000 C.3       3 GLY6        0.0000 
     62 CA        140.7200   97.1200  145.3300 C.3       3 GLY6        0.0000 
     63 CA        141.1000   95.6700  146.8300 C.3       3 GLY6        0.0000 
     64 DU        136.9200   93.3300  142.6400 H         4 CUB7        0.0000 
     65 DU        137.8700   94.2800  143.3100 H         4 CUB7        0.0000 
     66 DU        137.2600   93.9400  144.6400 H         4 CUB7        0.0000 
     67 DU        136.2700   95.0500  144.4700 H         4 CUB7        0.0000 
     68 DU        137.6500   92.4900  146.1400 H         4 CUB7        0.0000 
     69 DU        136.6600   93.6100  145.9700 H         4 CUB7        0.0000 
     70 DU        137.0400   92.1600  147.4700 H         4 CUB7        0.0000 
     71 DU        136.0500   93.2700  147.3000 H         4 CUB7        0.0000 
     72 DU        137.4200   90.7100  148.9700 H         4 CUB7        0.0000 
     73 DU        136.4300   91.8200  148.8000 H         4 CUB7        0.0000 
     74 DU        135.4400   92.9400  148.6300 H         4 CUB7        0.0000 
     75 DU        139.4300   95.5600  142.6500 H         4 CUB7        0.0000 
     76 DU        138.8200   95.2200  143.9800 H         4 CUB7        0.0000 
     77 DU        138.2100   94.8900  145.3100 H         4 CUB7        0.0000 
     78 DU        137.6100   94.5500  146.6400 H         4 CUB7        0.0000 
     79 DU        136.6200   95.6700  146.4700 H         4 CUB7        0.0000 
     80 DU        137.9900   93.1000  148.1400 H         4 CUB7        0.0000 
     81 DU        137.0000   94.2200  147.9700 H         4 CUB7        0.0000 
     82 DU        136.0100   95.3300  147.8000 H         4 CUB7        0.0000 
     83 DU        137.3400   94.8300  149.9700 H         4 CUB7        0.0000 
@<TRIPOS>BOND
@<TRIPOS>SUBSTRUCTURE
     1 ALA2        1 GROUP   
     2 ASP3       24 GROUP   
     3 GLY6       35 GROUP   
     4 CUB7       64 GROUP   
@<TRIPOS>SET

