#    Name: 6sh3_3_ADP
#    Modification time : Fri May 22 19:37:08 2020

@<TRIPOS>MOLECULE
6sh3_3_ADP
   27    29     1     0     1
SMALL
NO_CHARGES


@<TRIPOS>ATOM
      1 PB        168.3230  101.7110  153.9850 P.3       1 ADP501      0.0000 
      2 O1B       167.4100  101.4170  152.8240 O.co2     1 ADP501      0.0000 
      3 O2B       168.8100  100.4630  154.6710 O.co2     1 ADP501      0.0000 
      4 O3B       167.7420  102.7140  154.9480 O.co2     1 ADP501      0.0000 
      5 PA        169.7720  103.5410  152.2200 P.3       1 ADP501      0.0000 
      6 O1A       169.2460  103.0020  150.9310 O.co2     1 ADP501      0.0000 
      7 O2A       169.1950  104.8130  152.7450 O.co2     1 ADP501      0.0000 
      8 O3A       169.6240  102.4090  153.3430 O.3       1 ADP501      0.0000 
      9 O5'       171.3660  103.6820  152.1260 O.3       1 ADP501      0.0000 
     10 C5'       171.9830  104.9210  152.5580 C.3       1 ADP501      0.0000 
     11 C4'       173.0270  105.3530  151.5560 C.3       1 ADP501      0.0000 
     12 O4'       173.6950  104.1880  151.0050 O.3       1 ADP501      0.0000 
     13 C3'       172.5200  106.1590  150.3500 C.3       1 ADP501      0.0000 
     14 O3'       173.3700  107.2670  150.0830 O.3       1 ADP501      0.0000 
     15 C2'       172.5700  105.1490  149.2020 C.3       1 ADP501      0.0000 
     16 O2'       172.7720  105.7620  147.9480 O.3       1 ADP501      0.0000 
     17 C1'       173.7700  104.3020  149.6040 C.3       1 ADP501      0.0000 
     18 N9        173.7590  102.9640  149.0240 N.pl3     1 ADP501      0.0000 
     19 C8        173.6560  101.7770  149.7030 C.2       1 ADP501      0.0000 
     20 N7        173.6750  100.7270  148.9220 N.2       1 ADP501      0.0000 
     21 C5        173.7980  101.2510  147.6440 C.ar      1 ADP501      0.0000 
     22 C6        173.8740  100.6440  146.3770 C.ar      1 ADP501      0.0000 
     23 N6        173.8360   99.3290  146.1820 N.pl3     1 ADP501      0.0000 
     24 N1        173.9930  101.4570  145.3020 N.ar      1 ADP501      0.0000 
     25 C2        174.0310  102.7800  145.5040 C.ar      1 ADP501      0.0000 
     26 N3        173.9680  103.4590  146.6450 N.ar      1 ADP501      0.0000 
     27 C4        173.8510  102.6300  147.6940 C.ar      1 ADP501      0.0000 
@<TRIPOS>BOND
     1    1    2 ar   
     2    1    3 ar   
     3    1    4 ar   
     4    1    8 1    
     5    5    6 ar   
     6    5    7 ar   
     7    5    8 1    
     8    5    9 1    
     9    9   10 1    
    10   10   11 1    
    11   11   12 1    
    12   11   13 1    
    13   12   17 1    
    14   13   14 1    
    15   13   15 1    
    16   15   16 1    
    17   15   17 1    
    18   17   18 1    
    19   18   19 1    
    20   18   27 1    
    21   19   20 2    
    22   20   21 1    
    23   21   22 ar   
    24   21   27 ar   
    25   22   23 1    
    26   22   24 ar   
    27   24   25 ar   
    28   25   26 ar   
    29   26   27 ar   
@<TRIPOS>SUBSTRUCTURE
     1 ADP501      1 GROUP   
@<TRIPOS>SET
ATOM$ORANGE STATIC     ATOMS   COLORGROUP SYSTEM 
20 10 10 11 11 13 13 15 15 17 17 19 19 21 21 22 22 25 \
25 27 27 

