#    Name: 6sh3_4_ADP_CAVITY_N1_6
#    Modification time : Fri May 22 19:37:15 2020

@<TRIPOS>MOLECULE
6sh3_4_ADP_CAVITY_N1_6
   22     0     4     0     0
SMALL
NO_CHARGES


@<TRIPOS>ATOM
      1 N         138.2900   90.7700  144.3100 N.am      1 ALA2        0.0000 
      2 OD1       136.3600   90.9300  143.4700 O.co2     2 ASP3        0.0000 
      3 OD1       137.3000   91.8800  144.1400 O.co2     2 ASP3        0.0000 
      4 OD1       136.7000   91.5400  145.4700 O.co2     2 ASP3        0.0000 
      5 OD1       135.7100   92.6600  145.3000 O.co2     2 ASP3        0.0000 
      6 OD1       137.0800   90.1000  146.9700 O.co2     2 ASP3        0.0000 
      7 OD1       136.0900   91.2100  146.8000 O.co2     2 ASP3        0.0000 
      8 OD1       135.1000   92.3200  146.6300 O.co2     2 ASP3        0.0000 
      9 OD1       136.4700   89.7600  148.3000 O.co2     2 ASP3        0.0000 
     10 OD1       135.4800   90.8700  148.1300 O.co2     2 ASP3        0.0000 
     11 OD1       134.4900   91.9900  147.9600 O.co2     2 ASP3        0.0000 
     12 CA        138.6400   91.3800  146.3100 C.3       3 GLY6        0.0000 
     13 CA        138.0300   91.0400  147.6400 C.3       3 GLY6        0.0000 
     14 CA        138.4100   89.5900  149.1400 C.3       3 GLY6        0.0000 
     15 CA        138.9800   91.9900  148.3200 C.3       3 GLY6        0.0000 
     16 DU        137.6500   92.4900  146.1400 H         4 CUB7        0.0000 
     17 DU        137.0400   92.1600  147.4700 H         4 CUB7        0.0000 
     18 DU        136.0500   93.2700  147.3000 H         4 CUB7        0.0000 
     19 DU        137.4200   90.7100  148.9700 H         4 CUB7        0.0000 
     20 DU        136.4300   91.8200  148.8000 H         4 CUB7        0.0000 
     21 DU        135.4400   92.9400  148.6300 H         4 CUB7        0.0000 
     22 DU        137.9900   93.1000  148.1400 H         4 CUB7        0.0000 
@<TRIPOS>BOND
@<TRIPOS>SUBSTRUCTURE
     1 ALA2        1 GROUP   
     2 ASP3        2 GROUP   
     3 GLY6       12 GROUP   
     4 CUB7       16 GROUP   
@<TRIPOS>SET

