#    Name: 6sh3_6_ADP_CAVITY_N1_4
#    Modification time : Fri May 22 19:37:26 2020

@<TRIPOS>MOLECULE
6sh3_6_ADP_CAVITY_N1_4
    2     0     1     0     0
SMALL
NO_CHARGES


@<TRIPOS>ATOM
      1 OD1        90.3700  143.6200  147.5700 O.co2     1 ASP3        0.0000 
      2 OD1        91.9200  144.9000  146.9100 O.co2     1 ASP3        0.0000 
@<TRIPOS>BOND
@<TRIPOS>SUBSTRUCTURE
     1 ASP3        1 GROUP   
@<TRIPOS>SET

