#    Name: 6sh3_3_ADP_CAVITY_N1_6
#    Modification time : Fri May 22 19:37:09 2020

@<TRIPOS>MOLECULE
6sh3_3_ADP_CAVITY_N1_6
   15     0     4     0     0
SMALL
NO_CHARGES


@<TRIPOS>ATOM
      1 N         171.4600  107.9900  143.5100 N.am      1 ALA2        0.0000 
      2 N         168.0400  107.7600  148.6600 N.am      1 ALA2        0.0000 
      3 N         171.8000  108.6000  145.5100 N.am      1 ALA2        0.0000 
      4 N         172.7500  109.5500  146.1800 N.am      1 ALA2        0.0000 
      5 OD1       169.8600  108.7700  144.6700 O.co2     2 ASP3        0.0000 
      6 OD1       169.2500  108.4400  146.0000 O.co2     2 ASP3        0.0000 
      7 OD1       168.6500  108.1000  147.3300 O.co2     2 ASP3        0.0000 
      8 OD1       170.8100  109.7200  145.3400 O.co2     2 ASP3        0.0000 
      9 OD1       171.1900  108.2700  146.8400 O.co2     2 ASP3        0.0000 
     10 OD1       170.2000  109.3800  146.6700 O.co2     2 ASP3        0.0000 
     11 CA        171.4200  110.0500  144.0100 C.3       3 GLY6        0.0000 
     12 CA        171.7600  110.6600  146.0100 C.3       3 GLY6        0.0000 
     13 CA        171.1500  110.3300  147.3400 C.3       3 GLY6        0.0000 
     14 DU        169.5900  109.0500  148.0000 H         4 CUB7        0.0000 
     15 DU        169.5500  111.1100  148.5000 H         4 CUB7        0.0000 
@<TRIPOS>BOND
@<TRIPOS>SUBSTRUCTURE
     1 ALA2        1 GROUP   
     2 ASP3        5 GROUP   
     3 GLY6       11 GROUP   
     4 CUB7       14 GROUP   
@<TRIPOS>SET

