#    Name: 6sh3_7_ADP_CAVITY_N1_6
#    Modification time : Fri May 22 19:37:32 2020

@<TRIPOS>MOLECULE
6sh3_7_ADP_CAVITY_N1_6
   17     0     4     0     0
SMALL
NO_CHARGES


@<TRIPOS>ATOM
      1 N         114.2000  174.3800  144.2200 N.am      1 ALA2        0.0000 
      2 O         113.5900  174.0400  145.5500 O.2       1 ALA2        0.0000 
      3 N         117.4700  173.7100  147.2400 N.am      1 ALA2        0.0000 
      4 N         118.8000  173.2100  149.4100 N.am      1 ALA2        0.0000 
      5 OD1       115.7600  175.6600  143.5600 O.co2     2 ASP3        0.0000 
      6 OD1       116.1400  174.2100  145.0600 O.co2     2 ASP3        0.0000 
      7 OD1       115.1500  175.3200  144.8900 O.co2     2 ASP3        0.0000 
      8 OD1       115.5300  173.8700  146.3900 O.co2     2 ASP3        0.0000 
      9 OD1       114.5400  174.9900  146.2200 O.co2     2 ASP3        0.0000 
     10 OD1       116.4800  174.8200  147.0700 O.co2     2 ASP3        0.0000 
     11 CA        114.5800  172.9300  145.7200 C.3       3 GLY6        0.0000 
     12 CA        113.9700  172.5900  147.0500 C.3       3 GLY6        0.0000 
     13 CA        113.3700  172.2600  148.3800 C.3       3 GLY6        0.0000 
     14 CA        113.9300  174.6500  147.5500 C.3       3 GLY6        0.0000 
     15 DU        115.9100  172.4300  147.8900 H         4 CUB7        0.0000 
     16 DU        114.9200  173.5400  147.7200 H         4 CUB7        0.0000 
     17 DU        116.8600  173.3700  148.5700 H         4 CUB7        0.0000 
@<TRIPOS>BOND
@<TRIPOS>SUBSTRUCTURE
     1 ALA2        1 GROUP   
     2 ASP3        5 GROUP   
     3 GLY6       11 GROUP   
     4 CUB7       15 GROUP   
@<TRIPOS>SET

