#    Name: 6sh3_2_ADP
#    Modification time : Fri May 22 19:37:02 2020

@<TRIPOS>MOLECULE
6sh3_2_ADP
   27    29     1     0     1
SMALL
NO_CHARGES


@<TRIPOS>ATOM
      1 PB        182.4150  140.1820  153.8570 P.3       1 ADP501      0.0000 
      2 O1B       182.2410  139.3780  152.5960 O.co2     1 ADP501      0.0000 
      3 O2B       183.6770  139.8360  154.5990 O.co2     1 ADP501      0.0000 
      4 O3B       181.1960  140.1550  154.7420 O.co2     1 ADP501      0.0000 
      5 PA        181.8180  142.5440  152.2340 P.3       1 ADP501      0.0000 
      6 O1A       181.8810  141.7740  150.9570 O.co2     1 ADP501      0.0000 
      7 O2A       180.4780  142.9390  152.7580 O.co2     1 ADP501      0.0000 
      8 O3A       182.5820  141.7080  153.3690 O.3       1 ADP501      0.0000 
      9 O5'       182.7440  143.8470  152.1160 O.3       1 ADP501      0.0000 
     10 C5'       182.1700  145.1390  152.4430 C.3       1 ADP501      0.0000 
     11 C4'       182.5290  146.1520  151.3810 C.3       1 ADP501      0.0000 
     12 O4'       183.8580  145.8800  150.8650 O.3       1 ADP501      0.0000 
     13 C3'       181.6020  146.2160  150.1570 C.3       1 ADP501      0.0000 
     14 O3'       181.2170  147.5550  149.8730 O.3       1 ADP501      0.0000 
     15 C2'       182.4550  145.6430  149.0220 C.3       1 ADP501      0.0000 
     16 O2'       182.1370  146.2020  147.7670 O.3       1 ADP501      0.0000 
     17 C1'       183.8590  146.0320  149.4660 C.3       1 ADP501      0.0000 
     18 N9        184.8960  145.1720  148.9090 N.pl3     1 ADP501      0.0000 
     19 C8        185.7280  144.3340  149.6070 C.2       1 ADP501      0.0000 
     20 N7        186.5660  143.6790  148.8440 N.2       1 ADP501      0.0000 
     21 C5        186.2680  144.1060  147.5600 C.ar      1 ADP501      0.0000 
     22 C6        186.8100  143.7760  146.3040 C.ar      1 ADP501      0.0000 
     23 N6        187.8020  142.9080  146.1310 N.pl3     1 ADP501      0.0000 
     24 N1        186.2820  144.3840  145.2160 N.ar      1 ADP501      0.0000 
     25 C2        185.2840  145.2560  145.3960 C.ar      1 ADP501      0.0000 
     26 N3        184.6970  145.6440  146.5250 N.ar      1 ADP501      0.0000 
     27 C4        185.2390  145.0260  147.5860 C.ar      1 ADP501      0.0000 
@<TRIPOS>BOND
     1    1    2 ar   
     2    1    3 ar   
     3    1    4 ar   
     4    1    8 1    
     5    5    6 ar   
     6    5    7 ar   
     7    5    8 1    
     8    5    9 1    
     9    9   10 1    
    10   10   11 1    
    11   11   12 1    
    12   11   13 1    
    13   12   17 1    
    14   13   14 1    
    15   13   15 1    
    16   15   16 1    
    17   15   17 1    
    18   17   18 1    
    19   18   19 1    
    20   18   27 1    
    21   19   20 2    
    22   20   21 1    
    23   21   22 ar   
    24   21   27 ar   
    25   22   23 1    
    26   22   24 ar   
    27   24   25 ar   
    28   25   26 ar   
    29   26   27 ar   
@<TRIPOS>SUBSTRUCTURE
     1 ADP501      1 GROUP   
@<TRIPOS>SET
ATOM$ORANGE STATIC     ATOMS   COLORGROUP SYSTEM 
20 10 10 11 11 13 13 15 15 17 17 19 19 21 21 22 22 25 \
25 27 27 

