#    Name: 6sh3_4_ADP
#    Modification time : Fri May 22 19:37:14 2020

@<TRIPOS>MOLECULE
6sh3_4_ADP
   27    29     1     0     1
SMALL
NO_CHARGES


@<TRIPOS>ATOM
      1 PB        129.4780   88.8220  153.8120 P.3       1 ADP501      0.0000 
      2 O1B       128.7970   89.1540  152.5110 O.co2     1 ADP501      0.0000 
      3 O2B       128.8790   87.6210  154.4910 O.co2     1 ADP501      0.0000 
      4 O3B       129.5970   90.0090  154.7330 O.co2     1 ADP501      0.0000 
      5 PA        131.9580   88.9770  152.2710 P.3       1 ADP501      0.0000 
      6 O1A       131.2060   89.0160  150.9830 O.co2     1 ADP501      0.0000 
      7 O2A       132.5870   90.2380  152.7630 O.co2     1 ADP501      0.0000 
      8 O3A       130.9830   88.4140  153.4110 O.3       1 ADP501      0.0000 
      9 O5'       133.0680   87.8220  152.2050 O.3       1 ADP501      0.0000 
     10 C5'       134.4310   88.1410  152.5840 C.3       1 ADP501      0.0000 
     11 C4'       135.3990   87.5840  151.5670 C.3       1 ADP501      0.0000 
     12 O4'       134.8960   86.3290  151.0390 O.3       1 ADP501      0.0000 
     13 C3'       135.6920   88.4700  150.3460 C.3       1 ADP501      0.0000 
     14 O3'       137.0850   88.5080  150.0650 O.3       1 ADP501      0.0000 
     15 C2'       134.9310   87.7790  149.2110 C.3       1 ADP501      0.0000 
     16 O2'       135.5330   87.9800  147.9520 O.3       1 ADP501      0.0000 
     17 C1'       135.0190   86.3200  149.6370 C.3       1 ADP501      0.0000 
     18 N9        133.9580   85.4860  149.0830 N.pl3     1 ADP501      0.0000 
     19 C8        132.9240   84.9100  149.7760 C.2       1 ADP501      0.0000 
     20 N7        132.1170   84.2100  149.0200 N.2       1 ADP501      0.0000 
     21 C5        132.6490   84.3300  147.7460 C.ar      1 ADP501      0.0000 
     22 C6        132.2460   83.8130  146.5000 C.ar      1 ADP501      0.0000 
     23 N6        131.1750   83.0440  146.3300 N.pl3     1 ADP501      0.0000 
     24 N1        133.0000   84.1240  145.4210 N.ar      1 ADP501      0.0000 
     25 C2        134.0770   84.8990  145.5990 C.ar      1 ADP501      0.0000 
     26 N3        134.5510   85.4390  146.7180 N.ar      1 ADP501      0.0000 
     27 C4        133.7850   85.1150  147.7710 C.ar      1 ADP501      0.0000 
@<TRIPOS>BOND
     1    1    2 ar   
     2    1    3 ar   
     3    1    4 ar   
     4    1    8 1    
     5    5    6 ar   
     6    5    7 ar   
     7    5    8 1    
     8    5    9 1    
     9    9   10 1    
    10   10   11 1    
    11   11   12 1    
    12   11   13 1    
    13   12   17 1    
    14   13   14 1    
    15   13   15 1    
    16   15   16 1    
    17   15   17 1    
    18   17   18 1    
    19   18   19 1    
    20   18   27 1    
    21   19   20 2    
    22   20   21 1    
    23   21   22 ar   
    24   21   27 ar   
    25   22   23 1    
    26   22   24 ar   
    27   24   25 ar   
    28   25   26 ar   
    29   26   27 ar   
@<TRIPOS>SUBSTRUCTURE
     1 ADP501      1 GROUP   
@<TRIPOS>SET
ATOM$ORANGE STATIC     ATOMS   COLORGROUP SYSTEM 
20 10 10 11 11 13 13 15 15 17 17 19 19 21 21 22 22 25 \
25 27 27 

