#    Name: 6sh3_3_ADP_CAVITY_N1_8
#    Modification time : Fri May 22 19:37:09 2020

@<TRIPOS>MOLECULE
6sh3_3_ADP_CAVITY_N1_8
   43     0     4     0     0
SMALL
NO_CHARGES


@<TRIPOS>ATOM
      1 N         167.3100  108.6000  145.1500 N.am      1 ALA2        0.0000 
      2 N         171.4600  107.9900  143.5100 N.am      1 ALA2        0.0000 
      3 N         168.2600  109.5500  145.8300 N.am      1 ALA2        0.0000 
      4 N         167.2700  110.6600  145.6500 N.am      1 ALA2        0.0000 
      5 N         167.6600  109.2100  147.1600 N.am      1 ALA2        0.0000 
      6 N         166.6700  110.3300  146.9800 N.am      1 ALA2        0.0000 
      7 N         168.0400  107.7600  148.6600 N.am      1 ALA2        0.0000 
      8 N         167.0500  108.8800  148.4900 N.am      1 ALA2        0.0000 
      9 N         172.0300  110.3900  142.6800 N.am      1 ALA2        0.0000 
     10 N         171.8000  108.6000  145.5100 N.am      1 ALA2        0.0000 
     11 N         172.7500  109.5500  146.1800 N.am      1 ALA2        0.0000 
     12 OD1       169.8600  108.7700  144.6700 O.co2     2 ASP3        0.0000 
     13 OD1       168.8700  109.8800  144.5000 O.co2     2 ASP3        0.0000 
     14 OD1       169.2500  108.4400  146.0000 O.co2     2 ASP3        0.0000 
     15 OD1       168.6500  108.1000  147.3300 O.co2     2 ASP3        0.0000 
     16 OD1       170.8100  109.7200  145.3400 O.co2     2 ASP3        0.0000 
     17 OD1       171.1900  108.2700  146.8400 O.co2     2 ASP3        0.0000 
     18 OD1       170.2000  109.3800  146.6700 O.co2     2 ASP3        0.0000 
     19 CA        170.1300  108.4900  141.3400 C.3       3 GLY6        0.0000 
     20 CA        168.5300  109.2700  142.4900 C.3       3 GLY6        0.0000 
     21 CA        172.0700  108.3300  142.1800 C.3       3 GLY6        0.0000 
     22 CA        171.0800  109.4400  142.0100 C.3       3 GLY6        0.0000 
     23 CA        170.4700  109.1100  143.3400 C.3       3 GLY6        0.0000 
     24 CA        171.4200  110.0500  144.0100 C.3       3 GLY6        0.0000 
     25 CA        170.4300  111.1700  143.8400 C.3       3 GLY6        0.0000 
     26 CA        171.7600  110.6600  146.0100 C.3       3 GLY6        0.0000 
     27 CA        170.7700  111.7800  145.8400 C.3       3 GLY6        0.0000 
     28 CA        169.7800  112.8900  145.6700 C.3       3 GLY6        0.0000 
     29 CA        171.1500  110.3300  147.3400 C.3       3 GLY6        0.0000 
     30 CA        170.1600  111.4400  147.1700 C.3       3 GLY6        0.0000 
     31 CA        169.1700  112.5600  147.0000 C.3       3 GLY6        0.0000 
     32 CA        171.1100  112.3900  147.8400 C.3       3 GLY6        0.0000 
     33 CA        170.1200  113.5000  147.6700 C.3       3 GLY6        0.0000 
     34 CA        169.5100  113.1700  149.0000 C.3       3 GLY6        0.0000 
     35 DU        169.4800  110.2200  143.1700 H         4 CUB7        0.0000 
     36 DU        169.8200  110.8300  145.1700 H         4 CUB7        0.0000 
     37 DU        168.8300  111.9500  145.0000 H         4 CUB7        0.0000 
     38 DU        169.2100  110.5000  146.5000 H         4 CUB7        0.0000 
     39 DU        168.2200  111.6100  146.3300 H         4 CUB7        0.0000 
     40 DU        169.5900  109.0500  148.0000 H         4 CUB7        0.0000 
     41 DU        168.6100  110.1600  147.8300 H         4 CUB7        0.0000 
     42 DU        167.6200  111.2700  147.6600 H         4 CUB7        0.0000 
     43 DU        169.5500  111.1100  148.5000 H         4 CUB7        0.0000 
@<TRIPOS>BOND
@<TRIPOS>SUBSTRUCTURE
     1 ALA2        1 GROUP   
     2 ASP3       12 GROUP   
     3 GLY6       19 GROUP   
     4 CUB7       35 GROUP   
@<TRIPOS>SET

