#    Name: 6sh3_2_ADP_CAVITY_N1_6
#    Modification time : Fri May 22 19:37:03 2020

@<TRIPOS>MOLECULE
6sh3_2_ADP_CAVITY_N1_6
   36     0     4     0     0
SMALL
NO_CHARGES


@<TRIPOS>ATOM
      1 N         183.3800  150.0500  151.1000 N.am      1 ALA2        0.0000 
      2 O         184.3300  151.0000  151.7700 O.2       1 ALA2        0.0000 
      3 NZ        178.8900  150.0500  150.7400 N.4       2 LYS4        0.0000 
      4 NZ        177.9000  151.1600  150.5700 N.4       2 LYS4        0.0000 
      5 NZ        179.8400  151.0000  151.4100 N.4       2 LYS4        0.0000 
      6 NZ        178.8500  152.1100  151.2400 N.4       2 LYS4        0.0000 
      7 NZ        180.7900  151.9400  152.0900 N.4       2 LYS4        0.0000 
      8 CA        179.5400  148.3200  148.9100 C.3       3 GLY6        0.0000 
      9 CA        178.5500  149.4400  148.7400 C.3       3 GLY6        0.0000 
     10 CA        181.7100  149.9400  146.9200 C.3       3 GLY6        0.0000 
     11 CA        182.0900  148.4900  148.4300 C.3       3 GLY6        0.0000 
     12 CA        181.1000  149.6100  148.2500 C.3       3 GLY6        0.0000 
     13 CA        179.5000  150.3900  149.4100 C.3       3 GLY6        0.0000 
     14 CA        178.5100  151.5000  149.2400 C.3       3 GLY6        0.0000 
     15 CA        182.6600  150.8900  147.6000 C.3       3 GLY6        0.0000 
     16 CA        181.6700  152.0000  147.4300 C.3       3 GLY6        0.0000 
     17 CA        183.0400  149.4400  149.1000 C.3       3 GLY6        0.0000 
     18 CA        182.0500  150.5500  148.9300 C.3       3 GLY6        0.0000 
     19 CA        181.0600  151.6700  148.7600 C.3       3 GLY6        0.0000 
     20 CA        180.0700  152.7800  148.5800 C.3       3 GLY6        0.0000 
     21 CA        179.4600  152.4500  149.9100 C.3       3 GLY6        0.0000 
     22 CA        183.6100  151.8400  148.2700 C.3       3 GLY6        0.0000 
     23 CA        182.6200  152.9500  148.1000 C.3       3 GLY6        0.0000 
     24 CA        183.9900  150.3900  149.7700 C.3       3 GLY6        0.0000 
     25 CA        183.0000  151.5000  149.6000 C.3       3 GLY6        0.0000 
     26 CA        182.0100  152.6100  149.4300 C.3       3 GLY6        0.0000 
     27 CA        183.9500  152.4500  150.2700 C.3       3 GLY6        0.0000 
     28 CA        183.3400  152.1100  151.6000 C.3       3 GLY6        0.0000 
     29 DU        180.4900  149.2700  149.5800 H         4 CUB7        0.0000 
     30 DU        181.4400  150.2200  150.2600 H         4 CUB7        0.0000 
     31 DU        180.4500  151.3300  150.0900 H         4 CUB7        0.0000 
     32 DU        182.3900  151.1700  150.9300 H         4 CUB7        0.0000 
     33 DU        181.4000  152.2800  150.7600 H         4 CUB7        0.0000 
     34 DU        180.4100  153.3900  150.5900 H         4 CUB7        0.0000 
     35 DU        182.3500  153.2300  151.4300 H         4 CUB7        0.0000 
     36 DU        182.7300  151.7800  152.9300 H         4 CUB7        0.0000 
@<TRIPOS>BOND
@<TRIPOS>SUBSTRUCTURE
     1 ALA2        1 GROUP   
     2 LYS4        3 GROUP   
     3 GLY6        8 GROUP   
     4 CUB7       29 GROUP   
@<TRIPOS>SET

