#    Name: 6sh3_3_ADP_CAVITY_N1_4
#    Modification time : Fri May 22 19:37:09 2020

@<TRIPOS>MOLECULE
6sh3_3_ADP_CAVITY_N1_4
    2     0     2     0     0
SMALL
NO_CHARGES


@<TRIPOS>ATOM
      1 N         171.8000  108.6000  145.5100 N.am      1 ALA2        0.0000 
      2 OD1       171.1900  108.2700  146.8400 O.co2     2 ASP3        0.0000 
@<TRIPOS>BOND
@<TRIPOS>SUBSTRUCTURE
     1 ALA2        1 GROUP   
     2 ASP3        2 GROUP   
@<TRIPOS>SET

