#    Name: 6sh3_5_ADP_CAVITY_N1_8
#    Modification time : Fri May 22 19:37:21 2020

@<TRIPOS>MOLECULE
6sh3_5_ADP_CAVITY_N1_8
   44     0     4     0     0
SMALL
NO_CHARGES


@<TRIPOS>ATOM
      1 N         103.3400  105.8500  142.2900 N.am      1 ALA2        0.0000 
      2 N         102.7300  105.5200  143.6200 N.am      1 ALA2        0.0000 
      3 N         101.7400  106.6300  143.4400 N.am      1 ALA2        0.0000 
      4 N         104.2900  106.8000  142.9600 N.am      1 ALA2        0.0000 
      5 O         103.0700  106.1300  145.6200 O.2       1 ALA2        0.0000 
      6 N         101.0500  110.4200  145.7800 N.am      1 ALA2        0.0000 
      7 N         103.6000  110.5900  145.2900 N.am      1 ALA2        0.0000 
      8 N         102.9900  110.2500  146.6200 N.am      1 ALA2        0.0000 
      9 N         102.3800  109.9200  147.9500 N.am      1 ALA2        0.0000 
     10 N         100.7900  110.6900  149.1100 N.am      1 ALA2        0.0000 
     11 N         103.9400  111.2000  147.2900 N.am      1 ALA2        0.0000 
     12 N         103.3300  110.8600  148.6200 N.am      1 ALA2        0.0000 
     13 OD1       102.6900  107.5800  144.1200 O.co2     2 ASP3        0.0000 
     14 OD1       101.7000  108.6900  143.9500 O.co2     2 ASP3        0.0000 
     15 OD1       102.0800  107.2400  145.4500 O.co2     2 ASP3        0.0000 
     16 OD1       101.4800  106.9100  146.7800 O.co2     2 ASP3        0.0000 
     17 OD1       102.0400  109.3000  145.9500 O.co2     2 ASP3        0.0000 
     18 OD1       101.4400  108.9700  147.2800 O.co2     2 ASP3        0.0000 
     19 CA        102.3500  106.9700  142.1100 C.3       3 GLY6        0.0000 
     20 CA        102.3100  109.0300  142.6200 C.3       3 GLY6        0.0000 
     21 CA        103.6800  106.4600  144.2900 C.3       3 GLY6        0.0000 
     22 CA        102.4700  105.7900  146.9500 C.3       3 GLY6        0.0000 
     23 CA        105.6200  106.3000  145.1300 C.3       3 GLY6        0.0000 
     24 CA        104.6300  107.4100  144.9600 C.3       3 GLY6        0.0000 
     25 CA        102.6500  109.6400  144.6200 C.3       3 GLY6        0.0000 
     26 CA        101.6600  110.7500  144.4500 C.3       3 GLY6        0.0000 
     27 CA        104.0200  107.0800  146.2900 C.3       3 GLY6        0.0000 
     28 CA        104.4000  105.6300  147.7900 C.3       3 GLY6        0.0000 
     29 CA        103.4100  106.7400  147.6200 C.3       3 GLY6        0.0000 
     30 CA        105.9600  106.9100  147.1400 C.3       3 GLY6        0.0000 
     31 CA        105.3500  106.5700  148.4600 C.3       3 GLY6        0.0000 
     32 CA        105.9200  108.9700  147.6400 C.3       3 GLY6        0.0000 
     33 CA        105.3100  108.6300  148.9700 C.3       3 GLY6        0.0000 
     34 DU        103.3000  107.9100  142.7900 H         4 CUB7        0.0000 
     35 DU        103.6400  108.5200  144.7900 H         4 CUB7        0.0000 
     36 DU        103.0300  108.1900  146.1200 H         4 CUB7        0.0000 
     37 DU        102.4300  107.8500  147.4500 H         4 CUB7        0.0000 
     38 DU        104.5900  109.4700  145.4600 H         4 CUB7        0.0000 
     39 DU        104.9700  108.0200  146.9600 H         4 CUB7        0.0000 
     40 DU        103.9800  109.1400  146.7900 H         4 CUB7        0.0000 
     41 DU        104.3600  107.6900  148.2900 H         4 CUB7        0.0000 
     42 DU        103.3700  108.8000  148.1200 H         4 CUB7        0.0000 
     43 DU        104.9300  110.0800  147.4600 H         4 CUB7        0.0000 
     44 DU        104.3200  109.7500  148.7900 H         4 CUB7        0.0000 
@<TRIPOS>BOND
@<TRIPOS>SUBSTRUCTURE
     1 ALA2        1 GROUP   
     2 ASP3       13 GROUP   
     3 GLY6       19 GROUP   
     4 CUB7       34 GROUP   
@<TRIPOS>SET

