#    Name: 6sh3_7_ADP
#    Modification time : Fri May 22 19:37:31 2020

@<TRIPOS>MOLECULE
6sh3_7_ADP
   27    29     1     0     1
SMALL
NO_CHARGES


@<TRIPOS>ATOM
      1 PB        120.8160  180.1970  154.0170 P.3       1 ADP501      0.0000 
      2 O1B       121.9070  179.9850  153.0020 O.co2     1 ADP501      0.0000 
      3 O2B       120.7570  181.6170  154.5060 O.co2     1 ADP501      0.0000 
      4 O3B       120.8610  179.1960  155.1430 O.co2     1 ADP501      0.0000 
      5 PA        119.0310  178.6470  152.3430 P.3       1 ADP501      0.0000 
      6 O1A       120.0160  178.5400  151.2270 O.co2     1 ADP501      0.0000 
      7 O2A       118.8460  177.4750  153.2490 O.co2     1 ADP501      0.0000 
      8 O3A       119.4400  179.9200  153.2250 O.3       1 ADP501      0.0000 
      9 O5'       117.6120  179.0850  151.7420 O.3       1 ADP501      0.0000 
     10 C5'       116.3870  178.7720  152.4500 C.3       1 ADP501      0.0000 
     11 C4'       115.2370  178.9370  151.4870 C.3       1 ADP501      0.0000 
     12 O4'       115.2870  180.2570  150.8970 O.3       1 ADP501      0.0000 
     13 C3'       115.1850  177.9590  150.3020 C.3       1 ADP501      0.0000 
     14 O3'       114.0460  177.1160  150.4110 O.3       1 ADP501      0.0000 
     15 C2'       115.1920  178.8670  149.0640 C.3       1 ADP501      0.0000 
     16 O2'       114.4430  178.3750  147.9740 O.3       1 ADP501      0.0000 
     17 C1'       114.6820  180.1860  149.6310 C.3       1 ADP501      0.0000 
     18 N9        115.1280  181.3540  148.8810 N.pl3     1 ADP501      0.0000 
     19 C8        115.5630  182.5390  149.4180 C.2       1 ADP501      0.0000 
     20 N7        115.9080  183.4250  148.5180 N.2       1 ADP501      0.0000 
     21 C5        115.6880  182.7870  147.3080 C.ar      1 ADP501      0.0000 
     22 C6        115.8640  183.2050  145.9760 C.ar      1 ADP501      0.0000 
     23 N6        116.3190  184.4060  145.6330 N.pl3     1 ADP501      0.0000 
     24 N1        115.5500  182.3230  144.9990 N.ar      1 ADP501      0.0000 
     25 C2        115.0950  181.1150  145.3530 C.ar      1 ADP501      0.0000 
     26 N3        114.8890  180.6140  146.5680 N.ar      1 ADP501      0.0000 
     27 C4        115.2080  181.5080  147.5170 C.ar      1 ADP501      0.0000 
@<TRIPOS>BOND
     1    1    2 ar   
     2    1    3 ar   
     3    1    4 ar   
     4    1    8 1    
     5    5    6 ar   
     6    5    7 ar   
     7    5    8 1    
     8    5    9 1    
     9    9   10 1    
    10   10   11 1    
    11   11   12 1    
    12   11   13 1    
    13   12   17 1    
    14   13   14 1    
    15   13   15 1    
    16   15   16 1    
    17   15   17 1    
    18   17   18 1    
    19   18   19 1    
    20   18   27 1    
    21   19   20 2    
    22   20   21 1    
    23   21   22 ar   
    24   21   27 ar   
    25   22   23 1    
    26   22   24 ar   
    27   24   25 ar   
    28   25   26 ar   
    29   26   27 ar   
@<TRIPOS>SUBSTRUCTURE
     1 ADP501      1 GROUP   
@<TRIPOS>SET
ATOM$ORANGE STATIC     ATOMS   COLORGROUP SYSTEM 
20 10 10 11 11 13 13 15 15 17 17 19 19 21 21 22 22 25 \
25 27 27 

