#    Name: 6sh3_5_ADP
#    Modification time : Fri May 22 19:37:20 2020

@<TRIPOS>MOLECULE
6sh3_5_ADP
   27    29     1     0     1
SMALL
NO_CHARGES


@<TRIPOS>ATOM
      1 PB         95.2910  111.1000  153.9750 P.3       1 ADP501      0.0000 
      2 O1B        95.1470  112.0670  152.8290 O.co2     1 ADP501      0.0000 
      3 O2B        93.9960  110.8660  154.7050 O.co2     1 ADP501      0.0000 
      4 O3B        96.4250  111.4560  154.9010 O.co2     1 ADP501      0.0000 
      5 PA         96.7760  109.3300  152.1810 P.3       1 ADP501      0.0000 
      6 O1A        96.3900  110.0090  150.9100 O.co2     1 ADP501      0.0000 
      7 O2A        98.1360  109.5860  152.7390 O.co2     1 ADP501      0.0000 
      8 O3A        95.6890  109.6940  153.3010 O.3       1 ADP501      0.0000 
      9 O5'        96.5560  107.7490  152.0290 O.3       1 ADP501      0.0000 
     10 C5'        97.6020  106.8530  152.4850 C.3       1 ADP501      0.0000 
     11 C4'        97.7600  105.7080  151.5120 C.3       1 ADP501      0.0000 
     12 O4'        96.4650  105.3360  150.9730 O.3       1 ADP501      0.0000 
     13 C3'        98.6660  105.9660  150.2980 C.3       1 ADP501      0.0000 
     14 O3'        99.5480  104.8730  150.0760 O.3       1 ADP501      0.0000 
     15 C2'        97.6760  106.1100  149.1390 C.3       1 ADP501      0.0000 
     16 O2'        98.2270  105.7190  147.9010 O.3       1 ADP501      0.0000 
     17 C1'        96.5620  105.1700  149.5790 C.3       1 ADP501      0.0000 
     18 N9         95.2680  105.4870  148.9860 N.pl3     1 ADP501      0.0000 
     19 C8         94.1340  105.8720  149.6540 C.2       1 ADP501      0.0000 
     20 N7         93.1130  106.0900  148.8650 N.2       1 ADP501      0.0000 
     21 C5         93.6010  105.8350  147.5930 C.ar      1 ADP501      0.0000 
     22 C6         93.0010  105.8900  146.3210 C.ar      1 ADP501      0.0000 
     23 N6         91.7320  106.2300  146.1160 N.pl3     1 ADP501      0.0000 
     24 N1         93.7700  105.5740  145.2540 N.ar      1 ADP501      0.0000 
     25 C2         95.0460  105.2310  145.4670 C.ar      1 ADP501      0.0000 
     26 N3         95.7150  105.1450  146.6130 N.ar      1 ADP501      0.0000 
     27 C4         94.9300  105.4630  147.6540 C.ar      1 ADP501      0.0000 
@<TRIPOS>BOND
     1    1    2 ar   
     2    1    3 ar   
     3    1    4 ar   
     4    1    8 1    
     5    5    6 ar   
     6    5    7 ar   
     7    5    8 1    
     8    5    9 1    
     9    9   10 1    
    10   10   11 1    
    11   11   12 1    
    12   11   13 1    
    13   12   17 1    
    14   13   14 1    
    15   13   15 1    
    16   15   16 1    
    17   15   17 1    
    18   17   18 1    
    19   18   19 1    
    20   18   27 1    
    21   19   20 2    
    22   20   21 1    
    23   21   22 ar   
    24   21   27 ar   
    25   22   23 1    
    26   22   24 ar   
    27   24   25 ar   
    28   25   26 ar   
    29   26   27 ar   
@<TRIPOS>SUBSTRUCTURE
     1 ADP501      1 GROUP   
@<TRIPOS>SET
ATOM$ORANGE STATIC     ATOMS   COLORGROUP SYSTEM 
20 10 10 11 11 13 13 15 15 17 17 19 19 21 21 22 22 25 \
25 27 27 

