#    Name: 6sh3_6_ADP
#    Modification time : Fri May 22 19:37:25 2020

@<TRIPOS>MOLECULE
6sh3_6_ADP
   27    29     1     0     1
SMALL
NO_CHARGES


@<TRIPOS>ATOM
      1 PB         91.3400  151.8420  154.0060 P.3       1 ADP501      0.0000 
      2 O1B        92.0220  152.4790  152.8250 O.co2     1 ADP501      0.0000 
      3 O2B        90.2780  152.7230  154.6080 O.co2     1 ADP501      0.0000 
      4 O3B        92.3120  151.3210  155.0330 O.co2     1 ADP501      0.0000 
      5 PA         90.9240  149.5830  152.1940 P.3       1 ADP501      0.0000 
      6 O1A        91.1250  150.4170  150.9730 O.co2     1 ADP501      0.0000 
      7 O2A        92.0200  148.6610  152.6140 O.co2     1 ADP501      0.0000 
      8 O3A        90.5740  150.5540  153.4190 O.3       1 ADP501      0.0000 
      9 O5'        89.5590  148.7540  152.0530 O.3       1 ADP501      0.0000 
     10 C5'        89.5280  147.3720  152.4930 C.3       1 ADP501      0.0000 
     11 C4'        88.7090  146.5410  151.5330 C.3       1 ADP501      0.0000 
     12 O4'        87.6060  147.3280  151.0120 O.3       1 ADP501      0.0000 
     13 C3'        89.4520  145.9890  150.3060 C.3       1 ADP501      0.0000 
     14 O3'        89.1250  144.6240  150.0830 O.3       1 ADP501      0.0000 
     15 C2'        88.9430  146.8640  149.1580 C.3       1 ADP501      0.0000 
     16 O2'        88.9530  146.1910  147.9180 O.3       1 ADP501      0.0000 
     17 C1'        87.5210  147.1600  149.6170 C.3       1 ADP501      0.0000 
     18 N9         86.9630  148.3750  149.0340 N.pl3     1 ADP501      0.0000 
     19 C8         86.6130  149.5190  149.7040 C.2       1 ADP501      0.0000 
     20 N7         86.1330  150.4530  148.9230 N.2       1 ADP501      0.0000 
     21 C5         86.1690  149.8940  147.6550 C.ar      1 ADP501      0.0000 
     22 C6         85.7940  150.3880  146.3920 C.ar      1 ADP501      0.0000 
     23 N6         85.2880  151.6020  146.1930 N.pl3     1 ADP501      0.0000 
     24 N1         85.9610  149.5710  145.3270 N.ar      1 ADP501      0.0000 
     25 C2         86.4700  148.3510  145.5340 C.ar      1 ADP501      0.0000 
     26 N3         86.8570  147.7810  146.6710 N.ar      1 ADP501      0.0000 
     27 C4         86.6800  148.6120  147.7100 C.ar      1 ADP501      0.0000 
@<TRIPOS>BOND
     1    1    2 ar   
     2    1    3 ar   
     3    1    4 ar   
     4    1    8 1    
     5    5    6 ar   
     6    5    7 ar   
     7    5    8 1    
     8    5    9 1    
     9    9   10 1    
    10   10   11 1    
    11   11   12 1    
    12   11   13 1    
    13   12   17 1    
    14   13   14 1    
    15   13   15 1    
    16   15   16 1    
    17   15   17 1    
    18   17   18 1    
    19   18   19 1    
    20   18   27 1    
    21   19   20 2    
    22   20   21 1    
    23   21   22 ar   
    24   21   27 ar   
    25   22   23 1    
    26   22   24 ar   
    27   24   25 ar   
    28   25   26 ar   
    29   26   27 ar   
@<TRIPOS>SUBSTRUCTURE
     1 ADP501      1 GROUP   
@<TRIPOS>SET
ATOM$ORANGE STATIC     ATOMS   COLORGROUP SYSTEM 
20 10 10 11 11 13 13 15 15 17 17 19 19 21 21 22 22 25 \
25 27 27 

