#    Name: 6sh3_2_ADP_CAVITY_N1_4
#    Modification time : Fri May 22 19:37:03 2020

@<TRIPOS>MOLECULE
6sh3_2_ADP_CAVITY_N1_4
   15     0     4     0     0
SMALL
NO_CHARGES


@<TRIPOS>ATOM
      1 N         183.3800  150.0500  151.1000 N.am      1 ALA2        0.0000 
      2 NZ        178.8900  150.0500  150.7400 N.4       2 LYS4        0.0000 
      3 CA        179.5400  148.3200  148.9100 C.3       3 GLY6        0.0000 
      4 CA        178.5500  149.4400  148.7400 C.3       3 GLY6        0.0000 
      5 CA        181.7100  149.9400  146.9200 C.3       3 GLY6        0.0000 
      6 CA        182.0900  148.4900  148.4300 C.3       3 GLY6        0.0000 
      7 CA        181.1000  149.6100  148.2500 C.3       3 GLY6        0.0000 
      8 CA        179.5000  150.3900  149.4100 C.3       3 GLY6        0.0000 
      9 CA        183.0400  149.4400  149.1000 C.3       3 GLY6        0.0000 
     10 CA        182.0500  150.5500  148.9300 C.3       3 GLY6        0.0000 
     11 CA        183.9900  150.3900  149.7700 C.3       3 GLY6        0.0000 
     12 DU        180.4900  149.2700  149.5800 H         4 CUB7        0.0000 
     13 DU        181.4400  150.2200  150.2600 H         4 CUB7        0.0000 
     14 DU        180.4500  151.3300  150.0900 H         4 CUB7        0.0000 
     15 DU        182.3900  151.1700  150.9300 H         4 CUB7        0.0000 
@<TRIPOS>BOND
@<TRIPOS>SUBSTRUCTURE
     1 ALA2        1 GROUP   
     2 LYS4        2 GROUP   
     3 GLY6        3 GROUP   
     4 CUB7       12 GROUP   
@<TRIPOS>SET

