#    Name: 6sh3_7_ADP_CAVITY_N1_8
#    Modification time : Fri May 22 19:37:32 2020

@<TRIPOS>MOLECULE
6sh3_7_ADP_CAVITY_N1_8
   46     0     4     0     0
SMALL
NO_CHARGES


@<TRIPOS>ATOM
      1 N         113.8600  173.7600  142.2200 N.am      1 ALA2        0.0000 
      2 N         116.7900  172.4800  143.2300 N.am      1 ALA2        0.0000 
      3 N         114.2000  174.3800  144.2200 N.am      1 ALA2        0.0000 
      4 O         113.5900  174.0400  145.5500 O.2       1 ALA2        0.0000 
      5 N         118.1200  171.9800  145.4100 N.am      1 ALA2        0.0000 
      6 N         117.5100  171.6500  146.7400 N.am      1 ALA2        0.0000 
      7 N         118.0800  174.0400  145.9100 N.am      1 ALA2        0.0000 
      8 N         119.4500  171.4800  147.5800 N.am      1 ALA2        0.0000 
      9 N         118.4600  172.5900  147.4100 N.am      1 ALA2        0.0000 
     10 N         117.4700  173.7100  147.2400 N.am      1 ALA2        0.0000 
     11 O         118.8400  171.1400  148.9100 O.2       1 ALA2        0.0000 
     12 N         118.8000  173.2100  149.4100 N.am      1 ALA2        0.0000 
     13 OD1       115.7600  175.6600  143.5600 O.co2     2 ASP3        0.0000 
     14 OD1       117.1300  173.1000  145.2400 O.co2     2 ASP3        0.0000 
     15 OD1       116.1400  174.2100  145.0600 O.co2     2 ASP3        0.0000 
     16 OD1       115.1500  175.3200  144.8900 O.co2     2 ASP3        0.0000 
     17 OD1       115.5300  173.8700  146.3900 O.co2     2 ASP3        0.0000 
     18 OD1       114.5400  174.9900  146.2200 O.co2     2 ASP3        0.0000 
     19 OD1       116.4800  174.8200  147.0700 O.co2     2 ASP3        0.0000 
     20 CA        114.2400  172.3200  143.7200 C.3       3 GLY6        0.0000 
     21 CA        114.6200  170.8700  145.2200 C.3       3 GLY6        0.0000 
     22 CA        113.6300  171.9800  145.0500 C.3       3 GLY6        0.0000 
     23 CA        114.0200  170.5300  146.5500 C.3       3 GLY6        0.0000 
     24 CA        116.4100  173.9300  141.7300 C.3       3 GLY6        0.0000 
     25 CA        115.4200  175.0500  141.5600 C.3       3 GLY6        0.0000 
     26 CA        115.8000  173.6000  143.0600 C.3       3 GLY6        0.0000 
     27 CA        114.8100  174.7100  142.8900 C.3       3 GLY6        0.0000 
     28 CA        114.5800  172.9300  145.7200 C.3       3 GLY6        0.0000 
     29 CA        115.9500  170.3600  147.3900 C.3       3 GLY6        0.0000 
     30 CA        114.9600  171.4800  147.2200 C.3       3 GLY6        0.0000 
     31 CA        113.9700  172.5900  147.0500 C.3       3 GLY6        0.0000 
     32 CA        114.3600  171.1400  148.5500 C.3       3 GLY6        0.0000 
     33 CA        113.3700  172.2600  148.3800 C.3       3 GLY6        0.0000 
     34 CA        117.7400  173.4300  143.9100 C.3       3 GLY6        0.0000 
     35 CA        116.7500  174.5400  143.7300 C.3       3 GLY6        0.0000 
     36 CA        113.9300  174.6500  147.5500 C.3       3 GLY6        0.0000 
     37 CA        117.2900  169.8600  149.5700 C.3       3 GLY6        0.0000 
     38 DU        116.1800  172.1500  144.5600 H         4 CUB7        0.0000 
     39 DU        115.1900  173.2600  144.3900 H         4 CUB7        0.0000 
     40 DU        115.5700  171.8100  145.8900 H         4 CUB7        0.0000 
     41 DU        116.5200  172.7600  146.5700 H         4 CUB7        0.0000 
     42 DU        116.9000  171.3100  148.0700 H         4 CUB7        0.0000 
     43 DU        115.9100  172.4300  147.8900 H         4 CUB7        0.0000 
     44 DU        114.9200  173.5400  147.7200 H         4 CUB7        0.0000 
     45 DU        117.8500  172.2600  148.7400 H         4 CUB7        0.0000 
     46 DU        116.8600  173.3700  148.5700 H         4 CUB7        0.0000 
@<TRIPOS>BOND
@<TRIPOS>SUBSTRUCTURE
     1 ALA2        1 GROUP   
     2 ASP3       13 GROUP   
     3 GLY6       20 GROUP   
     4 CUB7       38 GROUP   
@<TRIPOS>SET

