#    Name: 6sh3_7_ADP_CAVITY_N1_4
#    Modification time : Fri May 22 19:37:32 2020

@<TRIPOS>MOLECULE
6sh3_7_ADP_CAVITY_N1_4
    2     0     2     0     0
SMALL
NO_CHARGES


@<TRIPOS>ATOM
      1 OD1       114.5400  174.9900  146.2200 O.co2     1 ASP3        0.0000 
      2 CA        113.9300  174.6500  147.5500 C.3       2 GLY6        0.0000 
@<TRIPOS>BOND
@<TRIPOS>SUBSTRUCTURE
     1 ASP3        1 GROUP   
     2 GLY6        2 GROUP   
@<TRIPOS>SET

