#    Name: 6sh3_5_ADP_CAVITY_N1_4
#    Modification time : Fri May 22 19:37:21 2020

@<TRIPOS>MOLECULE
6sh3_5_ADP_CAVITY_N1_4
    1     0     1     0     0
SMALL
NO_CHARGES


@<TRIPOS>ATOM
      1 OD1       101.4800  106.9100  146.7800 O.co2     1 ASP3        0.0000 
@<TRIPOS>BOND
@<TRIPOS>SUBSTRUCTURE
     1 ASP3        1 GROUP   
@<TRIPOS>SET

