#    Name: 6sh3_6_ADP_CAVITY_N1_8
#    Modification time : Fri May 22 19:37:26 2020

@<TRIPOS>MOLECULE
6sh3_6_ADP_CAVITY_N1_8
   42     0     4     0     0
SMALL
NO_CHARGES


@<TRIPOS>ATOM
      1 N          90.9000  143.0600  140.9000 N.am      1 ALA2        0.0000 
      2 N          92.8400  142.9000  141.7500 N.am      1 ALA2        0.0000 
      3 N          92.2300  142.5600  143.0800 N.am      1 ALA2        0.0000 
      4 N          92.5700  143.1700  145.0800 N.am      1 ALA2        0.0000 
      5 N          91.5800  144.2900  144.9100 N.am      1 ALA2        0.0000 
      6 N          94.7400  144.7900  143.0900 N.am      1 ALA2        0.0000 
      7 N          95.6900  145.7400  143.7600 N.am      1 ALA2        0.0000 
      8 N          96.0700  144.2900  145.2700 N.am      1 ALA2        0.0000 
      9 N          95.0800  145.4000  145.0900 N.am      1 ALA2        0.0000 
     10 N          94.4700  145.0700  146.4200 N.am      1 ALA2        0.0000 
     11 N          96.4100  144.9000  147.2700 N.am      1 ALA2        0.0000 
     12 N          97.3600  145.8500  147.9400 N.am      1 ALA2        0.0000 
     13 OD1        92.1900  144.6200  143.5800 O.co2     2 ASP3        0.0000 
     14 OD1        90.3700  143.6200  147.5700 O.co2     2 ASP3        0.0000 
     15 OD1        94.1300  144.4500  144.4200 O.co2     2 ASP3        0.0000 
     16 OD1        93.5200  144.1200  145.7500 O.co2     2 ASP3        0.0000 
     17 OD1        91.9200  144.9000  146.9100 O.co2     2 ASP3        0.0000 
     18 OD1        94.2900  141.2200  148.7500 O.co2     2 ASP3        0.0000 
     19 CA         91.8500  144.0100  141.5700 C.3       3 GLY6        0.0000 
     20 CA         93.2200  141.4500  143.2500 C.3       3 GLY6        0.0000 
     21 CA         91.2400  143.6700  142.9000 C.3       3 GLY6        0.0000 
     22 CA         91.6200  142.2200  144.4100 C.3       3 GLY6        0.0000 
     23 CA         93.7900  143.8400  142.4200 C.3       3 GLY6        0.0000 
     24 CA         92.8000  144.9600  142.2500 C.3       3 GLY6        0.0000 
     25 CA         93.5600  142.0600  145.2500 C.3       3 GLY6        0.0000 
     26 CA         92.9500  141.7200  146.5800 C.3       3 GLY6        0.0000 
     27 CA         91.9600  142.8400  146.4100 C.3       3 GLY6        0.0000 
     28 CA         94.8900  141.5600  147.4200 C.3       3 GLY6        0.0000 
     29 CA         95.8400  142.5000  148.1000 C.3       3 GLY6        0.0000 
     30 DU         94.1700  142.3900  143.9200 H         4 CUB7        0.0000 
     31 DU         93.1800  143.5100  143.7500 H         4 CUB7        0.0000 
     32 DU         95.1200  143.3400  144.5900 H         4 CUB7        0.0000 
     33 DU         94.5100  143.0000  145.9200 H         4 CUB7        0.0000 
     34 DU         93.9000  142.6700  147.2500 H         4 CUB7        0.0000 
     35 DU         92.9100  143.7800  147.0800 H         4 CUB7        0.0000 
     36 DU         95.4600  143.9500  146.6000 H         4 CUB7        0.0000 
     37 DU         94.8500  143.6200  147.9300 H         4 CUB7        0.0000 
     38 DU         93.8600  144.7300  147.7500 H         4 CUB7        0.0000 
     39 DU         96.7900  143.4500  148.7700 H         4 CUB7        0.0000 
     40 DU         95.8000  144.5600  148.6000 H         4 CUB7        0.0000 
     41 DU         94.2000  145.3400  149.7600 H         4 CUB7        0.0000 
     42 DU         97.7400  144.4000  149.4400 H         4 CUB7        0.0000 
@<TRIPOS>BOND
@<TRIPOS>SUBSTRUCTURE
     1 ALA2        1 GROUP   
     2 ASP3       13 GROUP   
     3 GLY6       19 GROUP   
     4 CUB7       30 GROUP   
@<TRIPOS>SET

