#    Name: 6rcr_1_DXT
#    Modification time : Fri May 22 19:31:12 2020

@<TRIPOS>MOLECULE
6rcr_1_DXT
   32    35     1     0     0
SMALL
NO_CHARGES


@<TRIPOS>ATOM
      1 C1         19.3660   33.8710   33.7650 C.2       1 DXT301      0.0000 
      2 O1         18.7250   34.4050   32.8410 O.2       1 DXT301      0.0000 
      3 C2         18.9070   32.7280   34.5070 C.2       1 DXT301      0.0000 
      4 O21        17.2730   31.0530   34.8130 O.2       1 DXT301      0.0000 
      5 C21        17.7170   31.9460   34.1020 C.2       1 DXT301      0.0000 
      6 N21        17.0900   32.2720   32.8240 N.am      1 DXT301      0.0000 
      7 C3         19.6080   32.3410   35.6280 C.2       1 DXT301      0.0000 
      8 O3         19.5630   31.1100   36.1040 O.co2     1 DXT301      0.0000 
      9 C4         20.4420   33.2840   36.4610 C.3       1 DXT301      0.0000 
     10 N4         21.6400   32.5800   37.0120 N.4       1 DXT301      0.0000 
     11 C41        22.3370   33.3230   38.0710 C.3       1 DXT301      0.0000 
     12 C42        22.6190   31.9740   36.1100 C.3       1 DXT301      0.0000 
     13 C4A        20.7740   34.6060   35.7260 C.3       1 DXT301      0.0000 
     14 C5         19.8540   35.7730   36.1370 C.3       1 DXT301      0.0000 
     15 O5         19.6800   35.8230   37.5630 O.3       1 DXT301      0.0000 
     16 C5A        20.3850   37.1190   35.6190 C.3       1 DXT301      0.0000 
     17 C6         19.3560   38.2730   35.7070 C.3       1 DXT301      0.0000 
     18 C61        18.7680   38.4940   37.1060 C.3       1 DXT301      0.0000 
     19 C6A        19.9270   39.5710   35.1580 C.ar      1 DXT301      0.0000 
     20 C7         19.5540   40.8100   35.6610 C.ar      1 DXT301      0.0000 
     21 C8         20.1160   41.9730   35.1610 C.ar      1 DXT301      0.0000 
     22 C9         21.0110   41.9370   34.1270 C.ar      1 DXT301      0.0000 
     23 C10        21.3720   40.7140   33.5760 C.ar      1 DXT301      0.0000 
     24 O10        22.2790   40.7080   32.5780 O.co2     1 DXT301      0.0000 
     25 C6B        20.8500   39.5160   34.0990 C.ar      1 DXT301      0.0000 
     26 C11        21.2650   38.2430   33.5210 C.2       1 DXT301      0.0000 
     27 O11        21.9410   38.2340   32.4370 O.2       1 DXT301      0.0000 
     28 C5B        20.9110   37.0130   34.2020 C.2       1 DXT301      0.0000 
     29 C12        21.0620   35.8110   33.5820 C.2       1 DXT301      0.0000 
     30 O12        21.6180   35.7280   32.3840 O.co2     1 DXT301      0.0000 
     31 C4B        20.7270   34.4760   34.2000 C.3       1 DXT301      0.0000 
     32 O13        21.7180   33.5350   33.7860 O.3       1 DXT301      0.0000 
@<TRIPOS>BOND
     1    7    8 ar   
     2    7    9 1    
     3    9   10 1    
     4    9   13 1    
     5   10   11 1    
     6   10   12 1    
     7   13   14 1    
     8   13   31 1    
     9   14   15 1    
    10   14   16 1    
    11   16   17 1    
    12   16   28 1    
    13   17   18 1    
    14   17   19 1    
    15   19   20 ar   
    16   19   25 ar   
    17   20   21 ar   
    18   21   22 ar   
    19   22   23 ar   
    20   23   24 ar   
    21   23   25 ar   
    22   25   26 1    
    23   26   27 2    
    24   26   28 1    
    25   28   29 2    
    26   29   30 ar   
    27   29   31 1    
    28   31   32 1    
    29    1    2 2    
    30    1    3 1    
    31    1   31 1    
    32    3    5 1    
    33    3    7 2    
    34    4    5 2    
    35    5    6 am   
@<TRIPOS>SUBSTRUCTURE
     1 DXT301      1 GROUP   
@<TRIPOS>SET

