#    Name: 6jet_1_BB2
#    Modification time : Fri May 22 19:35:21 2020

@<TRIPOS>MOLECULE
6jet_1_BB2
   27    27     1     0     0
SMALL
NO_CHARGES


@<TRIPOS>ATOM
      1 C5         10.3430   -3.3380   -0.5290 C.3       1 BB2202      0.0000 
      2 C3         10.4360   -1.8730   -0.2680 C.2       1 BB2202      0.0000 
      3 O4          9.4990   -1.1400   -0.5040 O.2       1 BB2202      0.0000 
      4 N1         11.6160   -1.4630    0.1000 N.am      1 BB2202      0.0000 
      5 O2         11.8750   -0.1240    0.0360 O.3       1 BB2202      0.0000 
      6 C6         10.6310   -3.5330   -2.0060 C.3       1 BB2202      0.0000 
      7 C12         9.7200   -4.6150   -2.5050 C.2       1 BB2202      0.0000 
      8 O13         9.8150   -5.7680   -2.0760 O.2       1 BB2202      0.0000 
      9 C7         12.0920   -3.8920   -2.2930 C.3       1 BB2202      0.0000 
     10 C8         12.6030   -3.1870   -3.5500 C.3       1 BB2202      0.0000 
     11 C9         12.5720   -4.1150   -4.7430 C.3       1 BB2202      0.0000 
     12 C10        12.5530   -3.3230   -6.0310 C.3       1 BB2202      0.0000 
     13 C11        12.6510   -4.2720   -7.2070 C.3       1 BB2202      0.0000 
     14 N14         8.8390   -4.2140   -3.4230 N.am      1 BB2202      0.0000 
     15 C15         7.9870   -5.1540   -4.1090 C.3       1 BB2202      0.0000 
     16 C16         6.4970   -5.0510   -3.7210 C.3       1 BB2202      0.0000 
     17 C18         6.1300   -3.7050   -3.1000 C.3       1 BB2202      0.0000 
     18 C17         5.5130   -5.3190   -4.8590 C.3       1 BB2202      0.0000 
     19 C19         8.3110   -4.9620   -5.5680 C.2       1 BB2202      0.0000 
     20 O20         8.4970   -3.8470   -6.0080 O.2       1 BB2202      0.0000 
     21 N21         8.4460   -6.0480   -6.3060 N.am      1 BB2202      0.0000 
     22 C22         9.3950   -6.1060   -7.4090 C.3       1 BB2202      0.0000 
     23 C23         7.8750   -7.3750   -6.1030 C.3       1 BB2202      0.0000 
     24 C24         9.1730   -8.1640   -6.0840 C.3       1 BB2202      0.0000 
     25 C25        10.1300   -7.3800   -6.9830 C.3       1 BB2202      0.0000 
     26 C26         8.7530   -6.2570   -8.8000 C.3       1 BB2202      0.0000 
     27 O27         7.6220   -5.4030   -8.9700 O.3       1 BB2202      0.0000 
@<TRIPOS>BOND
     1    1    2 1    
     2    1    6 1    
     3    2    3 2    
     4    2    4 am   
     5    4    5 1    
     6    6    7 1    
     7    6    9 1    
     8    7    8 2    
     9    7   14 am   
    10    9   10 1    
    11   10   11 1    
    12   11   12 1    
    13   12   13 1    
    14   14   15 1    
    15   15   16 1    
    16   15   19 1    
    17   16   17 1    
    18   16   18 1    
    19   19   20 2    
    20   19   21 am   
    21   21   22 1    
    22   21   23 1    
    23   22   25 1    
    24   22   26 1    
    25   23   24 1    
    26   24   25 1    
    27   26   27 1    
@<TRIPOS>SUBSTRUCTURE
     1 BB2202      1 GROUP   
@<TRIPOS>SET

