#    Name: 6jet_2_BB2_CAVITY_N1_6
#    Modification time : Fri May 22 19:35:24 2020

@<TRIPOS>MOLECULE
6jet_2_BB2_CAVITY_N1_6
   72     0     6     0     0
SMALL
NO_CHARGES


@<TRIPOS>ATOM
      1 OG         -6.1300  -19.4200    4.9200 O.3       1 SER1        0.0000 
      2 OG         -7.1700  -21.6500   12.1600 O.3       1 SER1        0.0000 
      3 OG         -6.0200  -22.0300   11.2800 O.3       1 SER1        0.0000 
      4 N         -11.6100  -18.8500    7.7300 N.am      2 ALA2        0.0000 
      5 N         -11.2300  -19.9300    8.6900 N.am      2 ALA2        0.0000 
      6 O         -10.8500  -21.0200    9.6600 O.2       2 ALA2        0.0000 
      7 O         -10.4600  -19.2300    6.8400 O.2       2 ALA2        0.0000 
      8 O          -6.6400  -21.4600    5.1500 O.2       2 ALA2        0.0000 
      9 N         -11.8700  -17.5000    9.3500 N.am      2 ALA2        0.0000 
     10 N         -11.4900  -18.5900   10.3100 N.am      2 ALA2        0.0000 
     11 N          -9.9600  -20.0600   10.3900 N.am      2 ALA2        0.0000 
     12 N          -9.5800  -21.1400   11.3500 N.am      2 ALA2        0.0000 
     13 O          -9.2000  -19.3500    8.5400 O.2       2 ALA2        0.0000 
     14 N          -8.8100  -20.4400    9.5000 N.am      2 ALA2        0.0000 
     15 N          -8.0500  -19.7400    7.6500 N.am      2 ALA2        0.0000 
     16 O          -5.7500  -20.5000    5.8800 O.2       2 ALA2        0.0000 
     17 N          -7.9300  -19.4800   10.2400 N.am      2 ALA2        0.0000 
     18 N          -7.5500  -20.5600   11.2000 N.am      2 ALA2        0.0000 
     19 N          -6.7800  -19.8600    9.3500 N.am      2 ALA2        0.0000 
     20 N          -6.4000  -20.9500   10.3100 N.am      2 ALA2        0.0000 
     21 N          -5.6300  -20.2400    8.4700 N.am      2 ALA2        0.0000 
     22 O          -5.2500  -21.3300    9.4300 O.2       2 ALA2        0.0000 
     23 N          -5.2400  -18.4500    5.6500 N.am      2 ALA2        0.0000 
     24 N          -7.4300  -20.3100   13.7800 N.am      2 ALA2        0.0000 
     25 O          -6.2700  -17.8100    9.1200 O.2       2 ALA2        0.0000 
     26 O          -5.8900  -18.9000   10.0800 O.2       2 ALA2        0.0000 
     27 O          -5.5100  -19.9800   11.0500 O.2       2 ALA2        0.0000 
     28 O          -5.7700  -15.7700    8.8900 O.2       2 ALA2        0.0000 
     29 NZ         -6.2800  -20.6900   12.9000 N.4       3 LYS4        0.0000 
     30 NZ         -5.1300  -21.0700   12.0100 N.4       3 LYS4        0.0000 
     31 CZ         -9.3100  -19.6100    5.9600 C.ar      4 PHE5        0.0000 
     32 CZ        -13.0200  -17.1200   10.2400 C.ar      4 PHE5        0.0000 
     33 CZ         -7.2800  -19.0300    5.8100 C.ar      4 PHE5        0.0000 
     34 CZ         -8.3100  -21.2700   13.0500 C.ar      4 PHE5        0.0000 
     35 CA        -12.0000  -20.6400   10.5400 C.3       5 GLY6        0.0000 
     36 CA        -12.6400  -18.2100   11.2000 C.3       5 GLY6        0.0000 
     37 CA        -12.2600  -19.2900   12.1600 C.3       5 GLY6        0.0000 
     38 CA        -11.8800  -20.3800   13.1200 C.3       5 GLY6        0.0000 
     39 CA        -10.7300  -20.7600   12.2400 C.3       5 GLY6        0.0000 
     40 CA         -6.9000  -20.1200    6.7700 C.3       5 GLY6        0.0000 
     41 CA         -6.5200  -21.2100    7.7300 C.3       5 GLY6        0.0000 
     42 CA         -5.3700  -21.5900    6.8500 C.3       5 GLY6        0.0000 
     43 CA        -10.9900  -16.5400   10.0800 C.3       5 GLY6        0.0000 
     44 CA        -10.6100  -17.6300   11.0500 C.3       5 GLY6        0.0000 
     45 CA        -10.2200  -18.7100   12.0100 C.3       5 GLY6        0.0000 
     46 CA         -9.8400  -19.8000   12.9700 C.3       5 GLY6        0.0000 
     47 CA         -9.4600  -20.8800   13.9300 C.3       5 GLY6        0.0000 
     48 CA         -9.8400  -16.9200    9.2000 C.3       5 GLY6        0.0000 
     49 CA         -9.4600  -18.0100   10.1600 C.3       5 GLY6        0.0000 
     50 CA         -9.0800  -19.1000   11.1200 C.3       5 GLY6        0.0000 
     51 CA         -8.3100  -18.3900    9.2700 C.3       5 GLY6        0.0000 
     52 CA         -4.8600  -19.5400    6.6200 C.3       5 GLY6        0.0000 
     53 CA         -8.9500  -15.9600    9.9300 C.3       5 GLY6        0.0000 
     54 CA         -7.8100  -19.2200   12.8200 C.3       5 GLY6        0.0000 
     55 CA         -7.8000  -16.3500    9.0500 C.3       5 GLY6        0.0000 
     56 CA         -7.4200  -17.4300   10.0100 C.3       5 GLY6        0.0000 
     57 CA         -7.0400  -18.5200   10.9700 C.3       5 GLY6        0.0000 
     58 CA         -6.6600  -19.6000   11.9300 C.3       5 GLY6        0.0000 
     59 CA         -5.1300  -18.2000    8.2400 C.3       5 GLY6        0.0000 
     60 CA         -4.7400  -19.2800    9.2000 C.3       5 GLY6        0.0000 
     61 CA         -4.3600  -20.3700   10.1600 C.3       5 GLY6        0.0000 
     62 DU        -11.1100  -19.6800   11.2800 H         6 CUB7        0.0000 
     63 DU        -10.7200  -17.8900    8.4600 H         6 CUB7        0.0000 
     64 DU        -10.3400  -18.9700    9.4300 H         6 CUB7        0.0000 
     65 DU         -9.5800  -18.2700    7.5800 H         6 CUB7        0.0000 
     66 DU         -8.4300  -18.6500    6.6900 H         6 CUB7        0.0000 
     67 DU         -8.6900  -20.1800   12.0900 H         6 CUB7        0.0000 
     68 DU         -8.6900  -17.3100    8.3100 H         6 CUB7        0.0000 
     69 DU         -7.1600  -18.7800    8.3900 H         6 CUB7        0.0000 
     70 DU         -6.3900  -18.0700    6.5400 H         6 CUB7        0.0000 
     71 DU         -6.0100  -19.1600    7.5000 H         6 CUB7        0.0000 
     72 DU         -6.6500  -16.7300    8.1600 H         6 CUB7        0.0000 
@<TRIPOS>BOND
@<TRIPOS>SUBSTRUCTURE
     1 SER1        1 GROUP   
     2 ALA2        4 GROUP   
     3 LYS4       29 GROUP   
     4 PHE5       31 GROUP   
     5 GLY6       35 GROUP   
     6 CUB7       62 GROUP   
@<TRIPOS>SET

