#    Name: 6jet_2_BB2
#    Modification time : Fri May 22 19:35:23 2020

@<TRIPOS>MOLECULE
6jet_2_BB2
   27    27     1     0     0
SMALL
NO_CHARGES


@<TRIPOS>ATOM
      1 C5         -4.3910  -20.7950   11.1200 C.3       1 BB2202      0.0000 
      2 C3         -4.1620  -22.2480   11.4730 C.2       1 BB2202      0.0000 
      3 O4         -4.4450  -23.1560   10.7060 O.2       1 BB2202      0.0000 
      4 N1         -3.7120  -22.5060   12.6770 N.am      1 BB2202      0.0000 
      5 O2         -3.7600  -23.8120   13.1140 O.3       1 BB2202      0.0000 
      6 C6         -5.8830  -20.4940   10.9860 C.3       1 BB2202      0.0000 
      7 C12        -6.1100  -19.4380    9.9280 C.2       1 BB2202      0.0000 
      8 O13        -5.5620  -18.3420    9.9820 O.2       1 BB2202      0.0000 
      9 C7         -6.4650  -20.0200   12.3170 C.3       1 BB2202      0.0000 
     10 C8         -7.7740  -20.7390   12.6260 C.3       1 BB2202      0.0000 
     11 C9         -8.9740  -20.0400   12.0000 C.3       1 BB2202      0.0000 
     12 C10       -10.1700  -20.9650   11.9420 C.3       1 BB2202      0.0000 
     13 C11       -11.3780  -20.2420   12.4580 C.3       1 BB2202      0.0000 
     14 N14        -6.9710  -19.7440    8.9590 N.am      1 BB2202      0.0000 
     15 C15        -7.4740  -18.7320    8.0420 C.3       1 BB2202      0.0000 
     16 C16        -6.8110  -18.8090    6.6540 C.3       1 BB2202      0.0000 
     17 C18        -6.0550  -20.0990    6.3880 C.3       1 BB2202      0.0000 
     18 C17        -7.7560  -18.4710    5.5060 C.3       1 BB2202      0.0000 
     19 C19        -8.9920  -18.8070    8.1020 C.2       1 BB2202      0.0000 
     20 O20        -9.5400  -19.9000    7.9990 O.2       1 BB2202      0.0000 
     21 N21        -9.7140  -17.6870    8.2890 N.am      1 BB2202      0.0000 
     22 C22       -11.1730  -17.7010    8.0370 C.3       1 BB2202      0.0000 
     23 C23        -9.2670  -16.3640    8.7260 C.3       1 BB2202      0.0000 
     24 C24       -10.5180  -15.7020    9.2630 C.3       1 BB2202      0.0000 
     25 C25       -11.7180  -16.5480    8.8710 C.3       1 BB2202      0.0000 
     26 C26       -11.4040  -17.5200    6.5180 C.3       1 BB2202      0.0000 
     27 O27       -10.3070  -16.8600    5.8450 O.3       1 BB2202      0.0000 
@<TRIPOS>BOND
     1    1    2 1    
     2    1    6 1    
     3    2    3 2    
     4    2    4 am   
     5    4    5 1    
     6    6    7 1    
     7    6    9 1    
     8    7    8 2    
     9    7   14 am   
    10    9   10 1    
    11   10   11 1    
    12   11   12 1    
    13   12   13 1    
    14   14   15 1    
    15   15   16 1    
    16   15   19 1    
    17   16   17 1    
    18   16   18 1    
    19   19   20 2    
    20   19   21 am   
    21   21   22 1    
    22   21   23 1    
    23   22   25 1    
    24   22   26 1    
    25   23   24 1    
    26   24   25 1    
    27   26   27 1    
@<TRIPOS>SUBSTRUCTURE
     1 BB2202      1 GROUP   
@<TRIPOS>SET

