#    Name: 6bba_5_PRO_ALA_PRO_SHV_WFP_ALO_3A0
#    Modification time : Fri May 22 19:26:51 2020

@<TRIPOS>MOLECULE
6bba_5_PRO_ALA_PRO_SHV_WFP_ALO_3A0
   56    60     7     0     0
SMALL
NO_CHARGES


@<TRIPOS>ATOM
      1 N          -3.4600  -90.1270  -32.2560 N.am      1 PRO4        0.0000 
      2 CA         -2.4090  -91.4460  -32.2870 C.3       1 PRO4        0.0000 
      3 C          -1.2400  -91.0990  -33.1720 C.2       1 PRO4        0.0000 
      4 O          -1.2490  -90.1510  -33.9140 O.2       1 PRO4        0.0000 
      5 CB         -3.1220  -92.4800  -32.7530 C.3       1 PRO4        0.0000 
      6 CG         -4.4750  -91.9030  -33.3780 C.3       1 PRO4        0.0000 
      7 CD         -4.4760  -90.3250  -33.0770 C.3       1 PRO4        0.0000 
      8 N           1.7210  -91.6000  -30.8830 N.am      2 ALA6        0.0000 
      9 CA          2.8560  -91.4880  -29.9700 C.3       2 ALA6        0.0000 
     10 C           2.8260  -90.2410  -29.0610 C.2       2 ALA6        0.0000 
     11 O           3.5520  -89.3210  -29.2460 O.2       2 ALA6        0.0000 
     12 CB          4.0770  -91.3690  -30.8510 C.3       2 ALA6        0.0000 
     13 N           1.8730  -90.2440  -27.9460 N.am      3 PRO7        0.0000 
     14 CA          0.8520  -91.4640  -27.6620 C.3       3 PRO7        0.0000 
     15 C          -0.4560  -91.1690  -28.4400 C.2       3 PRO7        0.0000 
     16 O          -1.0780  -92.0400  -28.9320 O.2       3 PRO7        0.0000 
     17 CB          0.7180  -91.4750  -26.3170 C.3       3 PRO7        0.0000 
     18 CG          0.8760  -89.9960  -25.8780 C.3       3 PRO7        0.0000 
     19 CD          1.6670  -89.2850  -27.0430 C.3       3 PRO7        0.0000 
     20 C1          0.1620  -85.6420  -28.8850 C.2       4 SHV1        0.0000 
     21 O2         -0.9240  -85.5880  -29.3550 O.co2     4 SHV1        0.0000 
     22 C2          0.3820  -85.3110  -27.3850 C.3       4 SHV1        0.0000 
     23 C3         -0.5870  -85.4800  -26.4880 C.3       4 SHV1        0.0000 
     24 C4         -0.2470  -85.1450  -25.0300 C.3       4 SHV1        0.0000 
     25 C5         -1.4060  -84.4040  -24.3390 C.3       4 SHV1        0.0000 
     26 C6         -0.8850  -83.6960  -23.0480 C.3       4 SHV1        0.0000 
     27 C7         -1.9790  -82.7930  -22.4270 C.3       4 SHV1        0.0000 
     28 C           0.2860  -87.7680  -31.0300 C.2       5 WFP2        0.0000 
     29 N           1.3090  -86.0580  -29.7290 N.am      5 WFP2        0.0000 
     30 O           0.8380  -88.8030  -31.2620 O.2       5 WFP2        0.0000 
     31 F1          5.3070  -82.5710  -31.2080 F         5 WFP2        0.0000 
     32 F2          1.9030  -82.2820  -34.4550 F         5 WFP2        0.0000 
     33 CA          1.0380  -86.4060  -31.1020 C.3       5 WFP2        0.0000 
     34 CB          2.3330  -86.5200  -31.8940 C.3       5 WFP2        0.0000 
     35 CG          2.8100  -85.0660  -32.2220 C.ar      5 WFP2        0.0000 
     36 CZ          3.5960  -82.4840  -32.8170 C.ar      5 WFP2        0.0000 
     37 CD1         3.8840  -84.4980  -31.5280 C.ar      5 WFP2        0.0000 
     38 CD2         2.1430  -84.3350  -33.1970 C.ar      5 WFP2        0.0000 
     39 CE1         4.2700  -83.1910  -31.8390 C.ar      5 WFP2        0.0000 
     40 CE2         2.5380  -83.0370  -33.5000 C.ar      5 WFP2        0.0000 
     41 N          -1.1760  -87.7830  -30.6250 N.am      6 ALO3        0.0000 
     42 CA         -1.8800  -89.0780  -30.5710 C.3       6 ALO3        0.0000 
     43 CB         -2.1600  -89.5390  -29.1670 C.3       6 ALO3        0.0000 
     44 CG2        -2.7950  -88.3640  -28.4300 C.3       6 ALO3        0.0000 
     45 OG1        -0.9080  -89.8060  -28.5870 O.3       6 ALO3        0.0000 
     46 C          -3.1870  -88.9650  -31.3960 C.2       6 ALO3        0.0000 
     47 O          -3.9110  -88.0210  -31.3850 O.2       6 ALO3        0.0000 
     48 N3         -0.0150  -91.9150  -33.1360           7 3A05        0.0000 
     49 O4          1.8840  -93.9210  -30.8070           7 3A05        0.0000 
     50 C21         0.2120  -93.1950  -32.2630           7 3A05        0.0000 
     51 C22         1.3100  -92.9700  -31.2800           7 3A05        0.0000 
     52 C33         0.6340  -94.3320  -33.1800           7 3A05        0.0000 
     53 C34         1.7340  -93.9980  -34.1030           7 3A05        0.0000 
     54 C35         1.9920  -95.2210  -35.1150           7 3A05        0.0000 
     55 C36         1.4920  -92.7730  -34.9300           7 3A05        0.0000 
     56 C37         1.1680  -91.5860  -34.0460           7 3A05        0.0000 
@<TRIPOS>BOND
     1    1    2 1    
     2    1    7 1    
     3    1   46 am   
     4    2    3 1    
     5    2    5 1    
     6    3    4 2    
     7    3   48 du   
     8    5    6 1    
     9    6    7 1    
    10    8    9 1    
    11    8   51 du   
    12    9   10 1    
    13    9   12 1    
    14   10   11 2    
    15   10   13 am   
    16   13   14 1    
    17   13   19 1    
    18   14   15 1    
    19   14   17 1    
    20   15   16 2    
    21   15   45 du   
    22   17   18 1    
    23   18   19 1    
    24   20   21 ar   
    25   20   22 1    
    26   20   29 du   
    27   22   23 1    
    28   23   24 1    
    29   24   25 1    
    30   25   26 1    
    31   26   27 1    
    32   28   30 2    
    33   28   33 1    
    34   28   41 du   
    35   29   33 1    
    36   31   39 1    
    37   32   40 1    
    38   33   34 1    
    39   34   35 1    
    40   35   37 ar   
    41   35   38 ar   
    42   36   39 ar   
    43   36   40 ar   
    44   37   39 ar   
    45   38   40 ar   
    46   41   42 1    
    47   42   43 1    
    48   42   46 1    
    49   43   44 1    
    50   43   45 1    
    51   46   47 2    
    52   48   50 du   
    53   48   56 du   
    54   49   51 du   
    55   50   51 du   
    56   50   52 du   
    57   52   53 du   
    58   53   54 du   
    59   53   55 du   
    60   55   56 du   
@<TRIPOS>SUBSTRUCTURE
     1 PRO4        1 RESIDUE 
     2 ALA6        8 RESIDUE 
     3 PRO7       13 RESIDUE 
     4 SHV1       20 GROUP   
     5 WFP2       28 RESIDUE 
     6 ALO3       41 RESIDUE 
     7 3A05       48 GROUP   
@<TRIPOS>SET

