#    Name: 6bl0_1_NAP
#    Modification time : Fri May 22 19:26:26 2020

@<TRIPOS>MOLECULE
6bl0_1_NAP
   48    52     1     0     1
SMALL
NO_CHARGES


@<TRIPOS>ATOM
      1 PA         32.3940  317.3680   69.7170 P.3       1 NAP501      0.0000 
      2 O1A        30.9150  317.3880   69.8770 O.co2     1 NAP501      0.0000 
      3 O2A        33.2110  317.0730   70.9850 O.co2     1 NAP501      0.0000 
      4 O5B        32.8910  318.8660   69.4390 O.3       1 NAP501      0.0000 
      5 C5B        33.0770  319.4800   68.1450 C.3       1 NAP501      0.0000 
      6 C4B        32.9730  320.9790   68.2840 C.3       1 NAP501      0.0000 
      7 O4B        31.6380  321.3370   68.7130 O.3       1 NAP501      0.0000 
      8 C3B        33.9060  321.6430   69.2980 C.3       1 NAP501      0.0000 
      9 O3B        35.2490  321.7530   68.8410 O.3       1 NAP501      0.0000 
     10 C2B        33.1480  322.9570   69.4810 C.3       1 NAP501      0.0000 
     11 O2B        33.1960  323.8540   68.3490 O.3       1 NAP501      0.0000 
     12 C1B        31.7150  322.4420   69.5980 C.3       1 NAP501      0.0000 
     13 N9A        31.2640  322.0170   70.9260 N.pl3     1 NAP501      0.0000 
     14 C8A        30.8750  320.7560   71.2980 C.2       1 NAP501      0.0000 
     15 N7A        30.4520  320.6690   72.5340 N.2       1 NAP501      0.0000 
     16 C5A        30.5670  321.9650   73.0130 C.ar      1 NAP501      0.0000 
     17 C6A        30.2190  322.5550   74.2450 C.ar      1 NAP501      0.0000 
     18 N6A        29.7060  321.8770   75.2740 N.pl3     1 NAP501      0.0000 
     19 N1A        30.4100  323.8880   74.3780 N.ar      1 NAP501      0.0000 
     20 C2A        30.9270  324.5750   73.3550 C.ar      1 NAP501      0.0000 
     21 N3A        31.2930  324.1270   72.1500 N.ar      1 NAP501      0.0000 
     22 C4A        31.0770  322.8060   72.0370 C.ar      1 NAP501      0.0000 
     23 O3         32.9870  316.4810   68.5150 O.3       1 NAP501      0.0000 
     24 PN         34.4110  315.9870   67.9650 P.3       1 NAP501      0.0000 
     25 O1N        34.2140  315.3110   66.6620 O.co2     1 NAP501      0.0000 
     26 O2N        35.3810  317.1040   68.0370 O.co2     1 NAP501      0.0000 
     27 O5D        34.7550  314.8130   68.9950 O.3       1 NAP501      0.0000 
     28 C5D        35.8880  314.8040   69.8950 C.3       1 NAP501      0.0000 
     29 C4D        35.9750  313.4440   70.5580 C.3       1 NAP501      0.0000 
     30 O4D        34.7120  313.1090   71.1900 O.3       1 NAP501      0.0000 
     31 C3D        36.3080  312.2630   69.6520 C.3       1 NAP501      0.0000 
     32 O3D        37.2230  311.3760   70.2830 O.3       1 NAP501      0.0000 
     33 C2D        34.9390  311.6160   69.4310 C.3       1 NAP501      0.0000 
     34 O2D        35.0040  310.2060   69.2510 O.3       1 NAP501      0.0000 
     35 C1D        34.2570  311.8460   70.7890 C.3       1 NAP501      0.0000 
     36 N1N        32.7250  311.9430   70.7440 N.pl3     1 NAP501      0.0000 
     37 C2N        32.0800  311.3130   71.8120 C.ar      1 NAP501      0.0000 
     38 C3N        30.7200  311.4740   72.0090 C.ar      1 NAP501      0.0000 
     39 C7N        30.1150  310.8020   73.2140 C.2       1 NAP501      0.0000 
     40 O7N        30.8490  310.1340   73.9770 O.2       1 NAP501      0.0000 
     41 N7N        28.8070  310.9510   73.4300 N.am      1 NAP501      0.0000 
     42 C4N        30.0050  312.2630   71.1080 C.ar      1 NAP501      0.0000 
     43 C5N        30.6550  312.8660   70.0310 C.ar      1 NAP501      0.0000 
     44 C6N        32.0250  312.6830   69.8610 C.ar      1 NAP501      0.0000 
     45 P2B        34.3130  324.9570   68.0280 P.3       1 NAP501      0.0000 
     46 O1X        34.0080  325.7080   66.7560 O.co2     1 NAP501      0.0000 
     47 O2X        34.3230  325.8680   69.2830 O.co2     1 NAP501      0.0000 
     48 O3X        35.6640  324.2610   67.9310 O.co2     1 NAP501      0.0000 
@<TRIPOS>BOND
     1    1    2 ar   
     2    1    3 ar   
     3    1    4 1    
     4    1   23 1    
     5    4    5 1    
     6    5    6 1    
     7    6    7 1    
     8    6    8 1    
     9    7   12 1    
    10    8    9 1    
    11    8   10 1    
    12   10   11 1    
    13   10   12 1    
    14   11   45 1    
    15   12   13 1    
    16   13   14 1    
    17   13   22 1    
    18   14   15 2    
    19   15   16 1    
    20   16   17 ar   
    21   16   22 ar   
    22   17   18 1    
    23   17   19 ar   
    24   19   20 ar   
    25   20   21 ar   
    26   21   22 ar   
    27   23   24 1    
    28   24   25 ar   
    29   24   26 ar   
    30   24   27 1    
    31   27   28 1    
    32   28   29 1    
    33   29   30 1    
    34   29   31 1    
    35   30   35 1    
    36   31   32 1    
    37   31   33 1    
    38   33   34 1    
    39   33   35 1    
    40   35   36 1    
    41   36   37 ar   
    42   36   44 ar   
    43   37   38 ar   
    44   38   39 1    
    45   38   42 ar   
    46   39   40 2    
    47   39   41 am   
    48   42   43 ar   
    49   43   44 ar   
    50   45   46 ar   
    51   45   47 ar   
    52   45   48 ar   
@<TRIPOS>SUBSTRUCTURE
     1 NAP501      1 GROUP   
@<TRIPOS>SET
ATOM$ORANGE STATIC     ATOMS   COLORGROUP SYSTEM 
42 5 5 6 6 8 8 10 10 12 12 14 14 16 16 17 17 20 \
20 22 22 28 28 29 29 31 31 33 33 35 35 37 37 38 38 39 \
39 42 42 43 43 44 44 

