#    Name: 6vfx_4_ATP
#    Modification time : Fri May 22 19:33:08 2020

@<TRIPOS>MOLECULE
6vfx_4_ATP
   43    45     1     0     1
SMALL
NO_CHARGES


@<TRIPOS>ATOM
      1 PG        184.8260  157.6330   94.0770 P.3       1 ATP501      0.0000 
      2 O1G       184.8050  156.3600   94.8850 O.co2     1 ATP501      0.0000 
      3 O2G       184.3280  158.8450   94.8260 O.co2     1 ATP501      0.0000 
      4 O3G       184.2570  157.4980   92.6850 O.co2     1 ATP501      0.0000 
      5 PB        187.3270  156.9950   92.9410 P.3       1 ATP501      0.0000 
      6 O1B       186.6050  156.7070   91.6500 O.co2     1 ATP501      0.0000 
      7 O2B       187.8330  155.8480   93.7830 O.co2     1 ATP501      0.0000 
      8 O3B       186.3930  157.9350   93.8570 O.3       1 ATP501      0.0000 
      9 PA        189.0950  158.1850   91.1210 P.3       1 ATP501      0.0000 
     10 O1A       187.9400  158.6630   90.2730 O.co2     1 ATP501      0.0000 
     11 O2A       189.8690  156.9650   90.6850 O.co2     1 ATP501      0.0000 
     12 O3A       188.5620  157.9790   92.6270 O.3       1 ATP501      0.0000 
     13 O5'       190.1120  159.4240   91.2640 O.3       1 ATP501      0.0000 
     14 C5'       189.9290  160.5790   90.4480 C.3       1 ATP501      0.0000 
     15 C4'       191.2360  161.3520   90.3320 C.3       1 ATP501      0.0000 
     16 O4'       192.0290  161.1580   91.5050 O.3       1 ATP501      0.0000 
     17 C3'       192.0490  160.8650   89.1450 C.3       1 ATP501      0.0000 
     18 O3'       192.0590  161.8560   88.1140 O.3       1 ATP501      0.0000 
     19 C2'       193.4500  160.6380   89.6710 C.3       1 ATP501      0.0000 
     20 O2'       194.3480  161.5810   89.0780 O.3       1 ATP501      0.0000 
     21 C1'       193.3890  160.8660   91.1730 C.3       1 ATP501      0.0000 
     22 N9        193.7890  159.6290   91.8890 N.pl3     1 ATP501      0.0000 
     23 C8        193.0660  159.0280   92.8520 C.2       1 ATP501      0.0000 
     24 N7        193.6940  157.9200   93.3210 N.2       1 ATP501      0.0000 
     25 C5        194.8530  157.8010   92.6500 C.ar      1 ATP501      0.0000 
     26 C6        195.9910  156.8530   92.6530 C.ar      1 ATP501      0.0000 
     27 N6        196.0110  155.7880   93.4900 N.pl3     1 ATP501      0.0000 
     28 N1        197.0080  157.0870   91.7950 N.ar      1 ATP501      0.0000 
     29 C2        196.9990  158.1420   90.9600 C.ar      1 ATP501      0.0000 
     30 N3        196.0000  159.0410   90.9040 N.ar      1 ATP501      0.0000 
     31 C4        194.9160  158.9320   91.7110 C.ar      1 ATP501      0.0000 
     32 H5'1      189.5820  160.2830   89.4560 H         1 ATP501      0.0000 
     33 H5'2      189.1690  161.2220   90.8920 H         1 ATP501      0.0000 
     34 H4'       191.0110  162.4190   90.1990 H         1 ATP501      0.0000 
     35 H3'       191.6400  159.9160   88.7730 H         1 ATP501      0.0000 
     36 HO3'      192.4480  161.4840   87.3110 H         1 ATP501      0.0000 
     37 H2'       193.7590  159.6100   89.4450 H         1 ATP501      0.0000 
     38 HO2'      194.4920  161.3540   88.1490 H         1 ATP501      0.0000 
     39 H1'       194.0450  161.7040   91.4460 H         1 ATP501      0.0000 
     40 H8        192.1050  159.3800   93.2060 H         1 ATP501      0.0000 
     41 HN61      196.7920  155.1540   93.4740 H         1 ATP501      0.0000 
     42 HN62      195.2450  155.6300   94.1240 H         1 ATP501      0.0000 
     43 H2        197.8440  158.2750   90.2960 H         1 ATP501      0.0000 
@<TRIPOS>BOND
     1    1    2 ar   
     2    1    3 ar   
     3    1    4 ar   
     4    1    8 1    
     5    5    6 ar   
     6    5    7 ar   
     7    5    8 1    
     8    5   12 1    
     9    9   10 ar   
    10    9   11 ar   
    11    9   12 1    
    12    9   13 1    
    13   13   14 1    
    14   14   15 1    
    15   14   32 1    
    16   14   33 1    
    17   15   16 1    
    18   15   17 1    
    19   15   34 1    
    20   16   21 1    
    21   17   18 1    
    22   17   19 1    
    23   17   35 1    
    24   18   36 1    
    25   19   20 1    
    26   19   21 1    
    27   19   37 1    
    28   20   38 1    
    29   21   22 1    
    30   21   39 1    
    31   22   23 1    
    32   22   31 1    
    33   23   24 2    
    34   23   40 1    
    35   24   25 1    
    36   25   26 ar   
    37   25   31 ar   
    38   26   27 1    
    39   26   28 ar   
    40   27   41 1    
    41   27   42 1    
    42   28   29 ar   
    43   29   30 ar   
    44   29   43 1    
    45   30   31 ar   
@<TRIPOS>SUBSTRUCTURE
     1 ATP501      1 GROUP   
@<TRIPOS>SET
ATOM$ORANGE STATIC     ATOMS   COLORGROUP SYSTEM 
20 14 14 15 15 17 17 19 19 21 21 23 23 25 25 26 26 29 \
29 31 31 

