#    Name: 6vfx_6_ATP
#    Modification time : Fri May 22 19:33:24 2020

@<TRIPOS>MOLECULE
6vfx_6_ATP
   43    45     1     0     1
SMALL
NO_CHARGES


@<TRIPOS>ATOM
      1 PG        141.1060  182.8590  102.6450 P.3       1 ATP501      0.0000 
      2 O1G       142.2840  183.7170  103.0340 O.co2     1 ATP501      0.0000 
      3 O2G       140.5900  181.9810  103.7570 O.co2     1 ATP501      0.0000 
      4 O3G       141.2630  182.1350  101.3300 O.co2     1 ATP501      0.0000 
      5 PB        139.9340  184.9420  101.1540 P.3       1 ATP501      0.0000 
      6 O1B       140.2810  184.1810   99.8990 O.co2     1 ATP501      0.0000 
      7 O2B       140.7500  186.1520  101.5410 O.co2     1 ATP501      0.0000 
      8 O3B       139.9160  183.9160  102.3970 O.3       1 ATP501      0.0000 
      9 PA        137.5810  185.3110   99.6790 P.3       1 ATP501      0.0000 
     10 O1A       137.6620  183.8970   99.1590 O.co2     1 ATP501      0.0000 
     11 O2A       138.0120  186.4480   98.7840 O.co2     1 ATP501      0.0000 
     12 O3A       138.3860  185.3790  101.0730 O.3       1 ATP501      0.0000 
     13 O5'       136.0570  185.5540  100.1320 O.3       1 ATP501      0.0000 
     14 C5'       135.0580  184.6060   99.7630 C.3       1 ATP501      0.0000 
     15 C4'       133.6840  185.2620   99.7730 C.3       1 ATP501      0.0000 
     16 O4'       133.6540  186.3240  100.7290 O.3       1 ATP501      0.0000 
     17 C3'       133.3590  185.8600   98.4160 C.3       1 ATP501      0.0000 
     18 O3'       132.3330  185.0980   97.7750 O.3       1 ATP501      0.0000 
     19 C2'       132.8770  187.2680   98.6890 C.3       1 ATP501      0.0000 
     20 O2'       131.4910  187.3790   98.3520 O.3       1 ATP501      0.0000 
     21 C1'       133.0570  187.5010  100.1800 C.3       1 ATP501      0.0000 
     22 N9        133.9750  188.6440  100.4130 N.pl3     1 ATP501      0.0000 
     23 C8        135.0740  188.6050  101.1910 C.2       1 ATP501      0.0000 
     24 N7        135.7060  189.8050  101.2110 N.2       1 ATP501      0.0000 
     25 C5        135.0000  190.6440  100.4320 C.ar      1 ATP501      0.0000 
     26 C6        135.1140  192.0620  100.0190 C.ar      1 ATP501      0.0000 
     27 N6        136.1360  192.8370  100.4570 N.pl3     1 ATP501      0.0000 
     28 N1        134.1660  192.5560   99.1930 N.ar      1 ATP501      0.0000 
     29 C2        133.1460  191.7960   98.7540 C.ar      1 ATP501      0.0000 
     30 N3        132.9810  190.5030   99.0880 N.ar      1 ATP501      0.0000 
     31 C4        133.8570  189.8780   99.9120 C.ar      1 ATP501      0.0000 
     32 H5'1      135.0630  183.7830  100.4760 H         1 ATP501      0.0000 
     33 H5'2      135.2730  184.2000   98.7730 H         1 ATP501      0.0000 
     34 H4'       132.9270  184.5060  100.0230 H         1 ATP501      0.0000 
     35 H3'       134.2650  185.8970   97.7950 H         1 ATP501      0.0000 
     36 HO3'      132.2370  185.3900   96.8580 H         1 ATP501      0.0000 
     37 H2'       133.4800  187.9780   98.1090 H         1 ATP501      0.0000 
     38 HO2'      131.3870  187.3640   97.3910 H         1 ATP501      0.0000 
     39 H1'       132.0780  187.6900  100.6420 H         1 ATP501      0.0000 
     40 H8        135.4130  187.7280  101.7280 H         1 ATP501      0.0000 
     41 HN61      136.2020  193.7990  100.1670 H         1 ATP501      0.0000 
     42 HN62      136.8350  192.4490  101.0740 H         1 ATP501      0.0000 
     43 H2        132.4180  192.2500   98.0930 H         1 ATP501      0.0000 
@<TRIPOS>BOND
     1    1    2 ar   
     2    1    3 ar   
     3    1    4 ar   
     4    1    8 1    
     5    5    6 ar   
     6    5    7 ar   
     7    5    8 1    
     8    5   12 1    
     9    9   10 ar   
    10    9   11 ar   
    11    9   12 1    
    12    9   13 1    
    13   13   14 1    
    14   14   15 1    
    15   14   32 1    
    16   14   33 1    
    17   15   16 1    
    18   15   17 1    
    19   15   34 1    
    20   16   21 1    
    21   17   18 1    
    22   17   19 1    
    23   17   35 1    
    24   18   36 1    
    25   19   20 1    
    26   19   21 1    
    27   19   37 1    
    28   20   38 1    
    29   21   22 1    
    30   21   39 1    
    31   22   23 1    
    32   22   31 1    
    33   23   24 2    
    34   23   40 1    
    35   24   25 1    
    36   25   26 ar   
    37   25   31 ar   
    38   26   27 1    
    39   26   28 ar   
    40   27   41 1    
    41   27   42 1    
    42   28   29 ar   
    43   29   30 ar   
    44   29   43 1    
    45   30   31 ar   
@<TRIPOS>SUBSTRUCTURE
     1 ATP501      1 GROUP   
@<TRIPOS>SET
ATOM$ORANGE STATIC     ATOMS   COLORGROUP SYSTEM 
20 14 14 15 15 17 17 19 19 21 21 23 23 25 25 26 26 29 \
29 31 31 

