#    Name: 6vfx_1_UNK_UNK_UNK_UNK_UNK_UNK_UNK
#    Modification time : Fri May 22 19:32:43 2020

@<TRIPOS>MOLECULE
6vfx_1_UNK_UNK_UNK_UNK_UNK_UNK_UNK
   66    65     7     0     0
SMALL
NO_CHARGES


@<TRIPOS>ATOM
      1 N         156.5700  158.6210   98.1140 N.4       1 UNK7        0.0000 
      2 CA        157.4570  158.5400   96.9600 C.3       1 UNK7        0.0000 
      3 C         156.8030  157.7660   95.8220 C.2       1 UNK7        0.0000 
      4 O         156.2540  156.6830   96.0250 O.2       1 UNK7        0.0000 
      5 CB        158.7780  157.8970   97.3490 C.3       1 UNK7        0.0000 
      6 HA        157.6430  159.4370   96.6430 H         1 UNK7        0.0000 
      7 HB1       159.3500  157.8540   96.5670 H         1 UNK7        0.0000 
      8 HB2       159.1990  158.4340   98.0380 H         1 UNK7        0.0000 
      9 HB3       158.6070  157.0030   97.6840 H         1 UNK7        0.0000 
     10 N         156.8720  158.3310   94.6210 N.am      2 UNK8        0.0000 
     11 CA        156.2540  157.7630   93.4340 C.3       2 UNK8        0.0000 
     12 C         157.3350  157.4150   92.4180 C.2       2 UNK8        0.0000 
     13 O         158.2460  158.2120   92.1750 O.2       2 UNK8        0.0000 
     14 CB        155.2430  158.7470   92.8400 C.3       2 UNK8        0.0000 
     15 H         157.2860  159.0690   94.4670 H         2 UNK8        0.0000 
     16 HA        155.7840  156.9480   93.6700 H         2 UNK8        0.0000 
     17 HB1       154.7280  158.3060   92.1500 H         2 UNK8        0.0000 
     18 HB2       154.6500  159.0470   93.5470 H         2 UNK8        0.0000 
     19 HB3       155.7210  159.5060   92.4720 H         2 UNK8        0.0000 
     20 N         157.2360  156.2240   91.8220 N.am      3 UNK9        0.0000 
     21 CA        158.3130  155.7220   90.9690 C.3       3 UNK9        0.0000 
     22 C         157.7880  154.6230   90.0530 C.2       3 UNK9        0.0000 
     23 O         157.4560  153.5410   90.5420 O.2       3 UNK9        0.0000 
     24 CB        159.4510  155.1960   91.8320 C.3       3 UNK9        0.0000 
     25 H         156.5640  155.6940   91.8950 H         3 UNK9        0.0000 
     26 HA        158.6510  156.4440   90.4170 H         3 UNK9        0.0000 
     27 HB1       160.0630  154.6900   91.2760 H         3 UNK9        0.0000 
     28 HB2       159.9060  155.9450   92.2290 H         3 UNK9        0.0000 
     29 HB3       159.0850  154.6190   92.5200 H         3 UNK9        0.0000 
     30 N         157.7540  154.8730   88.7450 N.am      4 UNK10       0.0000 
     31 CA        157.4460  153.8110   87.8040 C.3       4 UNK10       0.0000 
     32 C         157.2510  154.3070   86.3860 C.2       4 UNK10       0.0000 
     33 O         157.4070  155.4950   86.0840 O.2       4 UNK10       0.0000 
     34 H         157.9040  155.6400   88.3850 H         4 UNK10       0.0000 
     35 HA        158.1130  153.1090   87.8250 H         4 UNK10       0.0000 
     36 HA3       156.5970  153.4690   88.0140 H         4 UNK10       0.0000 
     37 N         156.9010  153.3560   85.5130 N.am      5 UNK11       0.0000 
     38 CA        156.7470  153.6150   84.0860 C.3       5 UNK11       0.0000 
     39 C         155.7490  152.6380   83.4780 C.2       5 UNK11       0.0000 
     40 O         155.2840  151.7000   84.1300 O.2       5 UNK11       0.0000 
     41 CB        158.0810  153.5150   83.3440 C.3       5 UNK11       0.0000 
     42 H         156.7450  152.5390   85.7320 H         5 UNK11       0.0000 
     43 HA        156.4170  154.5110   83.9620 H         5 UNK11       0.0000 
     44 HB1       157.9070  153.3060   82.4130 H         5 UNK11       0.0000 
     45 HB2       158.5430  154.3620   83.4010 H         5 UNK11       0.0000 
     46 HB3       158.6120  152.8070   83.7400 H         5 UNK11       0.0000 
     47 N         155.4360  152.8650   82.2010 N.am      6 UNK12       0.0000 
     48 CA        154.5360  151.9990   81.4480 C.3       6 UNK12       0.0000 
     49 C         154.8040  152.1820   79.9600 C.2       6 UNK12       0.0000 
     50 O         155.5950  153.0350   79.5490 O.2       6 UNK12       0.0000 
     51 CB        153.0680  152.2900   81.7750 C.3       6 UNK12       0.0000 
     52 H         155.7390  153.5270   81.7430 H         6 UNK12       0.0000 
     53 HA        154.7190  151.0740   81.6770 H         6 UNK12       0.0000 
     54 HB1       152.5050  151.6930   81.2580 H         6 UNK12       0.0000 
     55 HB2       152.9220  152.1450   82.7230 H         6 UNK12       0.0000 
     56 HB3       152.8710  153.2120   81.5470 H         6 UNK12       0.0000 
     57 N         154.1280  151.3650   79.1550 N.am      7 UNK13       0.0000 
     58 CA        154.2650  151.4210   77.7010 C.3       7 UNK13       0.0000 
     59 C         152.9180  151.6550   77.0270 C.2       7 UNK13       0.0000 
     60 O         152.6730  151.1630   75.9250 O.2       7 UNK13       0.0000 
     61 CB        154.8970  150.1420   77.1760 C.3       7 UNK13       0.0000 
     62 H         153.5780  150.7630   79.4290 H         7 UNK13       0.0000 
     63 HA        154.8470  152.1590   77.4640 H         7 UNK13       0.0000 
     64 HB1       154.8890  150.1630   76.2060 H         7 UNK13       0.0000 
     65 HB2       155.8080  150.0840   77.4930 H         7 UNK13       0.0000 
     66 HB3       154.3830  149.3830   77.4920 H         7 UNK13       0.0000 
@<TRIPOS>BOND
     1    1    2 1    
     2    2    3 1    
     3    2    5 1    
     4    2    6 1    
     5    3    4 2    
     6    3   10 du   
     7    5    7 1    
     8    5    8 1    
     9    5    9 1    
    10   10   11 1    
    11   11   12 1    
    12   10   15 1    
    13   11   14 1    
    14   11   16 1    
    15   12   13 2    
    16   12   20 du   
    17   14   17 1    
    18   14   18 1    
    19   14   19 1    
    20   20   21 1    
    21   21   22 1    
    22   20   25 1    
    23   21   24 1    
    24   21   26 1    
    25   22   23 2    
    26   22   30 du   
    27   24   27 1    
    28   24   28 1    
    29   24   29 1    
    30   30   31 1    
    31   31   32 1    
    32   30   34 1    
    33   31   35 1    
    34   32   33 2    
    35   31   36 1    
    36   32   37 du   
    37   37   38 1    
    38   38   39 1    
    39   37   42 1    
    40   38   41 1    
    41   38   43 1    
    42   39   40 2    
    43   39   47 du   
    44   41   44 1    
    45   41   45 1    
    46   41   46 1    
    47   47   48 1    
    48   48   49 1    
    49   47   52 1    
    50   48   51 1    
    51   48   53 1    
    52   49   50 2    
    53   49   57 du   
    54   51   54 1    
    55   51   55 1    
    56   51   56 1    
    57   57   58 1    
    58   58   59 1    
    59   57   62 1    
    60   58   61 1    
    61   58   63 1    
    62   59   60 2    
    63   61   64 1    
    64   61   65 1    
    65   61   66 1    
@<TRIPOS>SUBSTRUCTURE
     1 UNK7        1 RESIDUE 
     2 UNK8       10 RESIDUE 
     3 UNK9       20 RESIDUE 
     4 UNK10      30 RESIDUE 
     5 UNK11      37 RESIDUE 
     6 UNK12      47 RESIDUE 
     7 UNK13      57 RESIDUE 
@<TRIPOS>SET

