#    Name: 6vfx_2_ATP
#    Modification time : Fri May 22 19:32:52 2020

@<TRIPOS>MOLECULE
6vfx_2_ATP
   43    45     1     0     1
SMALL
NO_CHARGES


@<TRIPOS>ATOM
      1 PG        141.4460  130.5520   93.2210 P.3       1 ATP501      0.0000 
      2 O1G       140.4520  131.4880   93.8620 O.co2     1 ATP501      0.0000 
      3 O2G       142.7930  130.5160   93.8990 O.co2     1 ATP501      0.0000 
      4 O3G       141.5200  130.6570   91.7170 O.co2     1 ATP501      0.0000 
      5 PB        139.4700  128.5790   92.8310 P.3       1 ATP501      0.0000 
      6 O1B       139.4940  128.9050   91.3580 O.co2     1 ATP501      0.0000 
      7 O2B       138.3190  129.0580   93.6840 O.co2     1 ATP501      0.0000 
      8 O3B       140.8450  129.0840   93.5020 O.3       1 ATP501      0.0000 
      9 PA        139.3320  125.9890   91.7690 P.3       1 ATP501      0.0000 
     10 O1A       140.2530  126.3840   90.6400 O.co2     1 ATP501      0.0000 
     11 O2A       137.8470  125.8940   91.5110 O.co2     1 ATP501      0.0000 
     12 O3A       139.6020  126.9840   93.0060 O.3       1 ATP501      0.0000 
     13 O5'       139.8560  124.5730   92.3240 O.3       1 ATP501      0.0000 
     14 C5'       140.8430  123.8530   91.5870 C.3       1 ATP501      0.0000 
     15 C4'       140.7950  122.3740   91.9450 C.3       1 ATP501      0.0000 
     16 O4'       140.3350  122.2020   93.2880 O.3       1 ATP501      0.0000 
     17 C3'       139.8370  121.6260   91.0360 C.3       1 ATP501      0.0000 
     18 O3'       140.5620  120.7960   90.1250 O.3       1 ATP501      0.0000 
     19 C2'       138.9790  120.7800   91.9530 C.3       1 ATP501      0.0000 
     20 O2'       139.2610  119.3930   91.7440 O.3       1 ATP501      0.0000 
     21 C1'       139.3420  121.1760   93.3760 C.3       1 ATP501      0.0000 
     22 N9        138.1560  121.7400   94.0700 N.pl3     1 ATP501      0.0000 
     23 C8        138.1340  122.9210   94.7160 C.2       1 ATP501      0.0000 
     24 N7        136.9140  123.1690   95.2560 N.2       1 ATP501      0.0000 
     25 C5        136.1240  122.1220   94.9570 C.ar      1 ATP501      0.0000 
     26 C6        134.7160  121.7430   95.2230 C.ar      1 ATP501      0.0000 
     27 N6        133.8950  122.5540   95.9320 N.pl3     1 ATP501      0.0000 
     28 N1        134.2800  120.5610   94.7340 N.ar      1 ATP501      0.0000 
     29 C2        135.0870  119.7480   94.0280 C.ar      1 ATP501      0.0000 
     30 N3        136.3730  120.0290   93.7510 N.ar      1 ATP501      0.0000 
     31 C4        136.9480  121.1770   94.1860 C.ar      1 ATP501      0.0000 
     32 H5'1      141.8330  124.2510   91.8190 H         1 ATP501      0.0000 
     33 H5'2      140.6720  123.9810   90.5160 H         1 ATP501      0.0000 
     34 H4'       141.8010  121.9460   91.8330 H         1 ATP501      0.0000 
     35 H3'       139.2000  122.3390   90.4940 H         1 ATP501      0.0000 
     36 HO3'      139.9570  120.4380   89.4610 H         1 ATP501      0.0000 
     37 H2'       137.9260  120.9720   91.7530 H         1 ATP501      0.0000 
     38 HO2'      138.9030  119.1130   90.8900 H         1 ATP501      0.0000 
     39 H1'       139.7320  120.3010   93.9160 H         1 ATP501      0.0000 
     40 H8        138.9810  123.5910   94.7930 H         1 ATP501      0.0000 
     41 HN61      132.9400  122.2820   96.1010 H         1 ATP501      0.0000 
     42 HN62      134.2390  123.4320   96.2880 H         1 ATP501      0.0000 
     43 H2        134.6790  118.8130   93.6640 H         1 ATP501      0.0000 
@<TRIPOS>BOND
     1    1    2 ar   
     2    1    3 ar   
     3    1    4 ar   
     4    1    8 1    
     5    5    6 ar   
     6    5    7 ar   
     7    5    8 1    
     8    5   12 1    
     9    9   10 ar   
    10    9   11 ar   
    11    9   12 1    
    12    9   13 1    
    13   13   14 1    
    14   14   15 1    
    15   14   32 1    
    16   14   33 1    
    17   15   16 1    
    18   15   17 1    
    19   15   34 1    
    20   16   21 1    
    21   17   18 1    
    22   17   19 1    
    23   17   35 1    
    24   18   36 1    
    25   19   20 1    
    26   19   21 1    
    27   19   37 1    
    28   20   38 1    
    29   21   22 1    
    30   21   39 1    
    31   22   23 1    
    32   22   31 1    
    33   23   24 2    
    34   23   40 1    
    35   24   25 1    
    36   25   26 ar   
    37   25   31 ar   
    38   26   27 1    
    39   26   28 ar   
    40   27   41 1    
    41   27   42 1    
    42   28   29 ar   
    43   29   30 ar   
    44   29   43 1    
    45   30   31 ar   
@<TRIPOS>SUBSTRUCTURE
     1 ATP501      1 GROUP   
@<TRIPOS>SET
ATOM$ORANGE STATIC     ATOMS   COLORGROUP SYSTEM 
20 14 14 15 15 17 17 19 19 21 21 23 23 25 25 26 26 29 \
29 31 31 

