#    Name: 6vfx_3_ATP
#    Modification time : Fri May 22 19:33:00 2020

@<TRIPOS>MOLECULE
6vfx_3_ATP
   43    45     1     0     1
SMALL
NO_CHARGES


@<TRIPOS>ATOM
      1 PG        170.8930  131.6950   94.9090 P.3       1 ATP501      0.0000 
      2 O1G       169.7380  131.1940   95.7370 O.co2     1 ATP501      0.0000 
      3 O2G       171.6230  132.8670   95.5180 O.co2     1 ATP501      0.0000 
      4 O3G       170.5850  131.8610   93.4400 O.co2     1 ATP501      0.0000 
      5 PB        171.7200  129.0750   94.2560 P.3       1 ATP501      0.0000 
      6 O1B       171.2300  129.3030   92.8470 O.co2     1 ATP501      0.0000 
      7 O2B       170.9170  128.2070   95.1950 O.co2     1 ATP501      0.0000 
      8 O3B       171.9720  130.4990   94.9670 O.3       1 ATP501      0.0000 
      9 PA        173.8180  127.9050   92.8140 P.3       1 ATP501      0.0000 
     10 O1A       173.7130  128.9780   91.7570 O.co2     1 ATP501      0.0000 
     11 O2A       173.2220  126.5450   92.5410 O.co2     1 ATP501      0.0000 
     12 O3A       173.2200  128.4930   94.1880 O.3       1 ATP501      0.0000 
     13 O5'       175.3830  127.7310   93.1470 O.3       1 ATP501      0.0000 
     14 C5'       176.3510  128.3500   92.3020 C.3       1 ATP501      0.0000 
     15 C4'       177.6890  127.6370   92.4290 C.3       1 ATP501      0.0000 
     16 O4'       177.8240  127.0700   93.7350 O.3       1 ATP501      0.0000 
     17 C3'       177.7950  126.5020   91.4260 C.3       1 ATP501      0.0000 
     18 O3'       178.7370  126.8340   90.4020 O.3       1 ATP501      0.0000 
     19 C2'       178.2730  125.3000   92.2120 C.3       1 ATP501      0.0000 
     20 O2'       179.5920  124.9390   91.7910 O.3       1 ATP501      0.0000 
     21 C1'       178.2980  125.7220   93.6720 C.3       1 ATP501      0.0000 
     22 N9        177.3790  124.8650   94.4610 N.pl3     1 ATP501      0.0000 
     23 C8        176.3980  125.3190   95.2640 C.2       1 ATP501      0.0000 
     24 N7        175.7310  124.2950   95.8550 N.2       1 ATP501      0.0000 
     25 C5        176.2920  123.1510   95.4270 C.ar      1 ATP501      0.0000 
     26 C6        176.0700  121.7050   95.6610 C.ar      1 ATP501      0.0000 
     27 N6        175.0900  121.2730   96.4900 N.pl3     1 ATP501      0.0000 
     28 N1        176.8780  120.8320   95.0190 N.ar      1 ATP501      0.0000 
     29 C2        177.8550  121.2490   94.1940 C.ar      1 ATP501      0.0000 
     30 N3        178.1120  122.5440   93.9360 N.ar      1 ATP501      0.0000 
     31 C4        177.3810  123.5290   94.5130 C.ar      1 ATP501      0.0000 
     32 H5'1      176.0120  128.3250   91.2640 H         1 ATP501      0.0000 
     33 H5'2      176.4750  129.3920   92.5920 H         1 ATP501      0.0000 
     34 H4'       178.4980  128.3570   92.2430 H         1 ATP501      0.0000 
     35 H3'       176.8070  126.2880   90.9950 H         1 ATP501      0.0000 
     36 HO3'      178.6900  126.1780   89.6930 H         1 ATP501      0.0000 
     37 H2'       177.5740  124.4680   92.0600 H         1 ATP501      0.0000 
     38 HO2'      179.5560  124.5430   90.9100 H         1 ATP501      0.0000 
     39 H1'       179.3240  125.6520   94.0590 H         1 ATP501      0.0000 
     40 H8        176.1690  126.3660   95.4190 H         1 ATP501      0.0000 
     41 HN61      174.4950  121.9380   96.9610 H         1 ATP501      0.0000 
     42 HN62      174.9560  120.2860   96.6320 H         1 ATP501      0.0000 
     43 H2        178.4690  120.5000   93.7090 H         1 ATP501      0.0000 
@<TRIPOS>BOND
     1    1    2 ar   
     2    1    3 ar   
     3    1    4 ar   
     4    1    8 1    
     5    5    6 ar   
     6    5    7 ar   
     7    5    8 1    
     8    5   12 1    
     9    9   10 ar   
    10    9   11 ar   
    11    9   12 1    
    12    9   13 1    
    13   13   14 1    
    14   14   15 1    
    15   14   32 1    
    16   14   33 1    
    17   15   16 1    
    18   15   17 1    
    19   15   34 1    
    20   16   21 1    
    21   17   18 1    
    22   17   19 1    
    23   17   35 1    
    24   18   36 1    
    25   19   20 1    
    26   19   21 1    
    27   19   37 1    
    28   20   38 1    
    29   21   22 1    
    30   21   39 1    
    31   22   23 1    
    32   22   31 1    
    33   23   24 2    
    34   23   40 1    
    35   24   25 1    
    36   25   26 ar   
    37   25   31 ar   
    38   26   27 1    
    39   26   28 ar   
    40   27   41 1    
    41   27   42 1    
    42   28   29 ar   
    43   29   30 ar   
    44   29   43 1    
    45   30   31 ar   
@<TRIPOS>SUBSTRUCTURE
     1 ATP501      1 GROUP   
@<TRIPOS>SET
ATOM$ORANGE STATIC     ATOMS   COLORGROUP SYSTEM 
20 14 14 15 15 17 17 19 19 21 21 23 23 25 25 26 26 29 \
29 31 31 

