#    Name: 6vfx_7_ADP
#    Modification time : Fri May 22 19:33:29 2020

@<TRIPOS>MOLECULE
6vfx_7_ADP
   39    41     1     0     1
SMALL
NO_CHARGES


@<TRIPOS>ATOM
      1 PB        121.5680  157.1700  102.4730 P.3       1 ADP501      0.0000 
      2 O1B       121.9980  157.8780  101.2110 O.co2     1 ADP501      0.0000 
      3 O2B       120.8520  158.0540  103.4660 O.co2     1 ADP501      0.0000 
      4 O3B       122.6240  156.2780  103.0820 O.co2     1 ADP501      0.0000 
      5 PA        120.6660  155.2520  100.6530 P.3       1 ADP501      0.0000 
      6 O1A       120.2650  156.0750   99.4520 O.co2     1 ADP501      0.0000 
      7 O2A       122.0480  154.6510  100.7380 O.co2     1 ADP501      0.0000 
      8 O3A       120.4310  156.1440  101.9730 O.3       1 ADP501      0.0000 
      9 O5'       119.5930  154.0640  100.8220 O.3       1 ADP501      0.0000 
     10 C5'       119.8040  152.8040  100.1870 C.3       1 ADP501      0.0000 
     11 C4'       118.4660  152.0970  100.0080 C.3       1 ADP501      0.0000 
     12 O4'       117.5920  152.4380  101.0860 O.3       1 ADP501      0.0000 
     13 C3'       117.7850  152.5210   98.7170 C.3       1 ADP501      0.0000 
     14 O3'       117.6140  151.3840   97.8660 O.3       1 ADP501      0.0000 
     15 C2'       116.4320  153.0730   99.1150 C.3       1 ADP501      0.0000 
     16 O2'       115.3910  152.4080   98.3930 O.3       1 ADP501      0.0000 
     17 C1'       116.2940  152.7900  100.6010 C.3       1 ADP501      0.0000 
     18 N9        115.8130  153.9980  101.3160 N.pl3     1 ADP501      0.0000 
     19 C8        116.5170  154.6960  102.2260 C.2       1 ADP501      0.0000 
     20 N7        115.7980  155.7430  102.7040 N.2       1 ADP501      0.0000 
     21 C5        114.6000  155.7220  102.0920 C.ar      1 ADP501      0.0000 
     22 C6        113.3680  156.5430  102.1330 C.ar      1 ADP501      0.0000 
     23 N6        113.2750  157.6220  102.9470 N.pl3     1 ADP501      0.0000 
     24 N1        112.3420  156.1780  101.3320 N.ar      1 ADP501      0.0000 
     25 C2        112.4250  155.1070  100.5210 C.ar      1 ADP501      0.0000 
     26 N3        113.5110  154.3190  100.4330 N.ar      1 ADP501      0.0000 
     27 C4        114.6130  154.5670  101.1810 C.ar      1 ADP501      0.0000 
     28 H5'1      120.2860  152.9510   99.2180 H         1 ADP501      0.0000 
     29 H5'2      120.4640  152.1890  100.8030 H         1 ADP501      0.0000 
     30 H4'       118.6340  151.0110   99.9850 H         1 ADP501      0.0000 
     31 H3'       118.3710  153.3040   98.2170 H         1 ADP501      0.0000 
     32 HO3'      117.3280  151.6740   96.9890 H         1 ADP501      0.0000 
     33 H2'       116.4090  154.1570   98.9400 H         1 ADP501      0.0000 
     34 HO2'      115.4150  152.6800   97.4650 H         1 ADP501      0.0000 
     35 H1'       115.5930  151.9560  100.7460 H         1 ADP501      0.0000 
     36 H8        117.5260  154.4550  102.5360 H         1 ADP501      0.0000 
     37 HN61      112.4300  158.1710  102.9630 H         1 ADP501      0.0000 
     38 HN62      114.0530  157.8770  103.5370 H         1 ADP501      0.0000 
     39 H2        111.5680  154.8660   99.9040 H         1 ADP501      0.0000 
@<TRIPOS>BOND
     1    1    2 ar   
     2    1    3 ar   
     3    1    4 ar   
     4    1    8 1    
     5    5    6 ar   
     6    5    7 ar   
     7    5    8 1    
     8    5    9 1    
     9    9   10 1    
    10   10   11 1    
    11   10   28 1    
    12   10   29 1    
    13   11   12 1    
    14   11   13 1    
    15   11   30 1    
    16   12   17 1    
    17   13   14 1    
    18   13   15 1    
    19   13   31 1    
    20   14   32 1    
    21   15   16 1    
    22   15   17 1    
    23   15   33 1    
    24   16   34 1    
    25   17   18 1    
    26   17   35 1    
    27   18   19 1    
    28   18   27 1    
    29   19   20 2    
    30   19   36 1    
    31   20   21 1    
    32   21   22 ar   
    33   21   27 ar   
    34   22   23 1    
    35   22   24 ar   
    36   23   37 1    
    37   23   38 1    
    38   24   25 ar   
    39   25   26 ar   
    40   25   39 1    
    41   26   27 ar   
@<TRIPOS>SUBSTRUCTURE
     1 ADP501      1 GROUP   
@<TRIPOS>SET
ATOM$ORANGE STATIC     ATOMS   COLORGROUP SYSTEM 
20 10 10 11 11 13 13 15 15 17 17 19 19 21 21 22 22 25 \
25 27 27 

