#    Name: 6vfx_5_ATP
#    Modification time : Fri May 22 19:33:16 2020

@<TRIPOS>MOLECULE
6vfx_5_ATP
   43    45     1     0     1
SMALL
NO_CHARGES


@<TRIPOS>ATOM
      1 PG        169.6220  182.9970   95.7740 P.3       1 ATP501      0.0000 
      2 O1G       170.8480  182.3570   96.3730 O.co2     1 ATP501      0.0000 
      3 O2G       168.5020  183.2260   96.7610 O.co2     1 ATP501      0.0000 
      4 O3G       169.1720  182.3840   94.4700 O.co2     1 ATP501      0.0000 
      5 PB        171.1780  184.7630   94.2210 P.3       1 ATP501      0.0000 
      6 O1B       170.8030  183.9460   93.0120 O.co2     1 ATP501      0.0000 
      7 O2B       172.5640  184.6370   94.8050 O.co2     1 ATP501      0.0000 
      8 O3B       170.1010  184.4860   95.3880 O.3       1 ATP501      0.0000 
      9 PA        170.6970  186.8210   92.3780 P.3       1 ATP501      0.0000 
     10 O1A       169.5550  186.0420   91.7730 O.co2     1 ATP501      0.0000 
     11 O2A       172.0280  186.8490   91.6640 O.co2     1 ATP501      0.0000 
     12 O3A       170.9030  186.3160   93.8940 O.3       1 ATP501      0.0000 
     13 O5'       170.1790  188.3320   92.5720 O.3       1 ATP501      0.0000 
     14 C5'       168.9530  188.7360   91.9670 C.3       1 ATP501      0.0000 
     15 C4'       168.9360  190.2470   91.7850 C.3       1 ATP501      0.0000 
     16 O4'       169.7350  190.8700   92.7920 O.3       1 ATP501      0.0000 
     17 C3'       169.5170  190.6350   90.4360 C.3       1 ATP501      0.0000 
     18 O3'       168.4840  191.1290   89.5790 O.3       1 ATP501      0.0000 
     19 C2'       170.5320  191.7220   90.7190 C.3       1 ATP501      0.0000 
     20 O2'       170.0820  192.9580   90.1570 O.3       1 ATP501      0.0000 
     21 C1'       170.6090  191.8530   92.2310 C.3       1 ATP501      0.0000 
     22 N9        171.9880  191.5870   92.7200 N.pl3     1 ATP501      0.0000 
     23 C8        172.2940  190.7560   93.7330 C.2       1 ATP501      0.0000 
     24 N7        173.6310  190.7230   93.9610 N.2       1 ATP501      0.0000 
     25 C5        174.2100  191.5550   93.0770 C.ar      1 ATP501      0.0000 
     26 C6        175.5940  191.9870   92.7710 C.ar      1 ATP501      0.0000 
     27 N6        176.6490  191.5090   93.4730 N.pl3     1 ATP501      0.0000 
     28 N1        175.7740  192.8730   91.7690 N.ar      1 ATP501      0.0000 
     29 C2        174.7360  193.3520   91.0650 C.ar      1 ATP501      0.0000 
     30 N3        173.4550  193.0020   91.2880 N.ar      1 ATP501      0.0000 
     31 C4        173.1240  192.1280   92.2660 C.ar      1 ATP501      0.0000 
     32 H5'1      168.8310  188.2410   91.0010 H         1 ATP501      0.0000 
     33 H5'2      168.1190  188.4420   92.6040 H         1 ATP501      0.0000 
     34 H4'       167.8990  190.6060   91.8470 H         1 ATP501      0.0000 
     35 H3'       170.0230  189.7720   89.9820 H         1 ATP501      0.0000 
     36 HO3'      168.8290  191.2310   88.6810 H         1 ATP501      0.0000 
     37 H2'       171.5050  191.4300   90.3020 H         1 ATP501      0.0000 
     38 HO2'      170.1580  192.9240   89.1940 H         1 ATP501      0.0000 
     39 H1'       170.2870  192.8620   92.5240 H         1 ATP501      0.0000 
     40 H8        171.5660  190.1850   94.2950 H         1 ATP501      0.0000 
     41 HN61      177.5820  191.8130   93.2470 H         1 ATP501      0.0000 
     42 HN62      176.5000  190.8480   94.2200 H         1 ATP501      0.0000 
     43 H2        174.9400  194.0610   90.2730 H         1 ATP501      0.0000 
@<TRIPOS>BOND
     1    1    2 ar   
     2    1    3 ar   
     3    1    4 ar   
     4    1    8 1    
     5    5    6 ar   
     6    5    7 ar   
     7    5    8 1    
     8    5   12 1    
     9    9   10 ar   
    10    9   11 ar   
    11    9   12 1    
    12    9   13 1    
    13   13   14 1    
    14   14   15 1    
    15   14   32 1    
    16   14   33 1    
    17   15   16 1    
    18   15   17 1    
    19   15   34 1    
    20   16   21 1    
    21   17   18 1    
    22   17   19 1    
    23   17   35 1    
    24   18   36 1    
    25   19   20 1    
    26   19   21 1    
    27   19   37 1    
    28   20   38 1    
    29   21   22 1    
    30   21   39 1    
    31   22   23 1    
    32   22   31 1    
    33   23   24 2    
    34   23   40 1    
    35   24   25 1    
    36   25   26 ar   
    37   25   31 ar   
    38   26   27 1    
    39   26   28 ar   
    40   27   41 1    
    41   27   42 1    
    42   28   29 ar   
    43   29   30 ar   
    44   29   43 1    
    45   30   31 ar   
@<TRIPOS>SUBSTRUCTURE
     1 ATP501      1 GROUP   
@<TRIPOS>SET
ATOM$ORANGE STATIC     ATOMS   COLORGROUP SYSTEM 
20 14 14 15 15 17 17 19 19 21 21 23 23 25 25 26 26 29 \
29 31 31 

