#    Name: 6vfx_1_UNK_UNK_UNK_UNK_UNK_UNK_UNK_CAVITY_N1_ALL
#    Modification time : Fri May 22 19:32:45 2020

@<TRIPOS>MOLECULE
6vfx_1_UNK_UNK_UNK_UNK_UNK_UNK_UNK_CAVITY_N1_ALL
   70     0     6     0     0
SMALL
NO_CHARGES


@<TRIPOS>ATOM
      1 OG        153.9000  152.3800   81.4600 O.3       1 SER1        0.0000 
      2 OG        154.2200  153.7400   80.9200 O.3       1 SER1        0.0000 
      3 OG        152.5100  152.8300   81.7700 O.3       1 SER1        0.0000 
      4 OG        152.8300  154.2000   81.2300 O.3       1 SER1        0.0000 
      5 OG        155.7400  152.3700   82.5200 O.3       1 SER1        0.0000 
      6 OG        154.3500  152.8200   82.8300 O.3       1 SER1        0.0000 
      7 OG        154.7900  153.2600   84.1900 O.3       1 SER1        0.0000 
      8 OG        154.9100  152.3400   86.1000 O.3       1 SER1        0.0000 
      9 O         154.1000  149.6900   78.9700 O.2       2 ALA2        0.0000 
     10 O         154.5400  150.1300   80.3400 O.2       2 ALA2        0.0000 
     11 N         153.1400  150.5800   80.6400 N.am      2 ALA2        0.0000 
     12 N         153.4600  151.9400   80.1000 N.am      2 ALA2        0.0000 
     13 O         157.3400  154.2000   79.7700 O.2       2 ALA2        0.0000 
     14 O         155.9400  154.6500   80.0700 O.2       2 ALA2        0.0000 
     15 O         156.2600  156.0100   79.5300 O.2       2 ALA2        0.0000 
     16 N         163.0500  151.4800   80.4500 N.am      2 ALA2        0.0000 
     17 N         161.6500  151.9300   80.7500 N.am      2 ALA2        0.0000 
     18 N         161.9700  153.2900   80.2100 N.am      2 ALA2        0.0000 
     19 O         160.5800  153.7400   80.5200 O.2       2 ALA2        0.0000 
     20 O         157.7800  154.6400   81.1300 O.2       2 ALA2        0.0000 
     21 O         156.7000  156.4500   80.8900 O.2       2 ALA2        0.0000 
     22 N         162.0900  152.3700   82.1200 N.am      2 ALA2        0.0000 
     23 O         162.4100  153.7300   81.5700 O.2       2 ALA2        0.0000 
     24 N         160.7000  152.8200   82.4200 N.am      2 ALA2        0.0000 
     25 O         157.9000  153.7200   83.0400 O.2       2 ALA2        0.0000 
     26 N         155.8600  151.4500   84.4300 N.am      2 ALA2        0.0000 
     27 O         158.0200  152.8000   84.9400 O.2       2 ALA2        0.0000 
     28 O         158.3400  154.1600   84.4000 O.2       2 ALA2        0.0000 
     29 N         156.3000  151.8900   85.7900 N.am      2 ALA2        0.0000 
     30 O         156.6300  153.2500   85.2500 O.2       2 ALA2        0.0000 
     31 O         155.2300  153.7000   85.5600 O.2       2 ALA2        0.0000 
     32 O         157.0700  153.6900   86.6100 O.2       2 ALA2        0.0000 
     33 N         157.3900  155.0500   86.0700 N.am      2 ALA2        0.0000 
     34 NZ        161.9700  148.3100   80.1700 N.4       3 LYS4        0.0000 
     35 NZ        162.2900  149.6700   79.6300 N.4       3 LYS4        0.0000 
     36 NZ        162.7300  150.1100   80.9900 N.4       3 LYS4        0.0000 
     37 CZ        152.0700  152.3900   80.4100 C.ar      4 PHE5        0.0000 
     38 CZ        152.3900  153.7600   79.8600 C.ar      4 PHE5        0.0000 
     39 CZ        152.1900  151.4700   82.3100 C.ar      4 PHE5        0.0000 
     40 CZ        154.0200  151.4600   83.3700 C.ar      4 PHE5        0.0000 
     41 CZ        154.4700  151.9000   84.7400 C.ar      4 PHE5        0.0000 
     42 CA        154.8600  151.4900   79.7900 C.3       5 GLY6        0.0000 
     43 CA        160.8900  150.1300   79.9300 C.3       5 GLY6        0.0000 
     44 CA        157.0200  152.8400   80.3100 C.3       5 GLY6        0.0000 
     45 CA        155.3000  151.9300   81.1600 C.3       5 GLY6        0.0000 
     46 CA        155.6200  153.2900   80.6100 C.3       5 GLY6        0.0000 
     47 CA        153.5800  151.0200   82.0100 C.3       5 GLY6        0.0000 
     48 CA        154.5500  155.1100   80.3800 C.3       5 GLY6        0.0000 
     49 CA        161.3300  150.5700   81.3000 C.3       5 GLY6        0.0000 
     50 CA        160.2500  152.3800   81.0600 C.3       5 GLY6        0.0000 
     51 CA        158.8600  152.8300   81.3700 C.3       5 GLY6        0.0000 
     52 CA        157.1400  151.9200   82.2200 C.3       5 GLY6        0.0000 
     53 CA        157.4600  153.2800   81.6700 C.3       5 GLY6        0.0000 
     54 CA        155.4200  151.0100   83.0600 C.3       5 GLY6        0.0000 
     55 CA        156.0600  153.7300   81.9800 C.3       5 GLY6        0.0000 
     56 CA        156.3800  155.0900   81.4400 C.3       5 GLY6        0.0000 
     57 CA        155.3100  156.9100   81.2000 C.3       5 GLY6        0.0000 
     58 CA        161.0200  154.1800   81.8800 C.3       5 GLY6        0.0000 
     59 CA        158.9800  151.9100   83.2700 C.3       5 GLY6        0.0000 
     60 CA        159.3000  153.2700   82.7300 C.3       5 GLY6        0.0000 
     61 CA        159.6200  154.6300   82.1900 C.3       5 GLY6        0.0000 
     62 CA        157.5800  152.3600   83.5800 C.3       5 GLY6        0.0000 
     63 CA        158.2200  155.0800   82.4900 C.3       5 GLY6        0.0000 
     64 CA        156.1800  152.8100   83.8900 C.3       5 GLY6        0.0000 
     65 CA        156.5000  154.1700   83.3400 C.3       5 GLY6        0.0000 
     66 CA        156.8300  155.5300   82.8000 C.3       5 GLY6        0.0000 
     67 CA        157.1500  156.8900   82.2600 C.3       5 GLY6        0.0000 
     68 CA        156.9500  154.6100   84.7100 C.3       5 GLY6        0.0000 
     69 CA        157.2700  155.9700   84.1600 C.3       5 GLY6        0.0000 
     70 DU        153.7800  153.3000   79.5600 H         6 CUB7        0.0000 
@<TRIPOS>BOND
@<TRIPOS>SUBSTRUCTURE
     1 SER1        1 GROUP   
     2 ALA2        9 GROUP   
     3 LYS4       34 GROUP   
     4 PHE5       37 GROUP   
     5 GLY6       42 GROUP   
     6 CUB7       70 GROUP   
@<TRIPOS>SET

