#    Name: 6kzp_2_Y01_CAVITY_N1_4
#    Modification time : Fri May 22 19:31:08 2020

@<TRIPOS>MOLECULE
6kzp_2_Y01_CAVITY_N1_4
   78     0     5     0     0
SMALL
NO_CHARGES


@<TRIPOS>ATOM
      1 N         191.3800  180.0700  186.3000 N.am      1 ALA2        0.0000 
      2 N         191.9600  178.6800  187.7800 N.am      1 ALA2        0.0000 
      3 N         193.0600  177.6600  187.9100 N.am      1 ALA2        0.0000 
      4 N         195.2500  175.6300  188.1600 N.am      1 ALA2        0.0000 
      5 N         192.8500  179.7100  188.4000 N.am      1 ALA2        0.0000 
      6 N         193.9500  178.7000  188.5300 N.am      1 ALA2        0.0000 
      7 O         193.4400  178.3200  189.8900 O.2       1 ALA2        0.0000 
      8 O         194.3300  179.3500  190.5100 O.2       1 ALA2        0.0000 
      9 N         195.4200  178.3400  190.6400 N.am      1 ALA2        0.0000 
     10 N         195.7300  180.7700  189.7700 N.am      1 ALA2        0.0000 
     11 N         197.4100  178.3600  191.3900 N.am      1 ALA2        0.0000 
     12 N         196.9000  177.9800  192.7500 N.am      1 ALA2        0.0000 
     13 O         196.3900  177.6000  194.1000 O.2       1 ALA2        0.0000 
     14 O         195.8800  177.2200  195.4600 O.2       1 ALA2        0.0000 
     15 N         198.0000  176.9600  192.8700 N.am      1 ALA2        0.0000 
     16 N         197.4900  176.5800  194.2300 N.am      1 ALA2        0.0000 
     17 O         196.9800  176.2000  195.5900 O.2       1 ALA2        0.0000 
     18 N         198.0700  175.1800  195.7200 N.am      1 ALA2        0.0000 
     19 N         197.7900  179.0100  193.3700 N.am      1 ALA2        0.0000 
     20 O         197.2800  178.6300  194.7300 O.2       1 ALA2        0.0000 
     21 N         198.8900  178.0000  193.4900 N.am      1 ALA2        0.0000 
     22 O         198.3800  177.6200  194.8500 O.2       1 ALA2        0.0000 
     23 N         199.9800  176.9800  193.6200 N.am      1 ALA2        0.0000 
     24 N         199.4700  176.6000  194.9800 N.am      1 ALA2        0.0000 
     25 O         198.4500  175.8400  197.7000 O.2       1 ALA2        0.0000 
     26 O         199.2700  178.6500  195.4800 O.2       1 ALA2        0.0000 
     27 O         199.3400  176.8800  198.3200 O.2       1 ALA2        0.0000 
     28 OD1       198.8300  176.5000  199.6800 O.co2     2 ASP3        0.0000 
     29 CZ        188.1200  178.3600  182.9500 C.ar      3 PHE5        0.0000 
     30 CZ        189.5200  179.7800  182.2100 C.ar      3 PHE5        0.0000 
     31 CZ        189.0100  179.4000  183.5700 C.ar      3 PHE5        0.0000 
     32 CZ        188.5000  179.0200  184.9300 C.ar      3 PHE5        0.0000 
     33 CZ        189.6000  178.0000  185.0500 C.ar      3 PHE5        0.0000 
     34 CZ        190.4100  180.8100  182.8300 C.ar      3 PHE5        0.0000 
     35 CZ        189.9000  180.4400  184.1900 C.ar      3 PHE5        0.0000 
     36 CZ        189.3900  180.0600  185.5500 C.ar      3 PHE5        0.0000 
     37 CZ        188.8800  179.6800  186.9100 C.ar      3 PHE5        0.0000 
     38 CZ        190.4900  179.0400  185.6700 C.ar      3 PHE5        0.0000 
     39 CZ        190.7900  181.4700  184.8100 C.ar      3 PHE5        0.0000 
     40 CZ        190.2800  181.0900  186.1700 C.ar      3 PHE5        0.0000 
     41 CA        189.2200  177.3500  183.0700 C.3       4 GLY6        0.0000 
     42 CA        190.1100  178.3800  183.6900 C.3       4 GLY6        0.0000 
     43 CA        190.6900  176.9900  185.1800 C.3       4 GLY6        0.0000 
     44 CA        189.9800  178.6600  187.0300 C.3       4 GLY6        0.0000 
     45 CA        191.5800  178.0200  185.8000 C.3       4 GLY6        0.0000 
     46 CA        191.0700  177.6400  187.1600 C.3       4 GLY6        0.0000 
     47 CA        192.6800  177.0100  185.9300 C.3       4 GLY6        0.0000 
     48 CA        192.1700  176.6300  187.2900 C.3       4 GLY6        0.0000 
     49 CA        193.7700  175.9900  186.0500 C.3       4 GLY6        0.0000 
     50 CA        192.5500  177.2800  189.2700 C.3       4 GLY6        0.0000 
     51 CA        194.1500  176.6500  188.0400 C.3       4 GLY6        0.0000 
     52 CA        195.7600  176.0100  186.8000 C.3       4 GLY6        0.0000 
     53 CA        191.6800  182.5100  185.4300 C.3       4 GLY6        0.0000 
     54 CA        192.7800  181.4900  185.5600 C.3       4 GLY6        0.0000 
     55 CA        192.2700  181.1100  186.9200 C.3       4 GLY6        0.0000 
     56 CA        193.3600  180.0900  187.0400 C.3       4 GLY6        0.0000 
     57 CA        194.5400  177.3000  190.0200 C.3       4 GLY6        0.0000 
     58 CA        196.6500  177.0400  187.4200 C.3       4 GLY6        0.0000 
     59 CA        196.1400  176.6600  188.7800 C.3       4 GLY6        0.0000 
     60 CA        194.8400  179.7300  189.1500 C.3       4 GLY6        0.0000 
     61 CA        194.9200  177.9600  192.0000 C.3       4 GLY6        0.0000 
     62 CA        196.5200  177.3200  190.7600 C.3       4 GLY6        0.0000 
     63 CA        196.0100  176.9400  192.1200 C.3       4 GLY6        0.0000 
     64 CA        195.5000  176.5600  193.4800 C.3       4 GLY6        0.0000 
     65 CA        198.3000  179.3900  192.0100 C.3       4 GLY6        0.0000 
     66 CA        198.6800  180.0500  193.9900 C.3       4 GLY6        0.0000 
     67 DU        191.0000  179.4200  184.3200 H         5 CUB7        0.0000 
     68 DU        191.8900  180.4500  184.9400 H         5 CUB7        0.0000 
     69 DU        192.4700  179.0600  186.4200 H         5 CUB7        0.0000 
     70 DU        193.5700  178.0400  186.5500 H         5 CUB7        0.0000 
     71 DU        194.6600  177.0200  186.6800 H         5 CUB7        0.0000 
     72 DU        194.4600  179.0800  187.1700 H         5 CUB7        0.0000 
     73 DU        195.5500  178.0600  187.3000 H         5 CUB7        0.0000 
     74 DU        195.0400  177.6800  188.6600 H         5 CUB7        0.0000 
     75 DU        195.9300  178.7200  189.2800 H         5 CUB7        0.0000 
     76 DU        197.0300  177.7000  189.4100 H         5 CUB7        0.0000 
     77 DU        199.0100  177.7200  190.1500 H         5 CUB7        0.0000 
     78 DU        198.5100  177.3400  191.5100 H         5 CUB7        0.0000 
@<TRIPOS>BOND
@<TRIPOS>SUBSTRUCTURE
     1 ALA2        1 GROUP   
     2 ASP3       28 GROUP   
     3 PHE5       29 GROUP   
     4 GLY6       41 GROUP   
     5 CUB7       67 GROUP   
@<TRIPOS>SET

