#    Name: 6kzp_3_Y01
#    Modification time : Fri May 22 19:31:26 2020

@<TRIPOS>MOLECULE
6kzp_3_Y01
   35    38     1     0     0
SMALL
NO_CHARGES


@<TRIPOS>ATOM
      1 CAA       168.0720  150.0400  179.8620 C.3       1 Y012318     0.0000 
      2 CBA       169.3080  149.3360  180.4490 C.3       1 Y012318     0.0000 
      3 CAB       170.5260  149.6740  179.5860 C.3       1 Y012318     0.0000 
      4 CAN       169.1040  147.8020  180.4200 C.3       1 Y012318     0.0000 
      5 CAJ       169.1000  147.1890  181.8590 C.3       1 Y012318     0.0000 
      6 CAO       170.4820  147.3510  182.5740 C.3       1 Y012318     0.0000 
      7 CBB       170.5620  146.6260  184.0100 C.3       1 Y012318     0.0000 
      8 CAC       169.1150  146.3610  184.4880 C.3       1 Y012318     0.0000 
      9 CBE       171.3100  145.3820  184.0270 C.3       1 Y012318     0.0000 
     10 CAP       172.2760  145.2940  182.8110 C.3       1 Y012318     0.0000 
     11 CAQ       173.4640  144.1480  183.3160 C.3       1 Y012318     0.0000 
     12 CBG       173.2460  144.0210  184.9420 C.3       1 Y012318     0.0000 
     13 CBI       172.3210  145.2260  185.3210 C.3       1 Y012318     0.0000 
     14 CAE       173.2250  146.4490  185.2670 C.3       1 Y012318     0.0000 
     15 CAU       171.8540  145.1550  186.6560 C.3       1 Y012318     0.0000 
     16 CAS       173.0480  144.8240  187.7570 C.3       1 Y012318     0.0000 
     17 CBF       173.8730  143.6160  187.3320 C.3       1 Y012318     0.0000 
     18 CBD       174.4090  143.8450  185.9220 C.3       1 Y012318     0.0000 
     19 CAK       175.3970  142.6570  185.3910 C.3       1 Y012318     0.0000 
     20 CAI       176.4780  142.2960  186.4010 C.2       1 Y012318     0.0000 
     21 CAZ       175.9720  142.1950  188.0080 C.2       1 Y012318     0.0000 
     22 CAV       176.9230  141.6440  189.0990 C.3       1 Y012318     0.0000 
     23 CBH       175.0560  143.2630  188.4630 C.3       1 Y012318     0.0000 
     24 CAD       175.8720  144.5450  188.6480 C.3       1 Y012318     0.0000 
     25 CAT       174.3810  142.8960  189.7970 C.3       1 Y012318     0.0000 
     26 CAR       175.3570  142.3890  190.8670 C.3       1 Y012318     0.0000 
     27 CBC       176.2280  141.2670  190.4030 C.3       1 Y012318     0.0000 
     28 OAW       177.2440  141.0890  191.4050 O.3       1 Y012318     0.0000 
     29 CAY       177.3790  139.7880  191.9700 C.2       1 Y012318     0.0000 
     30 OAG       178.3710  139.1610  191.7880 O.2       1 Y012318     0.0000 
     31 CAM       176.2620  139.1930  192.8540 C.3       1 Y012318     0.0000 
     32 CAL       176.7700  139.1880  194.3080 C.3       1 Y012318     0.0000 
     33 CAX       175.7960  138.4270  195.2210 C.2       1 Y012318     0.0000 
     34 OAH       175.3010  139.0040  196.2250 O.co2     1 Y012318     0.0000 
     35 OAF       175.4950  137.2310  194.9760 O.co2     1 Y012318     0.0000 
@<TRIPOS>BOND
     1    1    2 1    
     2    2    3 1    
     3    2    4 1    
     4    4    5 1    
     5    5    6 1    
     6    6    7 1    
     7    7    8 1    
     8    7    9 1    
     9    9   10 1    
    10    9   13 1    
    11   10   11 1    
    12   11   12 1    
    13   12   13 1    
    14   12   18 1    
    15   13   14 1    
    16   13   15 1    
    17   15   16 1    
    18   16   17 1    
    19   17   18 1    
    20   17   23 1    
    21   18   19 1    
    22   19   20 1    
    23   20   21 2    
    24   21   22 1    
    25   21   23 1    
    26   22   27 1    
    27   23   24 1    
    28   23   25 1    
    29   25   26 1    
    30   26   27 1    
    31   27   28 1    
    32   28   29 1    
    33   29   30 2    
    34   29   31 1    
    35   31   32 1    
    36   32   33 1    
    37   33   34 ar   
    38   33   35 ar   
@<TRIPOS>SUBSTRUCTURE
     1 Y012318     1 GROUP   
@<TRIPOS>SET

