#    Name: 6kzp_2_Y01
#    Modification time : Fri May 22 19:31:06 2020

@<TRIPOS>MOLECULE
6kzp_2_Y01
   35    38     1     0     0
SMALL
NO_CHARGES


@<TRIPOS>ATOM
      1 CAA       191.3820  178.8930  183.1950 C.3       1 Y012317     0.0000 
      2 CBA       189.9480  178.9760  183.7470 C.3       1 Y012317     0.0000 
      3 CAB       189.4490  180.4160  183.6480 C.3       1 Y012317     0.0000 
      4 CAN       189.9350  178.5230  185.2260 C.3       1 Y012317     0.0000 
      5 CAJ       190.7640  179.5220  186.0920 C.3       1 Y012317     0.0000 
      6 CAO       192.2810  179.2400  185.8830 C.3       1 Y012317     0.0000 
      7 CBB       192.8980  178.6440  187.2210 C.3       1 Y012317     0.0000 
      8 CAC       191.8930  177.6330  187.8210 C.3       1 Y012317     0.0000 
      9 CBE       194.1400  177.9880  186.9600 C.3       1 Y012317     0.0000 
     10 CAP       194.9260  178.7050  185.8220 C.3       1 Y012317     0.0000 
     11 CAQ       196.5930  178.4940  186.2240 C.3       1 Y012317     0.0000 
     12 CBG       196.5850  178.0290  187.8000 C.3       1 Y012317     0.0000 
     13 CBI       195.1040  178.1180  188.2880 C.3       1 Y012317     0.0000 
     14 CAE       194.9380  179.5560  188.7520 C.3       1 Y012317     0.0000 
     15 CAU       194.9040  177.3430  189.4530 C.3       1 Y012317     0.0000 
     16 CAS       195.9610  177.7710  190.6520 C.3       1 Y012317     0.0000 
     17 CBF       197.3980  177.8700  190.1580 C.3       1 Y012317     0.0000 
     18 CBD       197.4810  178.6610  188.8580 C.3       1 Y012317     0.0000 
     19 CAK       198.9990  178.8040  188.2970 C.3       1 Y012317     0.0000 
     20 CAI       199.9080  179.4150  189.3500 C.2       1 Y012317     0.0000 
     21 CAZ       199.7120  178.8660  190.9350 C.2       1 Y012317     0.0000 
     22 CAV       200.4290  179.6050  192.0800 C.3       1 Y012317     0.0000 
     23 CBH       198.3380  178.5420  191.3610 C.3       1 Y012317     0.0000 
     24 CAD       197.6890  179.8620  191.7990 C.3       1 Y012317     0.0000 
     25 CAT       198.3440  177.6150  192.5870 C.3       1 Y012317     0.0000 
     26 CAR       199.0510  178.3080  193.7550 C.3       1 Y012317     0.0000 
     27 CBC       200.4120  178.7960  193.3730 C.3       1 Y012317     0.0000 
     28 OAW       200.9000  179.6270  194.4430 O.3       1 Y012317     0.0000 
     29 CAY       200.8680  179.0520  195.7440 C.2       1 Y012317     0.0000 
     30 OAG       200.6540  177.8910  195.8930 O.2       1 Y012317     0.0000 
     31 CAM       201.1200  179.9480  196.9810 C.3       1 Y012317     0.0000 
     32 CAL       200.7010  179.1880  198.2550 C.3       1 Y012317     0.0000 
     33 CAX       200.6190  180.1300  199.4650 C.2       1 Y012317     0.0000 
     34 OAH       201.4150  179.9790  200.4290 O.co2     1 Y012317     0.0000 
     35 OAF       199.7550  181.0440  199.4940 O.co2     1 Y012317     0.0000 
@<TRIPOS>BOND
     1    1    2 1    
     2    2    3 1    
     3    2    4 1    
     4    4    5 1    
     5    5    6 1    
     6    6    7 1    
     7    7    8 1    
     8    7    9 1    
     9    9   10 1    
    10    9   13 1    
    11   10   11 1    
    12   11   12 1    
    13   12   13 1    
    14   12   18 1    
    15   13   14 1    
    16   13   15 1    
    17   15   16 1    
    18   16   17 1    
    19   17   18 1    
    20   17   23 1    
    21   18   19 1    
    22   19   20 1    
    23   20   21 2    
    24   21   22 1    
    25   21   23 1    
    26   22   27 1    
    27   23   24 1    
    28   23   25 1    
    29   25   26 1    
    30   26   27 1    
    31   27   28 1    
    32   28   29 1    
    33   29   30 2    
    34   29   31 1    
    35   31   32 1    
    36   32   33 1    
    37   33   34 ar   
    38   33   35 ar   
@<TRIPOS>SUBSTRUCTURE
     1 Y012317     1 GROUP   
@<TRIPOS>SET

