#    Name: 6ps0_1_CAU
#    Modification time : Fri May 22 19:34:18 2020

@<TRIPOS>MOLECULE
6ps0_1_CAU
   22    24     1     0     0
SMALL
NO_CHARGES


@<TRIPOS>ATOM
      1 O17         3.3330    6.0330   48.5390 O.3       1 CAU1201     0.0000 
      2 C16         3.2180    4.9350   49.3910 C.3       1 CAU1201     0.0000 
      3 C18         3.1260    5.3190   50.8730 C.3       1 CAU1201     0.0000 
      4 N19         2.4510    6.5950   51.0610 N.4       1 CAU1201     0.0000 
      5 C20         2.1620    6.8440   52.4650 C.3       1 CAU1201     0.0000 
      6 C21         2.9090    8.0990   52.9160 C.3       1 CAU1201     0.0000 
      7 C22         0.6650    7.0880   52.6550 C.3       1 CAU1201     0.0000 
      8 C15         2.0330    4.0840   48.9670 C.3       1 CAU1201     0.0000 
      9 O14         2.5620    2.8430   48.5980 O.3       1 CAU1201     0.0000 
     10 C13         1.6290    1.8050   48.4340 C.ar      1 CAU1201     0.0000 
     11 C12         0.9820    1.6450   47.2080 C.ar      1 CAU1201     0.0000 
     12 C11         0.1050    0.5830   46.9990 C.ar      1 CAU1201     0.0000 
     13 C10        -0.1210   -0.3380   48.0190 C.ar      1 CAU1201     0.0000 
     14 C8          0.5450   -0.2020   49.2560 C.ar      1 CAU1201     0.0000 
     15 C9          1.4220    0.8480   49.4680 C.ar      1 CAU1201     0.0000 
     16 N7          0.5040   -0.9730   50.3930 N.pl3     1 CAU1201     0.0000 
     17 C3          1.3480   -0.4220   51.3240 C.ar      1 CAU1201     0.0000 
     18 C4          1.9290    0.7020   50.7590 C.ar      1 CAU1201     0.0000 
     19 C2          1.6450   -0.8020   52.6520 C.ar      1 CAU1201     0.0000 
     20 C1          2.5430   -0.0370   53.3920 C.ar      1 CAU1201     0.0000 
     21 C6          3.1360    1.0980   52.8290 C.ar      1 CAU1201     0.0000 
     22 C5          2.8480    1.4680   51.5150 C.ar      1 CAU1201     0.0000 
@<TRIPOS>BOND
     1    1    2 1    
     2    2    3 1    
     3    2    8 1    
     4    3    4 1    
     5    4    5 1    
     6    5    6 1    
     7    5    7 1    
     8    8    9 1    
     9    9   10 1    
    10   10   11 ar   
    11   10   15 ar   
    12   11   12 ar   
    13   12   13 ar   
    14   13   14 ar   
    15   14   15 ar   
    16   14   16 1    
    17   15   18 1    
    18   16   17 1    
    19   17   18 ar   
    20   17   19 ar   
    21   18   22 ar   
    22   19   20 ar   
    23   20   21 ar   
    24   21   22 ar   
@<TRIPOS>SUBSTRUCTURE
     1 CAU1201     1 GROUP   
@<TRIPOS>SET

