#    Name: 6ps0_1_CAU_CAVITY_N1_4
#    Modification time : Fri May 22 19:34:19 2020

@<TRIPOS>MOLECULE
6ps0_1_CAU_CAVITY_N1_4
   99     0     6     0     0
SMALL
NO_CHARGES


@<TRIPOS>ATOM
      1 OG         -0.5000    0.8800   46.5800 O.3       1 SER1        0.0000 
      2 OG          0.7700   -0.5900   49.7000 O.3       1 SER1        0.0000 
      3 OG          1.1400   -0.3000   51.1300 O.3       1 SER1        0.0000 
      4 OG          3.0300    8.0500   52.1200 O.3       1 SER1        0.0000 
      5 OG          4.8700   10.8000   52.6700 O.3       1 SER1        0.0000 
      6 OG          3.5100   -0.2500   55.2400 O.3       1 SER1        0.0000 
      7 OG          3.8800    0.0400   56.6600 O.3       1 SER1        0.0000 
      8 N           0.4000   -0.8700   48.2800 N.am      2 ALA2        0.0000 
      9 O           3.1300    0.1300   50.5300 O.2       2 ALA2        0.0000 
     10 O           2.4000   -1.1000   50.9600 O.2       2 ALA2        0.0000 
     11 N           3.1900    5.7200   50.9700 N.am      2 ALA2        0.0000 
     12 O           3.5000    0.4200   51.9500 O.2       2 ALA2        0.0000 
     13 O           2.7700   -0.8200   52.3900 O.2       2 ALA2        0.0000 
     14 N           4.8100    5.2100   52.2300 N.am      2 ALA2        0.0000 
     15 N           3.5600    6.0100   52.3900 N.am      2 ALA2        0.0000 
     16 N           4.6000    1.9400   52.9400 N.am      2 ALA2        0.0000 
     17 N           3.1400   -0.5300   53.8100 N.am      2 ALA2        0.0000 
     18 N           6.1200   10.0000   52.5000 N.am      2 ALA2        0.0000 
     19 N           4.1400    9.5700   53.1100 N.am      2 ALA2        0.0000 
     20 N           3.4000    8.3300   53.5500 N.am      2 ALA2        0.0000 
     21 N           5.1800    5.4900   53.6500 N.am      2 ALA2        0.0000 
     22 N           3.9300    6.3000   53.8200 N.am      2 ALA2        0.0000 
     23 N           4.9800    2.2200   54.3600 N.am      2 ALA2        0.0000 
     24 N           4.2400    0.9900   54.8000 N.am      2 ALA2        0.0000 
     25 N           6.2900    7.0100   54.6400 N.am      2 ALA2        0.0000 
     26 N           5.0300    7.8200   54.8000 N.am      2 ALA2        0.0000 
     27 N           5.3500    2.5100   55.7900 N.am      2 ALA2        0.0000 
     28 N           4.0900    3.3100   55.9500 N.am      2 ALA2        0.0000 
     29 N           4.6100    1.2700   56.2300 N.am      2 ALA2        0.0000 
     30 N           4.1500    8.9100   56.4000 N.am      2 ALA2        0.0000 
     31 N           2.8900    9.7100   56.5600 N.am      2 ALA2        0.0000 
     32 O           3.4100    7.6700   56.8300 O.2       2 ALA2        0.0000 
     33 NZ          2.4400    5.1500   48.1200 N.4       3 LYS4        0.0000 
     34 NZ          1.7100    3.9200   48.5600 N.4       3 LYS4        0.0000 
     35 NZ          0.4600    4.7200   48.7200 N.4       3 LYS4        0.0000 
     36 NZ          2.8100    5.4400   49.5400 N.4       3 LYS4        0.0000 
     37 NZ          2.0800    4.2100   49.9800 N.4       3 LYS4        0.0000 
     38 NZ          0.8300    5.0100   50.1500 N.4       3 LYS4        0.0000 
     39 NZ          1.9300    6.5300   51.1300 N.4       3 LYS4        0.0000 
     40 NZ          2.3000    6.8100   52.5600 N.4       3 LYS4        0.0000 
     41 NZ          1.0500    7.6200   52.7200 N.4       3 LYS4        0.0000 
     42 CZ          1.4900    1.3100   45.9800 C.ar      4 PHE5        0.0000 
     43 CZ          0.7600    0.0800   46.4200 C.ar      4 PHE5        0.0000 
     44 CZ          1.8600    1.6000   47.4000 C.ar      4 PHE5        0.0000 
     45 CZ          1.1300    0.3600   47.8400 C.ar      4 PHE5        0.0000 
     46 CZ          2.9700    3.1200   48.3900 C.ar      4 PHE5        0.0000 
     47 CZ          2.2300    1.8800   48.8300 C.ar      4 PHE5        0.0000 
     48 CZ          2.7600   -0.1600   49.1000 C.ar      4 PHE5        0.0000 
     49 CZ          1.5000    0.6500   49.2700 C.ar      4 PHE5        0.0000 
     50 CZ          3.3400    3.4000   49.8200 C.ar      4 PHE5        0.0000 
     51 CZ          3.8600    1.3600   50.0900 C.ar      4 PHE5        0.0000 
     52 CZ          2.6100    2.1700   50.2500 C.ar      4 PHE5        0.0000 
     53 CZ         -0.1100    0.5000   51.3000 C.ar      4 PHE5        0.0000 
     54 CZ          2.4500    4.4900   51.4100 C.ar      4 PHE5        0.0000 
     55 CZ          1.2000    5.2900   51.5700 C.ar      4 PHE5        0.0000 
     56 CZ          2.9800    2.4500   51.6800 C.ar      4 PHE5        0.0000 
     57 CZ          1.7200    3.2600   51.8400 C.ar      4 PHE5        0.0000 
     58 CZ          0.4700    4.0600   52.0100 C.ar      4 PHE5        0.0000 
     59 CZ          2.2400    1.2200   52.1200 C.ar      4 PHE5        0.0000 
     60 CZ          1.5100   -0.0100   52.5500 C.ar      4 PHE5        0.0000 
     61 CZ          4.0800    3.9700   52.6600 C.ar      4 PHE5        0.0000 
     62 CZ          2.8200    4.7800   52.8300 C.ar      4 PHE5        0.0000 
     63 CZ          1.5700    5.5800   53.0000 C.ar      4 PHE5        0.0000 
     64 CZ          3.3500    2.7400   53.1000 C.ar      4 PHE5        0.0000 
     65 CZ          2.6200    1.5100   53.5400 C.ar      4 PHE5        0.0000 
     66 CZ          1.8800    0.2700   53.9800 C.ar      4 PHE5        0.0000 
     67 CZ          1.4200    7.9000   54.1500 C.ar      4 PHE5        0.0000 
     68 CZ          5.7100    3.4500   53.9200 C.ar      4 PHE5        0.0000 
     69 CZ          4.4500    4.2600   54.0900 C.ar      4 PHE5        0.0000 
     70 CZ          3.2000    5.0600   54.2600 C.ar      4 PHE5        0.0000 
     71 CZ          3.7200    3.0200   54.5300 C.ar      4 PHE5        0.0000 
     72 CZ          2.9900    1.7900   54.9700 C.ar      4 PHE5        0.0000 
     73 CZ          4.5100    9.8500   54.5300 C.ar      4 PHE5        0.0000 
     74 CZ          3.7800    8.6200   54.9700 C.ar      4 PHE5        0.0000 
     75 CZ          2.5200    9.4200   55.1400 C.ar      4 PHE5        0.0000 
     76 CZ          1.7900    8.1900   55.5700 C.ar      4 PHE5        0.0000 
     77 CA          0.2400    2.1100   46.1400 C.3       5 GLY6        0.0000 
     78 CA          2.5900    2.8300   46.9700 C.3       5 GLY6        0.0000 
     79 CA          1.3400    3.6300   47.1300 C.3       5 GLY6        0.0000 
     80 CA          0.6100    2.4000   47.5700 C.3       5 GLY6        0.0000 
     81 CA         -0.1200    1.1700   48.0100 C.3       5 GLY6        0.0000 
     82 CA         -0.8600   -0.0700   48.4500 C.3       5 GLY6        0.0000 
     83 CA          0.9800    2.6900   48.9900 C.3       5 GLY6        0.0000 
     84 CA          0.2500    1.4500   49.4300 C.3       5 GLY6        0.0000 
     85 CA         -0.4900    0.2200   49.8700 C.3       5 GLY6        0.0000 
     86 CA          1.3500    2.9700   50.4200 C.3       5 GLY6        0.0000 
     87 CA          0.6200    1.7400   50.8600 C.3       5 GLY6        0.0000 
     88 CA         -0.0600    6.1000   51.7400 C.3       5 GLY6        0.0000 
     89 CA          2.0400   -2.0500   52.8300 C.3       5 GLY6        0.0000 
     90 CA          0.3100    6.3800   53.1600 C.3       5 GLY6        0.0000 
     91 CA          2.6700    7.1000   53.9800 C.3       5 GLY6        0.0000 
     92 CA          1.9400    5.8700   54.4200 C.3       5 GLY6        0.0000 
     93 CA          0.6800    6.6700   54.5900 C.3       5 GLY6        0.0000 
     94 CA          5.7600    9.0500   54.3700 C.3       5 GLY6        0.0000 
     95 CA          3.0400    7.3900   55.4100 C.3       5 GLY6        0.0000 
     96 CA          3.5700    5.3500   55.6800 C.3       5 GLY6        0.0000 
     97 DU          1.8700    0.9300   50.6900 H         6 CUB7        0.0000 
     98 DU          5.2400   11.0900   54.0900 H         6 CUB7        0.0000 
     99 DU          4.3000    6.5800   55.2400 H         6 CUB7        0.0000 
@<TRIPOS>BOND
@<TRIPOS>SUBSTRUCTURE
     1 SER1        1 GROUP   
     2 ALA2        8 GROUP   
     3 LYS4       33 GROUP   
     4 PHE5       42 GROUP   
     5 GLY6       77 GROUP   
     6 CUB7       97 GROUP   
@<TRIPOS>SET

