#    Name: 5zdl_1_ATP
#    Modification time : Fri May 22 19:26:49 2020

@<TRIPOS>MOLECULE
5zdl_1_ATP
   27    29     1     0     1
SMALL
NO_CHARGES


@<TRIPOS>ATOM
      1 PB         22.4640    4.4940   17.9790 P.3       1 ATP601      0.0000 
      2 O1B        21.4050    5.5870   17.3900 O.co2     1 ATP601      0.0000 
      3 O2B        22.3200    4.4760   19.4830 O.co2     1 ATP601      0.0000 
      4 O3B        23.8460    4.7810   17.4060 O.3       1 ATP601      0.0000 
      5 PA         22.5110    1.6230   17.7390 P.3       1 ATP601      0.0000 
      6 O1A        22.6650    0.8540   16.4700 O.co2     1 ATP601      0.0000 
      7 O2A        23.7660    1.7410   18.5640 O.co2     1 ATP601      0.0000 
      8 O3A        21.9180    3.0940   17.3440 O.3       1 ATP601      0.0000 
      9 O5'        21.3160    1.0530   18.6610 O.3       1 ATP601      0.0000 
     10 C5'        20.3200    0.1700   18.1300 C.3       1 ATP601      0.0000 
     11 C4'        18.9050    0.5050   18.5760 C.3       1 ATP601      0.0000 
     12 O4'        18.8570    0.8340   19.9620 O.3       1 ATP601      0.0000 
     13 C3'        18.3390    1.6770   17.7970 C.3       1 ATP601      0.0000 
     14 O3'        17.3760    1.2870   16.8090 O.3       1 ATP601      0.0000 
     15 C2'        17.6440    2.5290   18.8200 C.3       1 ATP601      0.0000 
     16 O2'        16.2750    2.6440   18.4150 O.3       1 ATP601      0.0000 
     17 C1'        17.8790    1.8470   20.1730 C.3       1 ATP601      0.0000 
     18 N9         18.3800    2.8530   21.1520 N.pl3     1 ATP601      0.0000 
     19 C8         19.5160    3.5510   21.0240 C.2       1 ATP601      0.0000 
     20 N7         19.6850    4.3990   22.0720 N.2       1 ATP601      0.0000 
     21 C5         18.6360    4.2580   22.8820 C.ar      1 ATP601      0.0000 
     22 C6         18.1990    4.8530   24.1440 C.ar      1 ATP601      0.0000 
     23 N6         18.9570    5.7910   24.7450 N.pl3     1 ATP601      0.0000 
     24 N1         17.0330    4.4290   24.6770 N.ar      1 ATP601      0.0000 
     25 C2         16.2710    3.4900   24.0820 C.ar      1 ATP601      0.0000 
     26 N3         16.6170    2.9050   22.9240 N.ar      1 ATP601      0.0000 
     27 C4         17.7730    3.2350   22.2840 C.ar      1 ATP601      0.0000 
@<TRIPOS>BOND
     1    1    2 ar   
     2    1    3 ar   
     3    1    4 1    
     4    1    8 1    
     5    5    6 ar   
     6    5    7 ar   
     7    5    8 1    
     8    5    9 1    
     9    9   10 1    
    10   10   11 1    
    11   11   12 1    
    12   11   13 1    
    13   12   17 1    
    14   13   14 1    
    15   13   15 1    
    16   15   16 1    
    17   15   17 1    
    18   17   18 1    
    19   18   19 1    
    20   18   27 1    
    21   19   20 2    
    22   20   21 1    
    23   21   22 ar   
    24   21   27 ar   
    25   22   23 1    
    26   22   24 ar   
    27   24   25 ar   
    28   25   26 ar   
    29   26   27 ar   
@<TRIPOS>SUBSTRUCTURE
     1 ATP601      1 GROUP   
@<TRIPOS>SET
ATOM$ORANGE STATIC     ATOMS   COLORGROUP SYSTEM 
20 10 10 11 11 13 13 15 15 17 17 19 19 21 21 22 22 25 \
25 27 27 

