#    Name: 6a3a_1_GTP
#    Modification time : Fri May 22 19:29:25 2020

@<TRIPOS>MOLECULE
6a3a_1_GTP
   32    34     1     0     1
SMALL
NO_CHARGES


@<TRIPOS>ATOM
      1 PG         60.0750  -15.7020   28.1610 P.3       1 GTP301      0.0000 
      2 O1G        60.2070  -16.9550   27.3270 O.co2     1 GTP301      0.0000 
      3 O2G        61.2310  -14.7470   27.9850 O.co2     1 GTP301      0.0000 
      4 O3G        59.6800  -15.9790   29.5930 O.co2     1 GTP301      0.0000 
      5 O3B        58.8010  -14.9460   27.5130 O.3       1 GTP301      0.0000 
      6 PB         58.3850  -13.4220   27.8120 P.3       1 GTP301      0.0000 
      7 O1B        59.6130  -12.5530   27.8890 O.co2     1 GTP301      0.0000 
      8 O2B        57.4320  -13.4580   28.9770 O.co2     1 GTP301      0.0000 
      9 O3A        57.5310  -13.0150   26.5070 O.3       1 GTP301      0.0000 
     10 PA         57.9910  -11.8140   25.5360 P.3       1 GTP301      0.0000 
     11 O1A        59.1640  -12.3060   24.7330 O.co2     1 GTP301      0.0000 
     12 O2A        58.1640  -10.5500   26.3340 O.co2     1 GTP301      0.0000 
     13 O5'        56.7330  -11.5610   24.5620 O.3       1 GTP301      0.0000 
     14 C5'        56.0020  -12.6370   23.9770 C.3       1 GTP301      0.0000 
     15 C4'        55.1310  -12.1730   22.8100 C.3       1 GTP301      0.0000 
     16 O4'        53.9670  -11.5060   23.3140 O.3       1 GTP301      0.0000 
     17 C3'        55.8300  -11.1940   21.8700 C.3       1 GTP301      0.0000 
     18 O3'        55.5350  -11.5100   20.5050 O.3       1 GTP301      0.0000 
     19 C2'        55.2440   -9.8480   22.2260 C.3       1 GTP301      0.0000 
     20 O2'        55.2150   -8.9400   21.1210 O.3       1 GTP301      0.0000 
     21 C1'        53.8520  -10.2140   22.7180 C.3       1 GTP301      0.0000 
     22 N9         53.3390   -9.2240   23.6920 N.pl3     1 GTP301      0.0000 
     23 C8         53.9710   -8.7480   24.7850 C.2       1 GTP301      0.0000 
     24 N7         53.1930   -7.8490   25.4360 N.2       1 GTP301      0.0000 
     25 C5         52.0400   -7.7470   24.7570 C.2       1 GTP301      0.0000 
     26 C6         50.7790   -6.9840   24.8920 C.2       1 GTP301      0.0000 
     27 O6         50.6010   -6.1840   25.8340 O.2       1 GTP301      0.0000 
     28 N1         49.8280   -7.1740   23.9650 N.am      1 GTP301      0.0000 
     29 C2         49.9790   -8.0240   22.9270 C.2       1 GTP301      0.0000 
     30 N2         48.9710   -8.1530   22.0360 N.pl3     1 GTP301      0.0000 
     31 N3         51.1060   -8.7610   22.7380 N.2       1 GTP301      0.0000 
     32 C4         52.1430   -8.6570   23.6050 C.2       1 GTP301      0.0000 
@<TRIPOS>BOND
     1    1    2 ar   
     2    1    3 ar   
     3    1    4 ar   
     4    1    5 1    
     5    5    6 1    
     6    6    7 ar   
     7    6    8 ar   
     8    6    9 1    
     9    9   10 1    
    10   10   11 ar   
    11   10   12 ar   
    12   10   13 1    
    13   13   14 1    
    14   14   15 1    
    15   15   16 1    
    16   15   17 1    
    17   16   21 1    
    18   17   18 1    
    19   17   19 1    
    20   19   20 1    
    21   19   21 1    
    22   21   22 1    
    23   22   23 1    
    24   22   32 1    
    25   23   24 2    
    26   24   25 1    
    27   25   26 1    
    28   25   32 2    
    29   26   27 2    
    30   26   28 am   
    31   28   29 1    
    32   29   30 1    
    33   29   31 2    
    34   31   32 1    
@<TRIPOS>SUBSTRUCTURE
     1 GTP301      1 GROUP   
@<TRIPOS>SET
ATOM$ORANGE STATIC     ATOMS   COLORGROUP SYSTEM 
20 14 14 15 15 17 17 19 19 21 21 23 23 25 25 26 26 29 \
29 32 32 

