#    Name: 6a3a_1_GTP_CAVITY_N1_ALL
#    Modification time : Fri May 22 19:29:27 2020

@<TRIPOS>MOLECULE
6a3a_1_GTP_CAVITY_N1_ALL
   75     0     7     0     0
SMALL
NO_CHARGES


@<TRIPOS>ATOM
      1 OG         55.6500  -11.2600   22.7300 O.3       1 SER1        0.0000 
      2 OG         58.0800  -11.6100   23.5900 O.3       1 SER1        0.0000 
      3 OG         57.5900  -10.4000   22.8400 O.3       1 SER1        0.0000 
      4 OG         56.8600  -11.5700   24.4600 O.3       1 SER1        0.0000 
      5 OG         55.8800   -9.1600   22.9600 O.3       1 SER1        0.0000 
      6 OG         55.1400  -10.3200   24.5700 O.3       1 SER1        0.0000 
      7 OG         54.6600   -9.1200   23.8200 O.3       1 SER1        0.0000 
      8 OG         60.0200  -10.7600   23.7000 O.3       1 SER1        0.0000 
      9 OG         59.5300   -9.5500   22.9500 O.3       1 SER1        0.0000 
     10 N          54.4500  -10.9500   21.0100 N.am      2 ALA2        0.0000 
     11 N          53.9700   -9.7400   20.2600 N.am      2 ALA2        0.0000 
     12 N          53.4800   -8.5400   19.5100 N.am      2 ALA2        0.0000 
     13 N          54.2000  -13.3100   23.3800 N.am      2 ALA2        0.0000 
     14 N          56.8800  -11.3000   21.8700 N.am      2 ALA2        0.0000 
     15 N          56.3900  -10.0900   21.1200 N.am      2 ALA2        0.0000 
     16 N          55.1700  -10.0500   21.9800 N.am      2 ALA2        0.0000 
     17 N          54.6800   -8.8500   21.2300 N.am      2 ALA2        0.0000 
     18 N          54.9200  -12.4200   24.3500 N.am      2 ALA2        0.0000 
     19 N          59.3100  -11.6500   22.7300 N.am      2 ALA2        0.0000 
     20 O          56.1200  -12.7300   26.0700 O.2       2 ALA2        0.0000 
     21 O          51.7200   -7.8300   24.7900 O.2       2 ALA2        0.0000 
     22 N          61.2500  -10.8000   22.8400 N.am      2 ALA2        0.0000 
     23 OD1        51.2900  -11.7500   21.7700 O.co2     3 ASP3        0.0000 
     24 OD1        49.8300   -8.1400   19.5200 O.co2     3 ASP3        0.0000 
     25 OD1        50.0600  -11.7100   22.6300 O.co2     3 ASP3        0.0000 
     26 OD1        53.7100  -12.1100   22.6300 O.co2     3 ASP3        0.0000 
     27 OD1        53.2300  -10.9000   21.8800 O.co2     3 ASP3        0.0000 
     28 OD1        52.0000  -10.8600   22.7400 O.co2     3 ASP3        0.0000 
     29 OD1        54.4300  -11.2100   23.6000 O.co2     3 ASP3        0.0000 
     30 OD1        58.5400  -13.0800   26.9300 O.co2     3 ASP3        0.0000 
     31 NZ         48.6000   -8.1000   20.3800 N.4       4 LYS4        0.0000 
     32 NZ         49.8000   -8.4100   22.1000 N.4       4 LYS4        0.0000 
     33 NZ         49.3100   -7.2100   21.3500 N.4       4 LYS4        0.0000 
     34 NZ         48.5800   -8.3700   22.9700 N.4       4 LYS4        0.0000 
     35 NZ         50.5200   -7.5200   23.0700 N.4       4 LYS4        0.0000 
     36 CZ         55.9100  -14.5600   23.2600 C.ar      5 PHE5        0.0000 
     37 CZ         52.2500   -8.5000   20.3800 C.ar      5 PHE5        0.0000 
     38 CZ         51.7700   -7.2900   19.6300 C.ar      5 PHE5        0.0000 
     39 CZ         51.0300   -8.4500   21.2400 C.ar      5 PHE5        0.0000 
     40 CZ         56.6300  -13.6600   24.2400 C.ar      5 PHE5        0.0000 
     41 CZ         56.1400  -12.4600   23.4800 C.ar      5 PHE5        0.0000 
     42 CZ         53.4500   -8.8100   22.1000 C.ar      5 PHE5        0.0000 
     43 CZ         52.2300   -8.7600   22.9600 C.ar      5 PHE5        0.0000 
     44 CZ         51.7400   -7.5600   22.2100 C.ar      5 PHE5        0.0000 
     45 CZ         58.5700  -12.8100   24.3400 C.ar      5 PHE5        0.0000 
     46 CZ         57.8300  -13.9800   25.9600 C.ar      5 PHE5        0.0000 
     47 CZ         57.3400  -12.7700   25.2100 C.ar      5 PHE5        0.0000 
     48 CZ         54.1700   -7.9100   23.0700 C.ar      5 PHE5        0.0000 
     49 CZ         52.9400   -7.8700   23.9300 C.ar      5 PHE5        0.0000 
     50 CZ         53.6600   -6.9800   24.9000 C.ar      5 PHE5        0.0000 
     51 CA         49.5700  -10.5100   21.8800 C.3       6 GLY6        0.0000 
     52 CA         49.0900   -9.3000   21.1300 C.3       6 GLY6        0.0000 
     53 CA         56.1700  -12.1900   20.9000 C.3       6 GLY6        0.0000 
     54 CA         55.4300  -13.3500   22.5100 C.3       6 GLY6        0.0000 
     55 CA         51.5100   -9.6600   21.9900 C.3       6 GLY6        0.0000 
     56 CA         50.5400   -7.2500   20.4900 C.3       6 GLY6        0.0000 
     57 CA         50.2900   -9.6200   22.8500 C.3       6 GLY6        0.0000 
     58 CA         57.3700  -12.5000   22.6200 C.3       6 GLY6        0.0000 
     59 CA         52.7200   -9.9700   23.7100 C.3       6 GLY6        0.0000 
     60 CA         51.0000   -8.7200   23.8200 C.3       6 GLY6        0.0000 
     61 CA         55.6300  -11.5300   25.3200 C.3       6 GLY6        0.0000 
     62 CA         53.9200  -10.2800   25.4300 C.3       6 GLY6        0.0000 
     63 CA         53.4300   -9.0700   24.6800 C.3       6 GLY6        0.0000 
     64 CA         52.2000   -9.0300   25.5500 C.3       6 GLY6        0.0000 
     65 CA         51.2300   -6.6200   24.0400 C.3       6 GLY6        0.0000 
     66 CA         59.2800  -11.9200   25.3100 C.3       6 GLY6        0.0000 
     67 CA         58.0600  -11.8800   26.1800 C.3       6 GLY6        0.0000 
     68 CA         54.1400   -8.1800   25.6500 C.3       6 GLY6        0.0000 
     69 DU         52.0300  -10.5900   20.1600 H         7 CUB7        0.0000 
     70 DU         51.5400   -9.3900   19.4100 H         7 CUB7        0.0000 
     71 DU         50.8000  -10.5500   21.0200 H         7 CUB7        0.0000 
     72 DU         50.3100   -9.3500   20.2700 H         7 CUB7        0.0000 
     73 DU         54.9400  -12.1500   21.7600 H         7 CUB7        0.0000 
     74 DU         52.7400   -9.7000   21.1300 H         7 CUB7        0.0000 
     75 DU         53.9400  -10.0100   22.8500 H         7 CUB7        0.0000 
@<TRIPOS>BOND
@<TRIPOS>SUBSTRUCTURE
     1 SER1        1 GROUP   
     2 ALA2       10 GROUP   
     3 ASP3       23 GROUP   
     4 LYS4       31 GROUP   
     5 PHE5       36 GROUP   
     6 GLY6       51 GROUP   
     7 CUB7       69 GROUP   
@<TRIPOS>SET

