#    Name: 6g9b_1_IXX
#    Modification time : Fri May 22 19:25:36 2020

@<TRIPOS>MOLECULE
6g9b_1_IXX
   21    23     1     0     0
SMALL
NO_CHARGES


@<TRIPOS>ATOM
      1 C11       -48.7760   11.5450   -2.8590 C.ar      1 IXX609      0.0000 
      2 C10       -49.1120   12.4740   -1.8700 C.ar      1 IXX609      0.0000 
      3 C9        -50.4270   12.5650   -1.4030 C.ar      1 IXX609      0.0000 
      4 C8        -51.4050   11.7340   -1.9100 C.ar      1 IXX609      0.0000 
      5 C7        -51.0830   10.8010   -2.8930 C.ar      1 IXX609      0.0000 
      6 C2        -46.8760   13.5070   -6.6200 C.ar      1 IXX609      0.0000 
      7 C6        -49.4420    9.6550   -4.4720 C.3       1 IXX609      0.0000 
      8 C5        -48.0160    9.6640   -5.0370 C.3       1 IXX609      0.0000 
      9 N1        -47.4100   11.3400   -3.4420 N.pl3     1 IXX609      0.0000 
     10 C3        -47.2350   12.5320   -7.5630 C.ar      1 IXX609      0.0000 
     11 N2        -44.3310    9.8550    0.0590 N.4       1 IXX609      0.0000 
     12 C4        -47.6170   11.2640   -7.1330 C.ar      1 IXX609      0.0000 
     13 C1        -46.9000   13.2050   -5.2450 C.ar      1 IXX609      0.0000 
     14 C12       -49.7650   10.7090   -3.3550 C.ar      1 IXX609      0.0000 
     15 C13       -47.6490   10.9620   -5.7400 C.ar      1 IXX609      0.0000 
     16 C14       -47.2910   11.9190   -4.8170 C.ar      1 IXX609      0.0000 
     17 C15       -46.4000   11.8640   -2.5460 C.3       1 IXX609      0.0000 
     18 C16       -45.9900   10.6890   -1.5730 C.3       1 IXX609      0.0000 
     19 C17       -44.6770   11.0290   -0.8350 C.3       1 IXX609      0.0000 
     20 C18       -43.3870    8.9890   -0.6290 C.3       1 IXX609      0.0000 
     21 C19       -43.7640   10.3360    1.3190 C.3       1 IXX609      0.0000 
@<TRIPOS>BOND
     1    1    2 ar   
     2    1    9 1    
     3    1   14 ar   
     4    2    3 ar   
     5    3    4 ar   
     6    4    5 ar   
     7    5   14 ar   
     8    6   10 ar   
     9    6   13 ar   
    10    7    8 1    
    11    7   14 1    
    12    8   15 1    
    13    9   16 1    
    14    9   17 1    
    15   10   12 ar   
    16   11   19 1    
    17   11   20 1    
    18   11   21 1    
    19   12   15 ar   
    20   13   16 ar   
    21   15   16 ar   
    22   17   18 1    
    23   18   19 1    
@<TRIPOS>SUBSTRUCTURE
     1 IXX609      1 GROUP   
@<TRIPOS>SET

