#    Name: 6g9b_2_IXX
#    Modification time : Fri May 22 19:25:43 2020

@<TRIPOS>MOLECULE
6g9b_2_IXX
   21    23     1     0     0
SMALL
NO_CHARGES


@<TRIPOS>ATOM
      1 C11       -42.9520   15.2540   -7.1820 C.ar      1 IXX705      0.0000 
      2 C10       -43.1830   14.3390   -8.2100 C.ar      1 IXX705      0.0000 
      3 C9        -44.3310   14.4540   -8.9960 C.ar      1 IXX705      0.0000 
      4 C8        -45.2380   15.4670   -8.7640 C.ar      1 IXX705      0.0000 
      5 C7        -45.0160   16.3820   -7.7400 C.ar      1 IXX705      0.0000 
      6 C2        -42.5420   13.1860   -3.0690 C.ar      1 IXX705      0.0000 
      7 C6        -43.6190   17.2970   -5.7950 C.3       1 IXX705      0.0000 
      8 C5        -42.4230   17.1020   -4.8480 C.3       1 IXX705      0.0000 
      9 N1        -41.7950   15.3040   -6.2370 N.pl3     1 IXX705      0.0000 
     10 C3        -42.9180   14.2570   -2.2410 C.ar      1 IXX705      0.0000 
     11 N2        -37.7120   17.4240   -7.7350 N.4       1 IXX705      0.0000 
     12 C4        -42.9100   15.5570   -2.7320 C.ar      1 IXX705      0.0000 
     13 C1        -42.1550   13.4220   -4.4020 C.ar      1 IXX705      0.0000 
     14 C12       -43.8650   16.2640   -6.9560 C.ar      1 IXX705      0.0000 
     15 C13       -42.5190   15.7930   -4.0810 C.ar      1 IXX705      0.0000 
     16 C14       -42.1420   14.7450   -4.8920 C.ar      1 IXX705      0.0000 
     17 C15       -40.5290   14.8790   -6.8030 C.3       1 IXX705      0.0000 
     18 C16       -39.8500   16.1520   -7.4590 C.3       1 IXX705      0.0000 
     19 C17       -38.3080   16.0900   -7.3170 C.3       1 IXX705      0.0000 
     20 C18       -38.0360   18.4320   -6.7370 C.3       1 IXX705      0.0000 
     21 C19       -36.2610   17.2910   -7.8710 C.3       1 IXX705      0.0000 
@<TRIPOS>BOND
     1    2    3 ar   
     2    3    4 ar   
     3    4    5 ar   
     4    5   14 ar   
     5    6   10 ar   
     6    6   13 ar   
     7    7    8 1    
     8    7   14 1    
     9    8   15 1    
    10    9   16 1    
    11    9   17 1    
    12   10   12 ar   
    13   11   19 1    
    14   11   20 1    
    15   11   21 1    
    16   12   15 ar   
    17   13   16 ar   
    18   15   16 ar   
    19   17   18 1    
    20   18   19 1    
    21    1    2 ar   
    22    1    9 1    
    23    1   14 ar   
@<TRIPOS>SUBSTRUCTURE
     1 IXX705      1 GROUP   
@<TRIPOS>SET

