#    Name: 6or5_1_ANP
#    Modification time : Fri May 22 19:28:04 2020

@<TRIPOS>MOLECULE
6or5_1_ANP
   31    33     1     0     1
SMALL
NO_CHARGES


@<TRIPOS>ATOM
      1 PG        149.7260  107.1050  148.2440 P.3       1 ANP7202     0.0000 
      2 O1G       151.1620  107.6570  147.9030 O.co2     1 ANP7202     0.0000 
      3 O2G       149.7500  105.6100  148.2910 O.co2     1 ANP7202     0.0000 
      4 O3G       149.2940  107.6550  149.6600 O.co2     1 ANP7202     0.0000 
      5 PB        147.8190  108.9960  147.5180 P.3       1 ANP7202     0.0000 
      6 O1B       148.7410  110.1690  147.4430 O.co2     1 ANP7202     0.0000 
      7 O2B       147.3450  108.8280  148.9930 O.co2     1 ANP7202     0.0000 
      8 N3B       148.6350  107.6060  147.0480 N.3       1 ANP7202     0.0000 
      9 PA        146.7390  110.0880  145.2630 P.3       1 ANP7202     0.0000 
     10 O1A       146.8520  109.2200  144.0730 O.co2     1 ANP7202     0.0000 
     11 O2A       147.8820  111.0760  145.5020 O.co2     1 ANP7202     0.0000 
     12 O3A       146.5900  109.2250  146.5810 O.3       1 ANP7202     0.0000 
     13 O5'       145.3820  110.8530  145.1330 O.3       1 ANP7202     0.0000 
     14 C5'       145.0760  111.6290  143.9680 C.3       1 ANP7202     0.0000 
     15 C4'       143.6030  111.4770  143.7310 C.3       1 ANP7202     0.0000 
     16 O4'       143.1280  112.5590  142.9050 O.3       1 ANP7202     0.0000 
     17 C3'       143.2140  110.1900  143.0110 C.3       1 ANP7202     0.0000 
     18 O3'       141.9470  109.7230  143.4520 O.3       1 ANP7202     0.0000 
     19 C2'       143.1040  110.6410  141.5630 C.3       1 ANP7202     0.0000 
     20 O2'       142.1930  109.8070  140.8610 O.3       1 ANP7202     0.0000 
     21 C1'       142.5090  112.0290  141.7530 C.3       1 ANP7202     0.0000 
     22 N9        142.7550  112.9370  140.6490 N.pl3     1 ANP7202     0.0000 
     23 C8        143.4900  114.0910  140.6820 C.2       1 ANP7202     0.0000 
     24 N7        143.5470  114.7220  139.5370 N.2       1 ANP7202     0.0000 
     25 C5        142.7950  113.9260  138.6850 C.ar      1 ANP7202     0.0000 
     26 C6        142.4660  114.0420  137.3250 C.ar      1 ANP7202     0.0000 
     27 N6        142.8720  115.0460  136.5470 N.pl3     1 ANP7202     0.0000 
     28 N1        141.6900  113.0770  136.7820 N.ar      1 ANP7202     0.0000 
     29 C2        141.2800  112.0700  137.5560 C.ar      1 ANP7202     0.0000 
     30 N3        141.5270  111.8560  138.8490 N.ar      1 ANP7202     0.0000 
     31 C4        142.2990  112.8270  139.3610 C.ar      1 ANP7202     0.0000 
@<TRIPOS>BOND
     1    1    2 ar   
     2    1    3 ar   
     3    1    4 ar   
     4    1    8 1    
     5    5    6 ar   
     6    5    7 ar   
     7    5    8 1    
     8    5   12 1    
     9    9   10 ar   
    10    9   11 ar   
    11    9   12 1    
    12    9   13 1    
    13   13   14 1    
    14   14   15 1    
    15   15   16 1    
    16   15   17 1    
    17   16   21 1    
    18   17   18 1    
    19   17   19 1    
    20   19   20 1    
    21   19   21 1    
    22   21   22 1    
    23   22   23 1    
    24   22   31 1    
    25   23   24 2    
    26   24   25 1    
    27   25   26 ar   
    28   25   31 ar   
    29   26   27 1    
    30   26   28 ar   
    31   28   29 ar   
    32   29   30 ar   
    33   30   31 ar   
@<TRIPOS>SUBSTRUCTURE
     1 ANP7202     1 GROUP   
@<TRIPOS>SET
ATOM$ORANGE STATIC     ATOMS   COLORGROUP SYSTEM 
20 14 14 15 15 17 17 19 19 21 21 23 23 25 25 26 26 29 \
29 31 31 

