#    Name: 6or5_2_ANP_CAVITY_N1_4
#    Modification time : Fri May 22 19:29:08 2020

@<TRIPOS>MOLECULE
6or5_2_ANP_CAVITY_N1_4
   34     0     3     0     0
SMALL
NO_CHARGES


@<TRIPOS>ATOM
      1 O         186.8900   96.9300  176.2300 O.2       1 ALA2        0.0000 
      2 N         188.5300   89.4100  191.5000 N.am      1 ALA2        0.0000 
      3 N         187.3500   90.3200  191.6300 N.am      1 ALA2        0.0000 
      4 N         188.3600   88.9700  192.9200 N.am      1 ALA2        0.0000 
      5 N         187.1700   89.8900  193.0600 N.am      1 ALA2        0.0000 
      6 N         186.0900   97.6500  181.0900 N.am      1 ALA2        0.0000 
      7 N         184.9100   98.5600  181.2200 N.am      1 ALA2        0.0000 
      8 N         190.6200   89.6000  191.8100 N.am      1 ALA2        0.0000 
      9 N         188.2600   91.4300  192.0800 N.am      1 ALA2        0.0000 
     10 N         187.1500   95.2300  189.9500 N.am      1 ALA2        0.0000 
     11 N         189.1600   92.5300  192.5300 N.am      1 ALA2        0.0000 
     12 CA        188.0700   96.0100  176.0900 C.3       2 GLY6        0.0000 
     13 CA        187.7200   95.1400  178.9400 C.3       2 GLY6        0.0000 
     14 CA        186.5400   96.0600  179.0800 C.3       2 GLY6        0.0000 
     15 CA        185.3600   96.9700  179.2100 C.3       2 GLY6        0.0000 
     16 CA        189.8800   88.9300  189.9400 C.3       2 GLY6        0.0000 
     17 CA        189.7100   88.4900  191.3600 C.3       2 GLY6        0.0000 
     18 CA        186.6100   98.9500  176.8100 C.3       2 GLY6        0.0000 
     19 CA        186.4400   98.5100  178.2300 C.3       2 GLY6        0.0000 
     20 CA        186.2700   98.0800  179.6600 C.3       2 GLY6        0.0000 
     21 CA        187.2800   96.7300  180.9500 C.3       2 GLY6        0.0000 
     22 CA        188.6000   92.3000  189.2300 C.3       2 GLY6        0.0000 
     23 CA        187.4200   93.2100  189.3700 C.3       2 GLY6        0.0000 
     24 CA        190.7900   90.0300  190.3900 C.3       2 GLY6        0.0000 
     25 CA        189.6100   90.9500  190.5200 C.3       2 GLY6        0.0000 
     26 CA        187.2500   92.7800  190.7900 C.3       2 GLY6        0.0000 
     27 CA        187.0700   92.3400  192.2200 C.3       2 GLY6        0.0000 
     28 CA        187.1800   99.1900  180.1100 C.3       2 GLY6        0.0000 
     29 CA        188.1600   93.8800  191.2400 C.3       2 GLY6        0.0000 
     30 CA        187.9800   93.4500  192.6600 C.3       2 GLY6        0.0000 
     31 DU        186.7100   96.4900  177.6500 H         3 CUB7        0.0000 
     32 DU        187.4500   97.1600  179.5200 H         3 CUB7        0.0000 
     33 DU        188.4300   91.8600  190.6600 H         3 CUB7        0.0000 
     34 DU        189.3400   92.9700  191.1000 H         3 CUB7        0.0000 
@<TRIPOS>BOND
@<TRIPOS>SUBSTRUCTURE
     1 ALA2        1 GROUP   
     2 GLY6       12 GROUP   
     3 CUB7       31 GROUP   
@<TRIPOS>SET

