#    Name: 6or5_2_ANP
#    Modification time : Fri May 22 19:29:06 2020

@<TRIPOS>MOLECULE
6or5_2_ANP
   31    33     1     0     1
SMALL
NO_CHARGES


@<TRIPOS>ATOM
      1 PG        189.7920   97.8160  180.1210 P.3       1 ANP7204     0.0000 
      2 O1G       189.8270   96.8700  178.8600 O.co2     1 ANP7204     0.0000 
      3 O2G       191.1720   98.5460  180.3040 O.co2     1 ANP7204     0.0000 
      4 O3G       188.7060   98.8250  180.0090 O.co2     1 ANP7204     0.0000 
      5 PB        191.0250   96.2680  181.8280 P.3       1 ANP7204     0.0000 
      6 O1B       191.7200   95.9720  180.5490 O.co2     1 ANP7204     0.0000 
      7 O2B       191.8190   97.3030  182.6680 O.co2     1 ANP7204     0.0000 
      8 N3B       189.5260   96.8900  181.4900 N.3       1 ANP7204     0.0000 
      9 PA        190.0340   95.3250  183.9600 P.3       1 ANP7204     0.0000 
     10 O1A       188.7500   96.0550  183.5620 O.co2     1 ANP7204     0.0000 
     11 O2A       189.8730   94.1350  184.8110 O.co2     1 ANP7204     0.0000 
     12 O3A       190.8060   94.9950  182.6560 O.3       1 ANP7204     0.0000 
     13 O5'       190.9850   96.3110  184.7040 O.3       1 ANP7204     0.0000 
     14 C5'       191.0250   96.3030  186.1290 C.3       1 ANP7204     0.0000 
     15 C4'       192.4590   96.1740  186.5550 C.3       1 ANP7204     0.0000 
     16 O4'       192.5160   96.1530  187.9940 O.3       1 ANP7204     0.0000 
     17 C3'       193.1490   94.8930  186.1050 C.3       1 ANP7204     0.0000 
     18 O3'       194.5540   95.0750  186.0080 O.3       1 ANP7204     0.0000 
     19 C2'       192.8340   93.9390  187.2470 C.3       1 ANP7204     0.0000 
     20 O2'       193.8570   92.9660  187.3810 O.3       1 ANP7204     0.0000 
     21 C1'       192.9170   94.8770  188.4440 C.3       1 ANP7204     0.0000 
     22 N9        192.0580   94.5040  189.5460 N.pl3     1 ANP7204     0.0000 
     23 C8        190.9910   95.2070  190.0300 C.2       1 ANP7204     0.0000 
     24 N7        190.3970   94.6400  191.0490 N.2       1 ANP7204     0.0000 
     25 C5        191.1160   93.4730  191.2390 C.ar      1 ANP7204     0.0000 
     26 C6        190.9920   92.4230  192.1660 C.ar      1 ANP7204     0.0000 
     27 N6        190.0520   92.3750  193.1110 N.pl3     1 ANP7204     0.0000 
     28 N1        191.8750   91.4060  192.0830 N.ar      1 ANP7204     0.0000 
     29 C2        192.8180   91.4480  191.1410 C.ar      1 ANP7204     0.0000 
     30 N3        193.0350   92.3860  190.2170 N.ar      1 ANP7204     0.0000 
     31 C4        192.1440   93.3770  190.3210 C.ar      1 ANP7204     0.0000 
@<TRIPOS>BOND
     1    1    2 ar   
     2    1    3 ar   
     3    1    4 ar   
     4    1    8 1    
     5    5    6 ar   
     6    5    7 ar   
     7    5    8 1    
     8    5   12 1    
     9    9   10 ar   
    10    9   11 ar   
    11    9   12 1    
    12    9   13 1    
    13   13   14 1    
    14   14   15 1    
    15   15   16 1    
    16   15   17 1    
    17   16   21 1    
    18   17   18 1    
    19   17   19 1    
    20   19   20 1    
    21   19   21 1    
    22   21   22 1    
    23   22   23 1    
    24   22   31 1    
    25   23   24 2    
    26   24   25 1    
    27   25   26 ar   
    28   25   31 ar   
    29   26   27 1    
    30   26   28 ar   
    31   28   29 ar   
    32   29   30 ar   
    33   30   31 ar   
@<TRIPOS>SUBSTRUCTURE
     1 ANP7204     1 GROUP   
@<TRIPOS>SET
ATOM$ORANGE STATIC     ATOMS   COLORGROUP SYSTEM 
20 14 14 15 15 17 17 19 19 21 21 23 23 25 25 26 26 29 \
29 31 31 

