#    Name: 6f4x_2_FMC_CAVITY_N1_6
#    Modification time : Fri May 22 19:26:14 2020

@<TRIPOS>MOLECULE
6f4x_2_FMC_CAVITY_N1_6
   18     0     5     0     0
SMALL
NO_CHARGES


@<TRIPOS>ATOM
      1 OG         10.3200   12.0200   -7.5400 O.3       1 SER1        0.0000 
      2 OG         11.5800   11.2100   -7.5200 O.3       1 SER1        0.0000 
      3 N          10.0300    8.9000   -3.9800 N.am      2 ALA2        0.0000 
      4 N          10.5500    9.6700   -5.1600 N.am      2 ALA2        0.0000 
      5 OD1        11.8100    8.8500   -5.1500 O.co2     3 ASP3        0.0000 
      6 OD1         8.5500   12.0700   -6.3800 O.co2     3 ASP3        0.0000 
      7 OD1         9.8000   11.2600   -6.3600 O.co2     3 ASP3        0.0000 
      8 OD1        12.3200    9.6200   -6.3200 O.co2     3 ASP3        0.0000 
      9 OD1         7.8000   13.6600   -7.5800 O.co2     3 ASP3        0.0000 
     10 OD1         9.0600   12.8400   -7.5600 O.co2     3 ASP3        0.0000 
     11 OD1        11.6900   11.4400   -5.4200 O.co2     3 ASP3        0.0000 
     12 CA         12.4300    7.0400   -6.0500 C.3       4 GLY6        0.0000 
     13 CA         11.2900    8.0800   -3.9700 C.3       4 GLY6        0.0000 
     14 CA          8.3200   14.4300   -8.7600 C.3       4 GLY6        0.0000 
     15 CA          9.5800   13.6100   -8.7400 C.3       4 GLY6        0.0000 
     16 CA         10.0900   14.3800   -9.9200 C.3       4 GLY6        0.0000 
     17 CA         12.2100   12.2100   -6.6000 C.3       4 GLY6        0.0000 
     18 DU         11.0600   10.4400   -6.3400 H         5 CUB7        0.0000 
@<TRIPOS>BOND
@<TRIPOS>SUBSTRUCTURE
     1 SER1        1 GROUP   
     2 ALA2        3 GROUP   
     3 ASP3        5 GROUP   
     4 GLY6       12 GROUP   
     5 CUB7       18 GROUP   
@<TRIPOS>SET

