#    Name: 6f4x_2_FMC
#    Modification time : Fri May 22 19:26:13 2020

@<TRIPOS>MOLECULE
6f4x_2_FMC
   19    21     1     0     0
SMALL
NO_CHARGES


@<TRIPOS>ATOM
      1 N1         14.1970    6.7690  -10.7570 N.ar      1 FMC301      0.0000 
      2 C2         13.8160    8.0630  -10.5380 C.ar      1 FMC301      0.0000 
      3 N3         12.6720    8.5410  -11.0990 N.ar      1 FMC301      0.0000 
      4 C4         11.9000    7.7340  -11.8700 C.ar      1 FMC301      0.0000 
      5 C5         12.2690    6.4570  -12.0800 C.ar      1 FMC301      0.0000 
      6 C6         13.4330    5.9720  -11.5130 C.ar      1 FMC301      0.0000 
      7 N6         14.1870    4.7640  -11.4680 N.pl3     1 FMC301      0.0000 
      8 N7         11.3370    5.8580  -12.8890 N.pl3     1 FMC301      0.0000 
      9 N8         10.3720    6.7960  -13.1650 N.2       1 FMC301      0.0000 
     10 C9         10.7050    7.9600  -12.5530 C.2       1 FMC301      0.0000 
     11 C1'         9.9890    9.1580  -12.5440 C.3       1 FMC301      0.0000 
     12 C2'         8.7820    9.1790  -13.4730 C.3       1 FMC301      0.0000 
     13 O2'         8.4950   10.5300  -13.7910 O.3       1 FMC301      0.0000 
     14 C3'         7.6640    8.6150  -12.5790 C.3       1 FMC301      0.0000 
     15 O3'         6.3990    9.2260  -12.7700 O.3       1 FMC301      0.0000 
     16 C4'         8.1590    8.7850  -11.1420 C.3       1 FMC301      0.0000 
     17 O4'         9.4890    9.3650  -11.2480 O.3       1 FMC301      0.0000 
     18 C5'         8.2060    7.5020  -10.3410 C.3       1 FMC301      0.0000 
     19 O5'         8.6300    7.7360   -9.0070 O.3       1 FMC301      0.0000 
@<TRIPOS>BOND
     1    1    2 ar   
     2    1    6 ar   
     3    2    3 ar   
     4    3    4 ar   
     5    4    5 ar   
     6    4   10 1    
     7    5    6 ar   
     8    5    8 1    
     9    6    7 1    
    10    8    9 1    
    11    9   10 2    
    12   10   11 1    
    13   11   12 1    
    14   11   17 1    
    15   12   13 1    
    16   12   14 1    
    17   14   15 1    
    18   14   16 1    
    19   16   17 1    
    20   16   18 1    
    21   18   19 1    
@<TRIPOS>SUBSTRUCTURE
     1 FMC301      1 GROUP   
@<TRIPOS>SET

