#    Name: 6f4x_1_FMC
#    Modification time : Fri May 22 19:26:07 2020

@<TRIPOS>MOLECULE
6f4x_1_FMC
   19    21     1     0     0
SMALL
NO_CHARGES


@<TRIPOS>ATOM
      1 N1          9.2290   10.6680  -53.0450 N.ar      1 FMC301      0.0000 
      2 C2         10.4710   11.2170  -53.2360 C.ar      1 FMC301      0.0000 
      3 N3         11.5830   10.6090  -52.7120 N.ar      1 FMC301      0.0000 
      4 C4         11.4480    9.4470  -51.9990 C.ar      1 FMC301      0.0000 
      5 C5         10.2260    8.9040  -51.8150 C.ar      1 FMC301      0.0000 
      6 C6          9.1050    9.5170  -52.3510 C.ar      1 FMC301      0.0000 
      7 N6          7.6940    9.3260  -52.4050 N.pl3     1 FMC301      0.0000 
      8 N7         10.3710    7.7450  -51.0810 N.pl3     1 FMC301      0.0000 
      9 N8         11.7010    7.5910  -50.8040 N.2       1 FMC301      0.0000 
     10 C9         12.3770    8.6220  -51.3560 C.2       1 FMC301      0.0000 
     11 C1'        13.7610    8.8160  -51.3240 C.3       1 FMC301      0.0000 
     12 C2'        14.5010    7.8040  -50.4530 C.3       1 FMC301      0.0000 
     13 O2'        15.7150    8.4010  -50.0190 O.3       1 FMC301      0.0000 
     14 C3'        14.8030    6.6680  -51.4440 C.3       1 FMC301      0.0000 
     15 O3'        16.0870    6.0930  -51.2730 O.3       1 FMC301      0.0000 
     16 C4'        14.6360    7.2930  -52.8410 C.3       1 FMC301      0.0000 
     17 O4'        14.2940    8.6830  -52.6090 O.3       1 FMC301      0.0000 
     18 C5'        13.6030    6.6480  -53.7210 C.3       1 FMC301      0.0000 
     19 O5'        13.7790    7.0210  -55.0810 O.3       1 FMC301      0.0000 
@<TRIPOS>BOND
     1    1    2 ar   
     2    1    6 ar   
     3    2    3 ar   
     4    3    4 ar   
     5    4    5 ar   
     6    4   10 1    
     7    5    6 ar   
     8    5    8 1    
     9    6    7 1    
    10    8    9 1    
    11    9   10 2    
    12   10   11 1    
    13   11   12 1    
    14   11   17 1    
    15   12   13 1    
    16   12   14 1    
    17   14   15 1    
    18   14   16 1    
    19   16   17 1    
    20   16   18 1    
    21   18   19 1    
@<TRIPOS>SUBSTRUCTURE
     1 FMC301      1 GROUP   
@<TRIPOS>SET

