#    Name: 6f4x_2_FMC_CAVITY_N1_8
#    Modification time : Fri May 22 19:26:14 2020

@<TRIPOS>MOLECULE
6f4x_2_FMC_CAVITY_N1_8
   57     0     7     0     0
SMALL
NO_CHARGES


@<TRIPOS>ATOM
      1 OG         10.3200   12.0200   -7.5400 O.3       1 SER1        0.0000 
      2 OG         11.5800   11.2100   -7.5200 O.3       1 SER1        0.0000 
      3 N          10.0300    8.9000   -3.9800 N.am      2 ALA2        0.0000 
      4 N          10.5500    9.6700   -5.1600 N.am      2 ALA2        0.0000 
      5 N           8.8400   15.2000   -9.9400 N.am      2 ALA2        0.0000 
      6 N           8.8900    9.9400   -1.9000 N.am      2 ALA2        0.0000 
      7 N          10.1500    9.1300   -1.8800 N.am      2 ALA2        0.0000 
      8 N           9.4000   10.7100   -3.0800 N.am      2 ALA2        0.0000 
      9 N          10.6600    9.9000   -3.0600 N.am      2 ALA2        0.0000 
     10 N           9.4700   16.1900   -9.0100 N.am      2 ALA2        0.0000 
     11 N           9.9800   16.9600  -10.1900 N.am      2 ALA2        0.0000 
     12 OD1        11.8100    8.8500   -5.1500 O.co2     3 ASP3        0.0000 
     13 OD1         8.5500   12.0700   -6.3800 O.co2     3 ASP3        0.0000 
     14 OD1         9.8000   11.2600   -6.3600 O.co2     3 ASP3        0.0000 
     15 OD1        12.3200    9.6200   -6.3200 O.co2     3 ASP3        0.0000 
     16 OD1         7.8000   13.6600   -7.5800 O.co2     3 ASP3        0.0000 
     17 OD1         9.0600   12.8400   -7.5600 O.co2     3 ASP3        0.0000 
     18 OD1        13.1800    8.2700   -3.0200 O.co2     3 ASP3        0.0000 
     19 OD1        14.4400    7.4500   -3.0000 O.co2     3 ASP3        0.0000 
     20 OD1        12.4400    9.8500   -4.2200 O.co2     3 ASP3        0.0000 
     21 OD1        11.6900   11.4400   -5.4200 O.co2     3 ASP3        0.0000 
     22 OD1        10.8400   15.6000   -6.8900 O.co2     3 ASP3        0.0000 
     23 NZ          8.6600   12.3000   -4.2700 N.4       4 LYS4        0.0000 
     24 NZ          9.1800   13.0700   -5.4500 N.4       4 LYS4        0.0000 
     25 CZ         11.5800   14.0200   -5.6900 C.ar      5 PHE5        0.0000 
     26 CZ         12.1000   14.7900   -6.8700 C.ar      5 PHE5        0.0000 
     27 CZ         11.3600   16.3700   -8.0700 C.ar      5 PHE5        0.0000 
     28 CA         12.4300    7.0400   -6.0500 C.3       6 GLY6        0.0000 
     29 CA         11.2900    8.0800   -3.9700 C.3       6 GLY6        0.0000 
     30 CA         12.5500    7.2700   -3.9500 C.3       6 GLY6        0.0000 
     31 CA         13.8100    6.4500   -3.9300 C.3       6 GLY6        0.0000 
     32 CA          8.3200   14.4300   -8.7600 C.3       6 GLY6        0.0000 
     33 CA          9.5800   13.6100   -8.7400 C.3       6 GLY6        0.0000 
     34 CA         10.0900   14.3800   -9.9200 C.3       6 GLY6        0.0000 
     35 CA         11.4100    8.3100   -1.8600 C.3       6 GLY6        0.0000 
     36 CA         11.9200    9.0800   -3.0400 C.3       6 GLY6        0.0000 
     37 CA         11.1800   10.6700   -4.2400 C.3       6 GLY6        0.0000 
     38 CA          8.4300   14.6500   -6.6500 C.3       6 GLY6        0.0000 
     39 CA         10.9500   13.0200   -6.6100 C.3       6 GLY6        0.0000 
     40 CA         12.2100   12.2100   -6.6000 C.3       6 GLY6        0.0000 
     41 CA          8.9500   15.4200   -7.8300 C.3       6 GLY6        0.0000 
     42 CA         10.2100   14.6100   -7.8100 C.3       6 GLY6        0.0000 
     43 CA         10.7300   15.3800   -8.9900 C.3       6 GLY6        0.0000 
     44 CA         11.2400   16.1500  -10.1700 C.3       6 GLY6        0.0000 
     45 CA         10.5000   17.7300  -11.3700 C.3       6 GLY6        0.0000 
     46 CA         11.8100   11.6600   -3.3100 C.3       6 GLY6        0.0000 
     47 CA         11.0700   13.2500   -4.5100 C.3       6 GLY6        0.0000 
     48 CA         12.3300   12.4300   -4.4900 C.3       6 GLY6        0.0000 
     49 CA         10.3200   14.8300   -5.7100 C.3       6 GLY6        0.0000 
     50 CA         12.8400   13.2000   -5.6700 C.3       6 GLY6        0.0000 
     51 DU         11.0600   10.4400   -6.3400 H         7 CUB7        0.0000 
     52 DU          9.9200   11.4800   -4.2600 H         7 CUB7        0.0000 
     53 DU         10.4400   12.2500   -5.4400 H         7 CUB7        0.0000 
     54 DU          9.6900   13.8400   -6.6300 H         7 CUB7        0.0000 
     55 DU          9.2900   13.2900   -3.3500 H         7 CUB7        0.0000 
     56 DU         10.5500   12.4800   -3.3300 H         7 CUB7        0.0000 
     57 DU          9.8100   14.0600   -4.5300 H         7 CUB7        0.0000 
@<TRIPOS>BOND
@<TRIPOS>SUBSTRUCTURE
     1 SER1        1 GROUP   
     2 ALA2        3 GROUP   
     3 ASP3       12 GROUP   
     4 LYS4       23 GROUP   
     5 PHE5       25 GROUP   
     6 GLY6       28 GROUP   
     7 CUB7       51 GROUP   
@<TRIPOS>SET

