#    Name: 6f4x_1_FMC_CAVITY_N1_4
#    Modification time : Fri May 22 19:26:08 2020

@<TRIPOS>MOLECULE
6f4x_1_FMC_CAVITY_N1_4
   51     0     6     0     0
SMALL
NO_CHARGES


@<TRIPOS>ATOM
      1 OG         13.9600    5.5400  -54.0500 O.3       1 SER1        0.0000 
      2 OG         12.7100    9.1700  -52.2400 O.3       1 SER1        0.0000 
      3 OG         13.9700    8.3500  -52.2200 O.3       1 SER1        0.0000 
      4 OG         14.4800    9.1200  -53.4000 O.3       1 SER1        0.0000 
      5 N           6.0000    7.0800  -52.7100 N.am      2 ALA2        0.0000 
      6 N           7.8900    7.2700  -51.7700 N.am      2 ALA2        0.0000 
      7 N           8.5300    8.2600  -50.8400 N.am      2 ALA2        0.0000 
      8 N          10.4200    8.4400  -49.9000 N.am      2 ALA2        0.0000 
      9 O           9.6700   10.0300  -51.0900 O.2       2 ALA2        0.0000 
     10 N          10.9300    9.2100  -51.0800 N.am      2 ALA2        0.0000 
     11 O          10.1900   10.8000  -52.2700 O.2       2 ALA2        0.0000 
     12 N          11.5600   10.2100  -50.1500 N.am      2 ALA2        0.0000 
     13 N          12.8200    9.3900  -50.1300 N.am      2 ALA2        0.0000 
     14 N          13.3400   10.1600  -51.3100 N.am      2 ALA2        0.0000 
     15 N          14.6000    9.3500  -51.2900 N.am      2 ALA2        0.0000 
     16 OD1        13.8500    8.1200  -54.3200 O.co2     3 ASP3        0.0000 
     17 OD1        15.2300    7.5400  -52.2000 O.co2     3 ASP3        0.0000 
     18 NZ         10.0700   10.5700  -54.3800 N.4       4 LYS4        0.0000 
     19 NZ         14.7100    6.7700  -51.0200 N.4       4 LYS4        0.0000 
     20 CZ          5.8900    6.8600  -54.8200 C.ar      5 PHE5        0.0000 
     21 CZ          6.5200    7.8500  -53.8900 C.ar      5 PHE5        0.0000 
     22 CZ          7.7800    7.0400  -53.8700 C.ar      5 PHE5        0.0000 
     23 CZ          9.1500    6.4500  -51.7500 C.ar      5 PHE5        0.0000 
     24 CZ          8.4100    8.0400  -52.9500 C.ar      5 PHE5        0.0000 
     25 CZ          8.9300    8.8000  -54.1300 C.ar      5 PHE5        0.0000 
     26 CZ         12.7000    6.3600  -54.0700 C.ar      5 PHE5        0.0000 
     27 CZ          9.4400    9.5700  -55.3100 C.ar      5 PHE5        0.0000 
     28 CZ          9.7900    7.4500  -50.8200 C.ar      5 PHE5        0.0000 
     29 CZ          9.0400    9.0300  -52.0200 C.ar      5 PHE5        0.0000 
     30 CZ         10.3000    8.2200  -52.0000 C.ar      5 PHE5        0.0000 
     31 CZ         11.5600    7.4000  -51.9800 C.ar      5 PHE5        0.0000 
     32 CZ          9.5600    9.8000  -53.2000 C.ar      5 PHE5        0.0000 
     33 CZ         10.8200    8.9900  -53.1800 C.ar      5 PHE5        0.0000 
     34 CZ         12.0800    8.1700  -53.1600 C.ar      5 PHE5        0.0000 
     35 CZ         13.3400    7.3500  -53.1400 C.ar      5 PHE5        0.0000 
     36 CA          4.7500    7.9000  -52.7300 C.3       6 GLY6        0.0000 
     37 CA          5.2600    8.6700  -53.9100 C.3       6 GLY6        0.0000 
     38 CA          6.6400    8.0800  -51.7900 C.3       6 GLY6        0.0000 
     39 CA          7.1500    8.8500  -52.9700 C.3       6 GLY6        0.0000 
     40 CA         13.4500    4.7700  -52.8700 C.3       6 GLY6        0.0000 
     41 CA         11.0400    6.6300  -50.8000 C.3       6 GLY6        0.0000 
     42 CA          7.7800    9.8500  -52.0400 C.3       6 GLY6        0.0000 
     43 CA         12.8200    6.5900  -51.9600 C.3       6 GLY6        0.0000 
     44 CA         14.0800    5.7700  -51.9500 C.3       6 GLY6        0.0000 
     45 CA          8.3000   10.6200  -53.2200 C.3       6 GLY6        0.0000 
     46 CA         14.5900    6.5400  -53.1300 C.3       6 GLY6        0.0000 
     47 CA         11.6800    7.6300  -49.8800 C.3       6 GLY6        0.0000 
     48 CA         12.1900    8.4000  -51.0600 C.3       6 GLY6        0.0000 
     49 CA         13.4500    7.5800  -51.0400 C.3       6 GLY6        0.0000 
     50 CA         11.4500    9.9800  -52.2600 C.3       6 GLY6        0.0000 
     51 CA         14.0800    8.5800  -50.1100 C.3       6 GLY6        0.0000 
@<TRIPOS>BOND
@<TRIPOS>SUBSTRUCTURE
     1 SER1        1 GROUP   
     2 ALA2        5 GROUP   
     3 ASP3       16 GROUP   
     4 LYS4       18 GROUP   
     5 PHE5       20 GROUP   
     6 GLY6       36 GROUP   
@<TRIPOS>SET

