#    Name: 5z2u_3_TD6
#    Modification time : Fri May 22 19:33:24 2020

@<TRIPOS>MOLECULE
5z2u_3_TD6
   33    34     1     0     0
SMALL
NO_CHARGES


@<TRIPOS>ATOM
      1 S1        -18.1920  -40.9670  -52.8980 S.3       1 TD6601      0.0000 
      2 C2        -18.5370  -40.2550  -54.2540 C.2       1 TD6601      0.0000 
      3 N3        -17.2970  -39.9630  -54.9240 N.pl3     1 TD6601      0.0000 
      4 C4        -16.1410  -40.4730  -54.0360 C.2       1 TD6601      0.0000 
      5 C5        -16.6710  -41.0610  -52.8420 C.2       1 TD6601      0.0000 
      6 C6        -15.8000  -41.6840  -51.7490 C.3       1 TD6601      0.0000 
      7 C7        -15.7190  -40.8400  -50.4850 C.3       1 TD6601      0.0000 
      8 O7        -14.8540  -41.5000  -49.6180 O.3       1 TD6601      0.0000 
      9 PA        -15.0590  -41.2020  -48.0160 P.3       1 TD6601      0.0000 
     10 PB        -17.0990  -43.2130  -47.5290 P.3       1 TD6601      0.0000 
     11 N1'       -14.6840  -36.3810  -56.5310 N.ar      1 TD6601      0.0000 
     12 C11       -19.9660  -40.0120  -54.7910 C.3       1 TD6601      0.0000 
     13 C13       -20.0480  -41.5180  -56.9910 C.3       1 TD6601      0.0000 
     14 O1A       -14.9220  -39.7030  -47.8020 O.co2     1 TD6601      0.0000 
     15 O1B       -18.3240  -43.1920  -46.6640 O.co2     1 TD6601      0.0000 
     16 C2'       -15.3920  -35.4250  -55.8780 C.ar      1 TD6601      0.0000 
     17 O2A       -13.9680  -41.9580  -47.2740 O.co2     1 TD6601      0.0000 
     18 O2B       -17.4410  -43.6740  -48.9210 O.co2     1 TD6601      0.0000 
     19 N3'       -16.5870  -35.7260  -55.3520 N.ar      1 TD6601      0.0000 
     20 O3A       -16.5520  -41.6790  -47.5790 O.3       1 TD6601      0.0000 
     21 O3B       -16.0430  -44.1440  -46.9710 O.co2     1 TD6601      0.0000 
     22 C4'       -17.0850  -36.9300  -55.4410 C.ar      1 TD6601      0.0000 
     23 N4'       -18.3800  -37.1670  -54.8420 N.pl3     1 TD6601      0.0000 
     24 C5'       -16.3960  -37.9150  -56.0750 C.ar      1 TD6601      0.0000 
     25 C6'       -15.1830  -37.6130  -56.6240 C.ar      1 TD6601      0.0000 
     26 C7'       -16.9960  -39.3230  -56.2000 C.3       1 TD6601      0.0000 
     27 OL1       -20.4470  -38.7650  -54.3630 O.3       1 TD6601      0.0000 
     28 OL2       -20.9640  -41.1780  -59.2670 O.co2     1 TD6601      0.0000 
     29 OL3       -18.8540  -41.0130  -59.0180 O.co2     1 TD6601      0.0000 
     30 CLB       -20.0890  -40.1440  -56.3180 C.3       1 TD6601      0.0000 
     31 CLC       -19.9640  -41.2270  -58.5020 C.2       1 TD6601      0.0000 
     32 CM2       -14.8810  -33.9850  -55.7220 C.3       1 TD6601      0.0000 
     33 CM4       -14.6750  -40.3370  -54.4270 C.3       1 TD6601      0.0000 
@<TRIPOS>BOND
     1    1    2 1    
     2    1    5 1    
     3    2    3 2    
     4    2   12 1    
     5    3    4 1    
     6    3   26 1    
     7    4    5 2    
     8    4   33 1    
     9    5    6 1    
    10    6    7 1    
    11    7    8 1    
    12    8    9 1    
    13    9   14 ar   
    14    9   17 ar   
    15    9   20 1    
    16   10   15 ar   
    17   10   18 ar   
    18   10   20 1    
    19   10   21 ar   
    20   11   16 ar   
    21   11   25 ar   
    22   12   27 1    
    23   12   30 1    
    24   13   30 1    
    25   13   31 1    
    26   16   19 ar   
    27   16   32 1    
    28   19   22 ar   
    29   22   23 1    
    30   22   24 ar   
    31   24   25 ar   
    32   24   26 1    
    33   28   31 ar   
    34   29   31 ar   
@<TRIPOS>SUBSTRUCTURE
     1 TD6601      1 GROUP   
@<TRIPOS>SET

