#    Name: 5z2u_7_TD6
#    Modification time : Fri May 22 19:33:49 2020

@<TRIPOS>MOLECULE
5z2u_7_TD6
   33    34     1     0     0
SMALL
NO_CHARGES


@<TRIPOS>ATOM
      1 S1        -18.6190   18.9130  -15.3520 S.3       1 TD6601      0.0000 
      2 C2        -18.7510   17.8720  -14.2140 C.2       1 TD6601      0.0000 
      3 N3        -19.4680   16.7260  -14.7310 N.pl3     1 TD6601      0.0000 
      4 C4        -19.7980   16.9940  -16.2220 C.2       1 TD6601      0.0000 
      5 C5        -19.2890   18.2870  -16.5710 C.2       1 TD6601      0.0000 
      6 C6        -19.4210   18.8570  -17.9700 C.3       1 TD6601      0.0000 
      7 C7        -20.3460   20.0570  -18.0210 C.3       1 TD6601      0.0000 
      8 O7        -20.3070   20.4440  -19.3660 O.3       1 TD6601      0.0000 
      9 PA        -20.8380   21.9560  -19.7010 P.3       1 TD6601      0.0000 
     10 PB        -18.2040   23.0840  -19.3140 P.3       1 TD6601      0.0000 
     11 N1'       -23.3930   14.2740  -14.0540 N.ar      1 TD6601      0.0000 
     12 C11       -18.1810   18.1100  -12.8070 C.3       1 TD6601      0.0000 
     13 C13       -16.5260   16.0410  -12.9670 C.3       1 TD6601      0.0000 
     14 O1A       -22.1970   22.2160  -19.1000 O.co2     1 TD6601      0.0000 
     15 O1B       -17.6640   24.2460  -18.5400 O.co2     1 TD6601      0.0000 
     16 C2'       -23.9820   15.2140  -13.2550 C.ar      1 TD6601      0.0000 
     17 O2A       -20.9020   22.0910  -21.2060 O.co2     1 TD6601      0.0000 
     18 O2B       -18.0820   23.2480  -20.8180 O.co2     1 TD6601      0.0000 
     19 N3'       -23.2510   16.2160  -12.7300 N.ar      1 TD6601      0.0000 
     20 O3A       -19.8070   23.0010  -18.9940 O.3       1 TD6601      0.0000 
     21 O3B       -17.5220   21.8290  -18.8600 O.co2     1 TD6601      0.0000 
     22 C4'       -21.9670   16.2790  -13.0090 C.ar      1 TD6601      0.0000 
     23 N4'       -21.1820   17.3530  -12.4520 N.pl3     1 TD6601      0.0000 
     24 C5'       -21.3700   15.3640  -13.8170 C.ar      1 TD6601      0.0000 
     25 C6'       -22.1030   14.3410  -14.3440 C.ar      1 TD6601      0.0000 
     26 C7'       -19.8680   15.4740  -14.1010 C.3       1 TD6601      0.0000 
     27 OL1       -19.1070   18.7430  -11.9560 O.3       1 TD6601      0.0000 
     28 OL2       -16.9340   13.6630  -12.9650 O.co2     1 TD6601      0.0000 
     29 OL3       -15.9650   14.3930  -11.2070 O.co2     1 TD6601      0.0000 
     30 CLB       -17.5710   16.8490  -12.1830 C.3       1 TD6601      0.0000 
     31 CLC       -16.4640   14.6310  -12.3420 C.2       1 TD6601      0.0000 
     32 CM2       -25.4830   15.1300  -12.9300 C.3       1 TD6601      0.0000 
     33 CM4       -20.5420   16.0440  -17.1520 C.3       1 TD6601      0.0000 
@<TRIPOS>BOND
     1    1    2 1    
     2    1    5 1    
     3    2    3 2    
     4    2   12 1    
     5    3    4 1    
     6    3   26 1    
     7    4    5 2    
     8    4   33 1    
     9    5    6 1    
    10    6    7 1    
    11    7    8 1    
    12    8    9 1    
    13    9   14 ar   
    14    9   17 ar   
    15    9   20 1    
    16   10   15 ar   
    17   10   18 ar   
    18   10   20 1    
    19   10   21 ar   
    20   11   16 ar   
    21   11   25 ar   
    22   12   27 1    
    23   12   30 1    
    24   13   30 1    
    25   13   31 1    
    26   16   19 ar   
    27   16   32 1    
    28   19   22 ar   
    29   22   23 1    
    30   22   24 ar   
    31   24   25 ar   
    32   24   26 1    
    33   28   31 ar   
    34   29   31 ar   
@<TRIPOS>SUBSTRUCTURE
     1 TD6601      1 GROUP   
@<TRIPOS>SET

