#    Name: 5z2u_4_TD6
#    Modification time : Fri May 22 19:33:37 2020

@<TRIPOS>MOLECULE
5z2u_4_TD6
   33    34     1     0     0
SMALL
NO_CHARGES


@<TRIPOS>ATOM
      1 S1          3.4070  -16.2980  -54.9030 S.3       1 TD6601      0.0000 
      2 C2          2.3200  -16.0020  -55.9890 C.2       1 TD6601      0.0000 
      3 N3          1.0350  -16.1350  -55.3970 N.pl3     1 TD6601      0.0000 
      4 C4          1.2170  -16.5410  -53.9110 C.2       1 TD6601      0.0000 
      5 C5          2.6250  -16.6320  -53.6320 C.2       1 TD6601      0.0000 
      6 C6          3.1520  -16.9850  -52.2460 C.3       1 TD6601      0.0000 
      7 C7          3.7800  -18.3610  -52.1720 C.3       1 TD6601      0.0000 
      8 O7          4.1340  -18.4850  -50.8220 O.3       1 TD6601      0.0000 
      9 PA          5.2480  -19.6250  -50.4410 P.3       1 TD6601      0.0000 
     10 PB          7.4170  -17.7530  -50.8310 P.3       1 TD6601      0.0000 
     11 N1'        -2.7740  -18.7040  -55.9640 N.ar      1 TD6601      0.0000 
     12 C11         2.4640  -15.5640  -57.4490 C.3       1 TD6601      0.0000 
     13 C13         4.6770  -16.8500  -57.9250 C.3       1 TD6601      0.0000 
     14 O1A         4.8130  -20.9270  -51.0520 O.co2     1 TD6601      0.0000 
     15 O1B         8.7470  -17.8470  -51.5170 O.co2     1 TD6601      0.0000 
     16 C2'        -2.2260  -19.6590  -56.7630 C.ar      1 TD6601      0.0000 
     17 O2A         5.3240  -19.6700  -48.9430 O.co2     1 TD6601      0.0000 
     18 O2B         6.6400  -16.6010  -51.4240 O.co2     1 TD6601      0.0000 
     19 N3'        -1.0330  -19.4390  -57.3490 N.ar      1 TD6601      0.0000 
     20 O3A         6.6700  -19.1910  -51.1160 O.3       1 TD6601      0.0000 
     21 O3B         7.5340  -17.5680  -49.3360 O.co2     1 TD6601      0.0000 
     22 C4'        -0.4210  -18.2930  -57.1310 C.ar      1 TD6601      0.0000 
     23 N4'         0.8370  -18.1190  -57.7950 N.pl3     1 TD6601      0.0000 
     24 C5'        -0.9560  -17.3170  -56.3240 C.ar      1 TD6601      0.0000 
     25 C6'        -2.1600  -17.5530  -55.7390 C.ar      1 TD6601      0.0000 
     26 C7'        -0.2520  -15.9630  -56.0630 C.3       1 TD6601      0.0000 
     27 OL1         2.8780  -14.2220  -57.4360 O.3       1 TD6601      0.0000 
     28 OL2         5.3770  -15.8640  -60.0280 O.co2     1 TD6601      0.0000 
     29 OL3         6.8850  -16.9200  -58.8700 O.co2     1 TD6601      0.0000 
     30 CLB         3.3090  -16.4130  -58.4150 C.3       1 TD6601      0.0000 
     31 CLC         5.7030  -16.5260  -59.0080 C.2       1 TD6601      0.0000 
     32 CM2        -2.9480  -20.9900  -57.0060 C.3       1 TD6601      0.0000 
     33 CM4         0.0910  -16.7960  -52.9180 C.3       1 TD6601      0.0000 
@<TRIPOS>BOND
     1    1    2 1    
     2    1    5 1    
     3    2    3 2    
     4    2   12 1    
     5    3    4 1    
     6    3   26 1    
     7    4    5 2    
     8    4   33 1    
     9    5    6 1    
    10    6    7 1    
    11    7    8 1    
    12    8    9 1    
    13    9   14 ar   
    14    9   17 ar   
    15    9   20 1    
    16   10   15 ar   
    17   10   18 ar   
    18   10   20 1    
    19   10   21 ar   
    20   11   16 ar   
    21   11   25 ar   
    22   12   27 1    
    23   12   30 1    
    24   13   30 1    
    25   13   31 1    
    26   16   19 ar   
    27   16   32 1    
    28   19   22 ar   
    29   22   23 1    
    30   22   24 ar   
    31   24   25 ar   
    32   24   26 1    
    33   28   31 ar   
    34   29   31 ar   
@<TRIPOS>SUBSTRUCTURE
     1 TD6601      1 GROUP   
@<TRIPOS>SET

