#    Name: 5z2u_8_TD6
#    Modification time : Fri May 22 19:34:01 2020

@<TRIPOS>MOLECULE
5z2u_8_TD6
   33    34     1     0     0
SMALL
NO_CHARGES


@<TRIPOS>ATOM
      1 S1        -43.2750   -9.0030   32.0600 S.3       1 TD6601      0.0000 
      2 C2        -43.1760   -8.4510   30.6150 C.2       1 TD6601      0.0000 
      3 N3        -42.7620   -9.4900   29.7420 N.pl3     1 TD6601      0.0000 
      4 C4        -42.5830  -10.7840   30.5720 C.2       1 TD6601      0.0000 
      5 C5        -42.8890  -10.4810   31.9420 C.2       1 TD6601      0.0000 
      6 C6        -42.8400  -11.5210   33.0430 C.3       1 TD6601      0.0000 
      7 C7        -41.6720  -11.3260   33.9870 C.3       1 TD6601      0.0000 
      8 O7        -41.8420  -12.3130   34.9600 O.3       1 TD6601      0.0000 
      9 PA        -41.2000  -12.0480   36.4500 P.3       1 TD6601      0.0000 
     10 PB        -43.4980  -10.8020   37.6210 P.3       1 TD6601      0.0000 
     11 N1'       -39.2200  -10.3650   26.8830 N.ar      1 TD6601      0.0000 
     12 C11       -43.4800   -7.0340   30.1740 C.3       1 TD6601      0.0000 
     13 C13       -42.4270   -5.2440   31.4040 C.3       1 TD6601      0.0000 
     14 O1A       -39.7530  -11.6610   36.2720 O.co2     1 TD6601      0.0000 
     15 O1B       -43.6220   -9.6390   38.5650 O.co2     1 TD6601      0.0000 
     16 C2'       -38.4020   -9.3740   27.2950 C.ar      1 TD6601      0.0000 
     17 O2A       -41.4150  -13.2990   37.2710 O.co2     1 TD6601      0.0000 
     18 O2B       -44.3580  -10.5980   36.4000 O.co2     1 TD6601      0.0000 
     19 N3'       -38.9080   -8.3760   28.0380 N.ar      1 TD6601      0.0000 
     20 O3A       -41.9090  -10.8120   37.2370 O.3       1 TD6601      0.0000 
     21 O3B       -43.8450  -12.1430   38.2310 O.co2     1 TD6601      0.0000 
     22 C4'       -40.1840   -8.3560   28.3660 C.ar      1 TD6601      0.0000 
     23 N4'       -40.6400   -7.2390   29.1680 N.pl3     1 TD6601      0.0000 
     24 C5'       -41.0190   -9.3550   27.9680 C.ar      1 TD6601      0.0000 
     25 C6'       -40.5020  -10.3560   27.2180 C.ar      1 TD6601      0.0000 
     26 C7'       -42.5280   -9.3700   28.3120 C.3       1 TD6601      0.0000 
     27 OL1       -44.6980   -7.0490   29.4930 O.3       1 TD6601      0.0000 
     28 OL2       -42.2730   -4.3040   33.5830 O.co2     1 TD6601      0.0000 
     29 OL3       -43.4600   -3.1850   32.1490 O.co2     1 TD6601      0.0000 
     30 CLB       -43.6270   -6.1710   31.4030 C.3       1 TD6601      0.0000 
     31 CLC       -42.7420   -4.1760   32.4360 C.2       1 TD6601      0.0000 
     32 CM2       -36.9130   -9.3730   26.9380 C.3       1 TD6601      0.0000 
     33 CM4       -42.1510  -12.1320   30.0110 C.3       1 TD6601      0.0000 
@<TRIPOS>BOND
     1    1    2 1    
     2    1    5 1    
     3    2    3 2    
     4    2   12 1    
     5    3    4 1    
     6    3   26 1    
     7    4    5 2    
     8    4   33 1    
     9    5    6 1    
    10    6    7 1    
    11    7    8 1    
    12    8    9 1    
    13    9   14 ar   
    14    9   17 ar   
    15    9   20 1    
    16   10   15 ar   
    17   10   18 ar   
    18   10   20 1    
    19   10   21 ar   
    20   11   16 ar   
    21   11   25 ar   
    22   12   27 1    
    23   12   30 1    
    24   13   30 1    
    25   13   31 1    
    26   16   19 ar   
    27   16   32 1    
    28   19   22 ar   
    29   22   23 1    
    30   22   24 ar   
    31   24   25 ar   
    32   24   26 1    
    33   28   31 ar   
    34   29   31 ar   
@<TRIPOS>SUBSTRUCTURE
     1 TD6601      1 GROUP   
@<TRIPOS>SET

