#    Name: 5y7n_1_NAP
#    Modification time : Fri May 22 19:28:49 2020

@<TRIPOS>MOLECULE
5y7n_1_NAP
   48    52     1     0     1
SMALL
NO_CHARGES


@<TRIPOS>ATOM
      1 PA         -6.2070   40.8570    0.9230 P.3       1 NAP401      0.0000 
      2 O1A        -6.8480   42.0500    0.6930 O.co2     1 NAP401      0.0000 
      3 O2A        -6.7020   40.2270    2.0360 O.co2     1 NAP401      0.0000 
      4 O5B        -4.6860   40.9240    1.0250 O.3       1 NAP401      0.0000 
      5 C5B        -3.8120   40.0880    1.7090 C.3       1 NAP401      0.0000 
      6 C4B        -2.4570   40.7520    1.9230 C.3       1 NAP401      0.0000 
      7 O4B        -2.4760   41.6400    2.9980 O.3       1 NAP401      0.0000 
      8 C3B        -1.3580   39.7910    2.2640 C.3       1 NAP401      0.0000 
      9 O3B        -0.2060   40.1480    1.5770 O.3       1 NAP401      0.0000 
     10 C2B        -1.0560   40.0270    3.6860 C.3       1 NAP401      0.0000 
     11 O2B         0.2650   39.6710    4.0030 O.3       1 NAP401      0.0000 
     12 C1B        -1.3680   41.4710    3.7900 C.3       1 NAP401      0.0000 
     13 N9A        -1.9260   41.8020    5.0670 N.pl3     1 NAP401      0.0000 
     14 C8A        -2.8330   41.1110    5.6840 C.2       1 NAP401      0.0000 
     15 N7A        -3.1680   41.6910    6.8050 N.2       1 NAP401      0.0000 
     16 C5A        -2.4650   42.7830    6.9240 C.ar      1 NAP401      0.0000 
     17 C6A        -2.3180   43.8670    7.8970 C.ar      1 NAP401      0.0000 
     18 N6A        -2.9940   43.9320    9.0140 N.pl3     1 NAP401      0.0000 
     19 N1A        -1.4420   44.7900    7.6130 N.ar      1 NAP401      0.0000 
     20 C2A        -0.7420   44.7600    6.5230 C.ar      1 NAP401      0.0000 
     21 N3A        -0.8020   43.8590    5.6070 N.ar      1 NAP401      0.0000 
     22 C4A        -1.6300   42.8500    5.7560 C.ar      1 NAP401      0.0000 
     23 O3         -6.4050   40.0490   -0.3990 O.3       1 NAP401      0.0000 
     24 PN         -6.6730   38.5880   -0.8190 P.3       1 NAP401      0.0000 
     25 O1N        -5.7110   37.6500   -0.4520 O.co2     1 NAP401      0.0000 
     26 O2N        -7.2170   38.3340   -2.0530 O.co2     1 NAP401      0.0000 
     27 O5D        -7.7360   38.4650    0.2360 O.3       1 NAP401      0.0000 
     28 C5D        -9.0570   38.1410    0.1420 C.3       1 NAP401      0.0000 
     29 C4D        -9.3550   36.7340    0.6210 C.3       1 NAP401      0.0000 
     30 O4D       -10.5560   36.5880   -0.0150 O.3       1 NAP401      0.0000 
     31 C3D        -8.5350   35.6520   -0.0240 C.3       1 NAP401      0.0000 
     32 O3D        -7.4370   35.1930    0.7200 O.3       1 NAP401      0.0000 
     33 C2D        -9.4950   34.6020   -0.4320 C.3       1 NAP401      0.0000 
     34 O2D        -9.8090   33.7360    0.6190 O.3       1 NAP401      0.0000 
     35 C1D       -10.6550   35.4530   -0.7900 C.3       1 NAP401      0.0000 
     36 N1N       -10.6810   35.7780   -2.2110 N.pl3     1 NAP401      0.0000 
     37 C2N       -11.6600   35.2290   -2.8940 C.ar      1 NAP401      0.0000 
     38 C3N       -11.7920   35.3930   -4.2470 C.ar      1 NAP401      0.0000 
     39 C7N       -12.9060   34.8440   -5.0820 C.2       1 NAP401      0.0000 
     40 O7N       -12.7990   34.9140   -6.2490 O.2       1 NAP401      0.0000 
     41 N7N       -14.0360   34.4120   -4.6120 N.am      1 NAP401      0.0000 
     42 C4N       -10.8820   36.2030   -4.8550 C.ar      1 NAP401      0.0000 
     43 C5N        -9.8800   36.7830   -4.1440 C.ar      1 NAP401      0.0000 
     44 C6N        -9.7800   36.5480   -2.8040 C.ar      1 NAP401      0.0000 
     45 P2B         0.6810   38.4980    4.8960 P.3       1 NAP401      0.0000 
     46 O1X        -0.1010   37.4260    4.4990 O.co2     1 NAP401      0.0000 
     47 O2X         2.0420   38.3220    4.6110 O.co2     1 NAP401      0.0000 
     48 O3X         0.3690   38.9520    6.1740 O.co2     1 NAP401      0.0000 
@<TRIPOS>BOND
     1    1    2 ar   
     2    1    3 ar   
     3    1    4 1    
     4    1   23 1    
     5    4    5 1    
     6    5    6 1    
     7    6    7 1    
     8    6    8 1    
     9    7   12 1    
    10    8    9 1    
    11    8   10 1    
    12   10   11 1    
    13   10   12 1    
    14   11   45 1    
    15   12   13 1    
    16   13   14 1    
    17   13   22 1    
    18   14   15 2    
    19   15   16 1    
    20   16   17 ar   
    21   16   22 ar   
    22   17   18 1    
    23   17   19 ar   
    24   19   20 ar   
    25   20   21 ar   
    26   21   22 ar   
    27   23   24 1    
    28   24   25 ar   
    29   24   26 ar   
    30   24   27 1    
    31   27   28 1    
    32   28   29 1    
    33   29   30 1    
    34   29   31 1    
    35   30   35 1    
    36   31   32 1    
    37   31   33 1    
    38   33   34 1    
    39   33   35 1    
    40   35   36 1    
    41   36   37 ar   
    42   36   44 ar   
    43   37   38 ar   
    44   38   39 1    
    45   38   42 ar   
    46   39   40 2    
    47   39   41 am   
    48   42   43 ar   
    49   43   44 ar   
    50   45   46 ar   
    51   45   47 ar   
    52   45   48 ar   
@<TRIPOS>SUBSTRUCTURE
     1 NAP401      1 GROUP   
@<TRIPOS>SET
ATOM$ORANGE STATIC     ATOMS   COLORGROUP SYSTEM 
42 5 5 6 6 8 8 10 10 12 12 14 14 16 16 17 17 20 \
20 22 22 28 28 29 29 31 31 33 33 35 35 37 37 38 38 39 \
39 42 42 43 43 44 44 

