#    Name: 6gdo_3_NAP_CAVITY_N1_12
#    Modification time : Fri May 22 19:32:07 2020

@<TRIPOS>MOLECULE
6gdo_3_NAP_CAVITY_N1_12
   92     0     7     0     0
SMALL
NO_CHARGES


@<TRIPOS>ATOM
      1 OG        -36.3100   11.6900   31.3900 O.3       1 SER1        0.0000 
      2 OG        -36.8200   13.1000   31.3700 O.3       1 SER1        0.0000 
      3 OG        -36.7700    9.9300   32.4900 O.3       1 SER1        0.0000 
      4 OG        -37.2900   11.3400   32.4700 O.3       1 SER1        0.0000 
      5 OG        -35.7600   10.3200   33.5300 O.3       1 SER1        0.0000 
      6 OG        -34.7500   10.7000   34.5700 O.3       1 SER1        0.0000 
      7 N         -37.4300   17.5800   25.9900 N.am      2 ALA2        0.0000 
      8 N         -37.3900   14.4200   27.1100 N.am      2 ALA2        0.0000 
      9 N         -37.9000   15.8300   27.0900 N.am      2 ALA2        0.0000 
     10 N         -38.8800   15.4900   28.1700 N.am      2 ALA2        0.0000 
     11 N         -36.4200   17.9700   27.0300 N.am      2 ALA2        0.0000 
     12 O         -36.9400   19.3800   27.0100 O.2       2 ALA2        0.0000 
     13 O         -37.4100   17.6200   28.1100 O.2       2 ALA2        0.0000 
     14 O         -37.9200   19.0300   28.0900 O.2       2 ALA2        0.0000 
     15 N         -38.3400   14.1200   30.3100 N.am      2 ALA2        0.0000 
     16 N         -37.7800    9.5500   31.4500 N.am      2 ALA2        0.0000 
     17 N         -38.8100   12.3700   31.4100 N.am      2 ALA2        0.0000 
     18 N         -37.8000   12.7500   32.4500 N.am      2 ALA2        0.0000 
     19 N         -38.3200   14.1600   32.4300 N.am      2 ALA2        0.0000 
     20 N         -37.2400    8.1800   33.5900 N.am      2 ALA2        0.0000 
     21 N         -37.7600    9.5900   33.5700 N.am      2 ALA2        0.0000 
     22 N         -37.3100   14.5400   33.4700 N.am      2 ALA2        0.0000 
     23 N         -38.2900   14.2000   34.5500 N.am      2 ALA2        0.0000 
     24 N         -35.2200    8.9500   35.6700 N.am      2 ALA2        0.0000 
     25 N         -37.2800   14.5800   35.5900 N.am      2 ALA2        0.0000 
     26 N         -36.2100    8.6100   36.7500 N.am      2 ALA2        0.0000 
     27 N         -35.2900   15.3100   35.5500 N.am      2 ALA2        0.0000 
     28 N         -34.7300   10.7400   36.7000 N.am      2 ALA2        0.0000 
     29 N         -35.7100   10.4000   37.7800 N.am      2 ALA2        0.0000 
     30 N         -32.2700   13.2200   35.5600 N.am      2 ALA2        0.0000 
     31 N         -32.7400   11.4700   36.6600 N.am      2 ALA2        0.0000 
     32 N         -33.7200   11.1300   37.7400 N.am      2 ALA2        0.0000 
     33 N         -31.7300   11.8500   37.7000 N.am      2 ALA2        0.0000 
     34 OD1       -36.2600    8.5300   32.5100 O.co2     3 ASP3        0.0000 
     35 OD1       -35.2500    8.9100   33.5500 O.co2     3 ASP3        0.0000 
     36 OD1       -35.7600   13.5600   36.6500 O.co2     3 ASP3        0.0000 
     37 OD1       -36.2700   14.9700   36.6300 O.co2     3 ASP3        0.0000 
     38 OD1       -37.2500   14.6300   37.7100 O.co2     3 ASP3        0.0000 
     39 OD1       -33.7600   14.2900   36.6200 O.co2     3 ASP3        0.0000 
     40 OD1       -34.2800   15.7000   36.6000 O.co2     3 ASP3        0.0000 
     41 OD1       -34.7500   13.9400   37.7000 O.co2     3 ASP3        0.0000 
     42 OD1       -35.7300   13.6000   38.7800 O.co2     3 ASP3        0.0000 
     43 OD1       -32.2900   16.4200   36.5600 O.co2     3 ASP3        0.0000 
     44 OD1       -32.7500   14.6700   37.6600 O.co2     3 ASP3        0.0000 
     45 OD1       -33.2200   12.9200   38.7600 O.co2     3 ASP3        0.0000 
     46 NZ        -38.3700   14.0800   28.1900 N.4       4 LYS4        0.0000 
     47 NZ        -37.8300   12.7100   30.3300 N.4       4 LYS4        0.0000 
     48 NZ        -38.3000   10.9600   31.4300 N.4       4 LYS4        0.0000 
     49 CZ        -38.4200   17.2400   27.0700 C.ar      5 PHE5        0.0000 
     50 CZ        -35.9100   16.5600   27.0500 C.ar      5 PHE5        0.0000 
     51 CZ        -36.3800   14.8100   28.1500 C.ar      5 PHE5        0.0000 
     52 CZ        -36.8900   16.2200   28.1300 C.ar      5 PHE5        0.0000 
     53 CZ        -37.3600   14.4600   29.2300 C.ar      5 PHE5        0.0000 
     54 CZ        -35.4100   18.3500   28.0700 C.ar      5 PHE5        0.0000 
     55 CZ        -35.8800   16.6000   29.1700 C.ar      5 PHE5        0.0000 
     56 CZ        -36.4000   18.0100   29.1500 C.ar      5 PHE5        0.0000 
     57 CZ        -35.8400   13.4400   30.2900 C.ar      5 PHE5        0.0000 
     58 CZ        -36.3500   14.8500   30.2700 C.ar      5 PHE5        0.0000 
     59 CZ        -34.4000   18.7300   29.1100 C.ar      5 PHE5        0.0000 
     60 CA        -39.2800   10.6200   32.5100 C.3       6 GLY6        0.0000 
     61 CA        -39.7900   12.0300   32.4900 C.3       6 GLY6        0.0000 
     62 CA        -35.9300   19.7600   28.0500 C.3       6 GLY6        0.0000 
     63 CA        -38.2700   11.0000   33.5500 C.3       6 GLY6        0.0000 
     64 CA        -38.7900   12.4100   33.5300 C.3       6 GLY6        0.0000 
     65 CA        -39.3000   13.8200   33.5100 C.3       6 GLY6        0.0000 
     66 CA        -38.2300    7.8400   34.6700 C.3       6 GLY6        0.0000 
     67 CA        -38.7400    9.2500   34.6500 C.3       6 GLY6        0.0000 
     68 CA        -39.7700   12.0700   34.6100 C.3       6 GLY6        0.0000 
     69 CA        -34.9200   20.1400   29.0900 C.3       6 GLY6        0.0000 
     70 CA        -36.2300    8.5700   34.6300 C.3       6 GLY6        0.0000 
     71 CA        -37.2600   11.3800   34.5900 C.3       6 GLY6        0.0000 
     72 CA        -37.7800   12.7900   34.5700 C.3       6 GLY6        0.0000 
     73 CA        -37.2200    8.2200   35.7100 C.3       6 GLY6        0.0000 
     74 CA        -37.7300    9.6300   35.6900 C.3       6 GLY6        0.0000 
     75 CA        -36.2500   11.7700   35.6300 C.3       6 GLY6        0.0000 
     76 CA        -36.7700   13.1800   35.6100 C.3       6 GLY6        0.0000 
     77 CA        -36.7200   10.0100   36.7300 C.3       6 GLY6        0.0000 
     78 CA        -38.2600   14.2400   36.6700 C.3       6 GLY6        0.0000 
     79 CA        -33.7400   11.0800   35.6200 C.3       6 GLY6        0.0000 
     80 CA        -36.2200   11.8100   37.7500 C.3       6 GLY6        0.0000 
     81 CA        -36.7400   13.2200   37.7300 C.3       6 GLY6        0.0000 
     82 DU        -39.4000   16.9000   28.1500 H         7 CUB7        0.0000 
     83 DU        -36.2800   11.7300   33.5100 H         7 CUB7        0.0000 
     84 DU        -36.7500    9.9700   34.6100 H         7 CUB7        0.0000 
     85 DU        -35.7400   10.3600   35.6500 H         7 CUB7        0.0000 
     86 DU        -35.2400   12.1500   36.6800 H         7 CUB7        0.0000 
     87 DU        -32.7800   14.6300   35.5400 H         7 CUB7        0.0000 
     88 DU        -33.2500   12.8800   36.6400 H         7 CUB7        0.0000 
     89 DU        -34.2300   12.5300   37.7200 H         7 CUB7        0.0000 
     90 DU        -31.7700   15.0100   36.5800 H         7 CUB7        0.0000 
     91 DU        -32.2400   13.2600   37.6800 H         7 CUB7        0.0000 
     92 DU        -32.7100   11.5100   38.7800 H         7 CUB7        0.0000 
@<TRIPOS>BOND
@<TRIPOS>SUBSTRUCTURE
     1 SER1        1 GROUP   
     2 ALA2        7 GROUP   
     3 ASP3       34 GROUP   
     4 LYS4       46 GROUP   
     5 PHE5       49 GROUP   
     6 GLY6       60 GROUP   
     7 CUB7       82 GROUP   
@<TRIPOS>SET

