#    Name: 6gdo_3_NAP
#    Modification time : Fri May 22 19:32:05 2020

@<TRIPOS>MOLECULE
6gdo_3_NAP
   48    52     1     0     1
SMALL
NO_CHARGES


@<TRIPOS>ATOM
      1 PA        -32.5550   13.0340   37.5890 P.3       1 NAP301      0.0000 
      2 O1A       -32.8580   14.0790   38.6430 O.co2     1 NAP301      0.0000 
      3 O2A       -31.9920   13.4120   36.2240 O.co2     1 NAP301      0.0000 
      4 O5B       -31.5510   11.9410   38.2390 O.3       1 NAP301      0.0000 
      5 C5B       -32.0610   11.0770   39.2590 C.3       1 NAP301      0.0000 
      6 C4B       -30.9030   10.5730   40.1010 C.3       1 NAP301      0.0000 
      7 O4B       -30.0500    9.7720   39.2790 O.3       1 NAP301      0.0000 
      8 C3B       -30.0040   11.6960   40.6380 C.3       1 NAP301      0.0000 
      9 O3B       -30.4620   12.1730   41.9200 O.3       1 NAP301      0.0000 
     10 C2B       -28.5920   11.0720   40.6950 C.3       1 NAP301      0.0000 
     11 O2B       -28.1180   10.7520   42.0330 O.3       1 NAP301      0.0000 
     12 C1B       -28.7500    9.7860   39.8500 C.3       1 NAP301      0.0000 
     13 N9A       -27.6380    9.7490   38.8500 N.pl3     1 NAP301      0.0000 
     14 C8A       -27.3720   10.5100   37.7540 C.2       1 NAP301      0.0000 
     15 N7A       -26.1700   10.1580   37.1970 N.2       1 NAP301      0.0000 
     16 C5A       -25.6540    9.1500   37.9600 C.ar      1 NAP301      0.0000 
     17 C6A       -24.4260    8.2980   37.9800 C.ar      1 NAP301      0.0000 
     18 N6A       -23.4400    8.4310   37.0230 N.pl3     1 NAP301      0.0000 
     19 N1A       -24.3370    7.4180   39.0560 N.ar      1 NAP301      0.0000 
     20 C2A       -25.2930    7.2680   40.0180 C.ar      1 NAP301      0.0000 
     21 N3A       -26.4490    7.9740   40.0800 N.ar      1 NAP301      0.0000 
     22 C4A       -26.6270    8.9170   39.0800 C.ar      1 NAP301      0.0000 
     23 O3        -33.8660   12.1060   37.3500 O.3       1 NAP301      0.0000 
     24 PN        -35.4380   12.4520   37.5600 P.3       1 NAP301      0.0000 
     25 O1N       -35.6320   13.7190   36.7340 O.co2     1 NAP301      0.0000 
     26 O2N       -35.8990   12.3480   38.9850 O.co2     1 NAP301      0.0000 
     27 O5D       -36.1080   11.1820   36.7700 O.3       1 NAP301      0.0000 
     28 C5D       -36.1790    9.8560   37.2890 C.3       1 NAP301      0.0000 
     29 C4D       -36.4230    8.9850   36.0520 C.3       1 NAP301      0.0000 
     30 O4D       -37.5640    9.4000   35.1950 O.3       1 NAP301      0.0000 
     31 C3D       -35.1920    8.9190   35.1550 C.3       1 NAP301      0.0000 
     32 O3D       -34.8470    7.5350   34.9670 O.3       1 NAP301      0.0000 
     33 C2D       -35.6230    9.6020   33.8380 C.3       1 NAP301      0.0000 
     34 O2D       -34.9470    9.1980   32.6070 O.3       1 NAP301      0.0000 
     35 C1D       -37.1490    9.4420   33.8130 C.3       1 NAP301      0.0000 
     36 N1N       -37.7350   10.6310   33.1630 N.pl3     1 NAP301      0.0000 
     37 C2N       -37.9370   11.7730   33.8800 C.ar      1 NAP301      0.0000 
     38 C3N       -38.4690   12.8920   33.2490 C.ar      1 NAP301      0.0000 
     39 C7N       -38.7060   14.1900   33.9850 C.2       1 NAP301      0.0000 
     40 O7N       -39.4770   14.9860   33.5330 O.2       1 NAP301      0.0000 
     41 N7N       -38.0760   14.4840   35.1190 N.am      1 NAP301      0.0000 
     42 C4N       -38.8040   12.7700   31.8970 C.ar      1 NAP301      0.0000 
     43 C5N       -38.5910   11.5960   31.1640 C.ar      1 NAP301      0.0000 
     44 C6N       -38.0520   10.5180   31.8300 C.ar      1 NAP301      0.0000 
     45 P2B       -27.2000   11.6660   42.9960 P.3       1 NAP301      0.0000 
     46 O1X       -28.0880   12.8890   42.9060 O.co2     1 NAP301      0.0000 
     47 O2X       -27.2100   10.9260   44.2740 O.co2     1 NAP301      0.0000 
     48 O3X       -25.8400   11.9240   42.3960 O.co2     1 NAP301      0.0000 
@<TRIPOS>BOND
     1    1    2 ar   
     2    1    3 ar   
     3    1    4 1    
     4    1   23 1    
     5    4    5 1    
     6    5    6 1    
     7    6    7 1    
     8    6    8 1    
     9    7   12 1    
    10    8    9 1    
    11    8   10 1    
    12   10   11 1    
    13   10   12 1    
    14   11   45 1    
    15   12   13 1    
    16   13   14 1    
    17   13   22 1    
    18   14   15 2    
    19   15   16 1    
    20   16   17 ar   
    21   16   22 ar   
    22   17   18 1    
    23   17   19 ar   
    24   19   20 ar   
    25   20   21 ar   
    26   21   22 ar   
    27   23   24 1    
    28   24   25 ar   
    29   24   26 ar   
    30   24   27 1    
    31   27   28 1    
    32   28   29 1    
    33   29   30 1    
    34   29   31 1    
    35   30   35 1    
    36   31   32 1    
    37   31   33 1    
    38   33   34 1    
    39   33   35 1    
    40   35   36 1    
    41   36   37 ar   
    42   36   44 ar   
    43   37   38 ar   
    44   38   39 1    
    45   38   42 ar   
    46   39   40 2    
    47   39   41 am   
    48   42   43 ar   
    49   43   44 ar   
    50   45   46 ar   
    51   45   47 ar   
    52   45   48 ar   
@<TRIPOS>SUBSTRUCTURE
     1 NAP301      1 GROUP   
@<TRIPOS>SET
ATOM$ORANGE STATIC     ATOMS   COLORGROUP SYSTEM 
42 5 5 6 6 8 8 10 10 12 12 14 14 16 16 17 17 20 \
20 22 22 28 28 29 29 31 31 33 33 35 35 37 37 38 38 39 \
39 42 42 43 43 44 44 

