#    Name: 6nhx_1_ATP_CAVITY_N1_4
#    Modification time : Fri May 22 19:34:36 2020

@<TRIPOS>MOLECULE
6nhx_1_ATP_CAVITY_N1_4
   93     0     6     0     0
SMALL
NO_CHARGES


@<TRIPOS>ATOM
      1 O          -4.6500    1.7800   16.6000 O.2       1 ALA2        0.0000 
      2 N         -10.4200    6.7800   17.0700 N.am      1 ALA2        0.0000 
      3 O          -3.2200    6.7700   14.4700 O.2       1 ALA2        0.0000 
      4 N          -5.9800    6.5700   16.3700 N.am      1 ALA2        0.0000 
      5 N          -5.0900    7.2400   15.3700 N.am      1 ALA2        0.0000 
      6 N          -6.9500    7.7000   16.2700 N.am      1 ALA2        0.0000 
      7 N         -10.6800    8.6300   18.0700 N.am      1 ALA2        0.0000 
      8 N          -6.2400    8.4200   17.3700 N.am      1 ALA2        0.0000 
      9 OD1        -5.4500    2.8600   14.3800 O.co2     2 ASP3        0.0000 
     10 OD1        -6.4300    3.9900   14.2700 O.co2     2 ASP3        0.0000 
     11 OD1       -11.0400    4.2500   17.0800 O.co2     2 ASP3        0.0000 
     12 OD1       -12.0200    5.3900   16.9700 O.co2     2 ASP3        0.0000 
     13 OD1        -1.9900    3.7800   13.5800 O.co2     2 ASP3        0.0000 
     14 OD1        -5.6200    2.9100   16.4900 O.co2     2 ASP3        0.0000 
     15 OD1        -4.7400    3.5800   15.4800 O.co2     2 ASP3        0.0000 
     16 OD1        -6.6000    4.0400   16.3900 O.co2     2 ASP3        0.0000 
     17 OD1        -9.3500    3.8400   18.2900 O.co2     2 ASP3        0.0000 
     18 OD1       -10.3300    4.9700   18.1900 O.co2     2 ASP3        0.0000 
     19 OD1       -12.2800    7.2400   17.9700 O.co2     2 ASP3        0.0000 
     20 OD1        -7.6600    3.4300   19.5100 O.co2     2 ASP3        0.0000 
     21 OD1        -9.5200    3.8900   20.4100 O.co2     2 ASP3        0.0000 
     22 OD1       -10.5900    6.8300   19.1800 O.co2     2 ASP3        0.0000 
     23 OD1       -11.5700    7.9600   19.0800 O.co2     2 ASP3        0.0000 
     24 OD1        -6.9400    4.1500   20.6100 O.co2     2 ASP3        0.0000 
     25 OD1        -8.8100    4.6100   21.5100 O.co2     2 ASP3        0.0000 
     26 OD1        -7.9200    5.2800   20.5100 O.co2     2 ASP3        0.0000 
     27 OD1        -9.7800    5.7500   21.4100 O.co2     2 ASP3        0.0000 
     28 OD1        -8.0100    7.0800   19.3900 O.co2     2 ASP3        0.0000 
     29 OD1        -7.1200    7.7500   18.3800 O.co2     2 ASP3        0.0000 
     30 OD1        -9.8700    7.5500   20.2900 O.co2     2 ASP3        0.0000 
     31 OD1        -8.9900    8.2200   19.2800 O.co2     2 ASP3        0.0000 
     32 OD1        -8.1000    8.8900   18.2700 O.co2     2 ASP3        0.0000 
     33 OD1        -9.9600    9.3500   19.1700 O.co2     2 ASP3        0.0000 
     34 OD1        -8.0900    5.3300   22.6200 O.co2     2 ASP3        0.0000 
     35 OD1        -7.2100    6.0000   21.6100 O.co2     2 ASP3        0.0000 
     36 OD1        -6.3200    6.6700   20.6000 O.co2     2 ASP3        0.0000 
     37 OD1        -8.1800    7.1400   21.5000 O.co2     2 ASP3        0.0000 
     38 OD1        -7.3000    7.8000   20.4900 O.co2     2 ASP3        0.0000 
     39 OD1        -9.1600    8.2700   21.4000 O.co2     2 ASP3        0.0000 
     40 OD1        -6.4900    6.7200   22.7200 O.co2     2 ASP3        0.0000 
     41 NZ         -9.2700    5.5900   15.0700 N.4       3 LYS4        0.0000 
     42 NZ         -5.7100    4.7100   15.3800 N.4       3 LYS4        0.0000 
     43 NZ         -4.8300    5.3800   14.3700 N.4       3 LYS4        0.0000 
     44 NZ         -7.5800    5.1800   16.2800 N.4       3 LYS4        0.0000 
     45 NZ         -6.6900    5.8500   15.2700 N.4       3 LYS4        0.0000 
     46 NZ         -8.5500    6.3100   16.1700 N.4       3 LYS4        0.0000 
     47 NZ         -9.5300    7.4500   16.0600 N.4       3 LYS4        0.0000 
     48 NZ         -7.8400    7.0300   17.2800 N.4       3 LYS4        0.0000 
     49 NZ         -8.8200    8.1700   17.1700 N.4       3 LYS4        0.0000 
     50 NZ         -7.9300    8.8300   16.1600 N.4       3 LYS4        0.0000 
     51 NZ         -7.2100    9.5500   17.2700 N.4       3 LYS4        0.0000 
     52 CZ         -4.4700    1.7300   14.4900 C.ar      4 PHE5        0.0000 
     53 CZ         -3.5900    2.4000   13.4800 C.ar      4 PHE5        0.0000 
     54 CZ         -2.7000    3.0600   12.4700 C.ar      4 PHE5        0.0000 
     55 CZ         -4.5600    3.5300   13.3700 C.ar      4 PHE5        0.0000 
     56 CZ         -5.5400    4.6600   13.2600 C.ar      4 PHE5        0.0000 
     57 CZ         -1.9000    1.9800   14.6900 C.ar      4 PHE5        0.0000 
     58 CZ         -3.7600    2.4500   15.5900 C.ar      4 PHE5        0.0000 
     59 CZ         -3.8500    4.2500   14.4800 C.ar      4 PHE5        0.0000 
     60 CZ         -2.9600    4.9200   13.4700 C.ar      4 PHE5        0.0000 
     61 CZ         -2.0800    5.5900   12.4600 C.ar      4 PHE5        0.0000 
     62 CZ         -3.9400    6.0500   13.3600 C.ar      4 PHE5        0.0000 
     63 CA        -10.1500    4.9200   16.0700 C.3       5 GLY6        0.0000 
     64 CA         -2.8700    3.1200   14.5800 C.3       5 GLY6        0.0000 
     65 CA         -3.0400    3.1700   16.7000 C.3       5 GLY6        0.0000 
     66 CA         -4.0200    4.3000   16.5900 C.3       5 GLY6        0.0000 
     67 CA         -3.1300    4.9700   15.5800 C.3       5 GLY6        0.0000 
     68 CA         -5.0000    5.4300   16.4800 C.3       5 GLY6        0.0000 
     69 CA         -4.1100    6.1000   15.4700 C.3       5 GLY6        0.0000 
     70 CA         -4.1900    4.3500   18.7000 C.3       5 GLY6        0.0000 
     71 CA         -6.0600    4.8200   19.6000 C.3       5 GLY6        0.0000 
     72 CA         -5.1700    5.4900   18.6000 C.3       5 GLY6        0.0000 
     73 CA         -4.2800    6.1500   17.5900 C.3       5 GLY6        0.0000 
     74 CA         -3.4000    6.8200   16.5800 C.3       5 GLY6        0.0000 
     75 CA         -5.2600    7.2900   17.4800 C.3       5 GLY6        0.0000 
     76 CA         -5.3400    5.5400   20.7100 C.3       5 GLY6        0.0000 
     77 CA         -4.4600    6.2100   19.7000 C.3       5 GLY6        0.0000 
     78 CA         -5.4300    7.3400   19.5900 C.3       5 GLY6        0.0000 
     79 CA         -6.5800    8.5200   21.6000 C.3       5 GLY6        0.0000 
     80 DU         -8.4600    4.5100   17.2900 H         6 CUB7        0.0000 
     81 DU         -9.4400    5.6400   17.1800 H         6 CUB7        0.0000 
     82 DU        -11.3000    6.1100   18.0800 H         6 CUB7        0.0000 
     83 DU         -4.9100    3.6300   17.6000 H         6 CUB7        0.0000 
     84 DU         -6.7700    4.1000   18.5000 H         6 CUB7        0.0000 
     85 DU         -5.8900    4.7700   17.4900 H         6 CUB7        0.0000 
     86 DU         -8.6400    4.5600   19.4000 H         6 CUB7        0.0000 
     87 DU         -6.8600    5.9000   17.3800 H         6 CUB7        0.0000 
     88 DU         -9.6100    5.6900   19.2900 H         6 CUB7        0.0000 
     89 DU         -8.7300    6.3600   18.2800 H         6 CUB7        0.0000 
     90 DU         -9.7000    7.5000   18.1800 H         6 CUB7        0.0000 
     91 DU         -7.0300    5.9500   19.5000 H         6 CUB7        0.0000 
     92 DU         -6.1500    6.6200   18.4900 H         6 CUB7        0.0000 
     93 DU         -8.9000    6.4100   20.4000 H         6 CUB7        0.0000 
@<TRIPOS>BOND
@<TRIPOS>SUBSTRUCTURE
     1 ALA2        1 GROUP   
     2 ASP3        9 GROUP   
     3 LYS4       41 GROUP   
     4 PHE5       52 GROUP   
     5 GLY6       63 GROUP   
     6 CUB7       80 GROUP   
@<TRIPOS>SET

