#    Name: 6hj3_5_FUM_CAVITY_N1_6
#    Modification time : Fri May 22 19:25:20 2020

@<TRIPOS>MOLECULE
6hj3_5_FUM_CAVITY_N1_6
    9     0     2     0     0
SMALL
NO_CHARGES


@<TRIPOS>ATOM
      1 OD1        52.5600  -22.4500    1.8800 O.co2     1 ASP3        0.0000 
      2 OD1        52.8800  -23.8600    2.2900 O.co2     1 ASP3        0.0000 
      3 OD1        53.5700  -23.3500    3.5200 O.co2     1 ASP3        0.0000 
      4 CA         51.1900  -23.4700   -0.5800 C.3       2 GLY6        0.0000 
      5 CA         51.5100  -24.8800   -0.1800 C.3       2 GLY6        0.0000 
      6 CA         51.8800  -22.9600    0.6500 C.3       2 GLY6        0.0000 
      7 CA         52.1900  -24.3700    1.0500 C.3       2 GLY6        0.0000 
      8 CA         52.2500  -21.0500    1.4700 C.3       2 GLY6        0.0000 
      9 CA         53.2500  -21.9500    3.1100 C.3       2 GLY6        0.0000 
@<TRIPOS>BOND
@<TRIPOS>SUBSTRUCTURE
     1 ASP3        1 GROUP   
     2 GLY6        4 GROUP   
@<TRIPOS>SET

