#    Name: 6hj3_5_FUM
#    Modification time : Fri May 22 19:25:19 2020

@<TRIPOS>MOLECULE
6hj3_5_FUM
    8     7     1     0     0
SMALL
NO_CHARGES


@<TRIPOS>ATOM
      1 O1         56.8210  -22.5590   -1.2760 O.co2     1 FUM408      0.0000 
      2 C2         57.8040  -22.3710   -2.0410 C.2       1 FUM408      0.0000 
      3 O3         57.6210  -21.9780   -3.3450 O.co2     1 FUM408      0.0000 
      4 C4         59.2690  -22.4850   -1.7710 C.2       1 FUM408      0.0000 
      5 C5         59.8030  -22.8710   -0.6020 C.2       1 FUM408      0.0000 
      6 C6         61.3000  -22.9290   -0.4750 C.2       1 FUM408      0.0000 
      7 O7         62.1390  -22.6420   -1.3060 O.co2     1 FUM408      0.0000 
      8 O8         61.7490  -23.3400    0.7370 O.co2     1 FUM408      0.0000 
@<TRIPOS>BOND
     1    1    2 ar   
     2    2    3 ar   
     3    2    4 1    
     4    4    5 2    
     5    5    6 1    
     6    6    7 ar   
     7    6    8 ar   
@<TRIPOS>SUBSTRUCTURE
     1 FUM408      1 GROUP   
@<TRIPOS>SET

