#    Name: 6hj3_5_FUM_CAVITY_N1_8
#    Modification time : Fri May 22 19:25:20 2020

@<TRIPOS>MOLECULE
6hj3_5_FUM_CAVITY_N1_8
   30     0     4     0     0
SMALL
NO_CHARGES


@<TRIPOS>ATOM
      1 N          49.5600  -19.7600   -3.0400 N.am      1 ALA2        0.0000 
      2 O          51.9000  -25.3500    3.4500 O.2       1 ALA2        0.0000 
      3 O          52.2700  -23.4300    4.2700 O.2       1 ALA2        0.0000 
      4 OD1        49.9500  -20.2200    0.5900 O.co2     2 ASP3        0.0000 
      5 OD1        52.5600  -22.4500    1.8800 O.co2     2 ASP3        0.0000 
      6 OD1        52.8800  -23.8600    2.2900 O.co2     2 ASP3        0.0000 
      7 OD1        53.1900  -25.2700    2.6900 O.co2     2 ASP3        0.0000 
      8 OD1        53.5700  -23.3500    3.5200 O.co2     2 ASP3        0.0000 
      9 NZ         49.5800  -22.1400   -0.2400 N.4       3 LYS4        0.0000 
     10 NZ         49.8900  -23.5500    0.1700 N.4       3 LYS4        0.0000 
     11 CA         49.5000  -23.0900   -3.4600 C.3       4 GLY6        0.0000 
     12 CA         49.8700  -21.1700   -2.6300 C.3       4 GLY6        0.0000 
     13 CA         50.1900  -22.5800   -2.2200 C.3       4 GLY6        0.0000 
     14 CA         50.5000  -23.9800   -1.8200 C.3       4 GLY6        0.0000 
     15 CA         49.2600  -20.7300   -0.6500 C.3       4 GLY6        0.0000 
     16 CA         51.1900  -23.4700   -0.5800 C.3       4 GLY6        0.0000 
     17 CA         51.5100  -24.8800   -0.1800 C.3       4 GLY6        0.0000 
     18 CA         50.2100  -24.9600    0.5800 C.3       4 GLY6        0.0000 
     19 CA         50.2700  -21.6300    0.9900 C.3       4 GLY6        0.0000 
     20 CA         51.8800  -22.9600    0.6500 C.3       4 GLY6        0.0000 
     21 CA         50.5800  -23.0400    1.4000 C.3       4 GLY6        0.0000 
     22 CA         52.1900  -24.3700    1.0500 C.3       4 GLY6        0.0000 
     23 CA         50.9000  -24.4500    1.8100 C.3       4 GLY6        0.0000 
     24 CA         52.5100  -25.7800    1.4600 C.3       4 GLY6        0.0000 
     25 CA         52.2500  -21.0500    1.4700 C.3       4 GLY6        0.0000 
     26 CA         50.9500  -21.1200    2.2300 C.3       4 GLY6        0.0000 
     27 CA         51.2700  -22.5300    2.6300 C.3       4 GLY6        0.0000 
     28 CA         51.5800  -23.9400    3.0400 C.3       4 GLY6        0.0000 
     29 CA         53.2500  -21.9500    3.1100 C.3       4 GLY6        0.0000 
     30 CA         51.9500  -22.0200    3.8600 C.3       4 GLY6        0.0000 
@<TRIPOS>BOND
@<TRIPOS>SUBSTRUCTURE
     1 ALA2        1 GROUP   
     2 ASP3        4 GROUP   
     3 LYS4        9 GROUP   
     4 GLY6       11 GROUP   
@<TRIPOS>SET

