#    Name: 6g8g_2_GEN
#    Modification time : Fri May 22 19:29:52 2020

@<TRIPOS>MOLECULE
6g8g_2_GEN
   20    22     1     0     0
SMALL
NO_CHARGES


@<TRIPOS>ATOM
      1 C1         54.9410   27.5620   26.1190 C.ar      1 GEN1002     0.0000 
      2 C2         54.3700   26.2730   26.3010 C.ar      1 GEN1002     0.0000 
      3 O2         53.0280   26.0840   26.0340 O.3       1 GEN1002     0.0000 
      4 C3         55.1510   25.1650   26.7410 C.ar      1 GEN1002     0.0000 
      5 C4         56.5270   25.2920   27.0340 C.ar      1 GEN1002     0.0000 
      6 O4         57.2740   24.2270   27.4610 O.co2     1 GEN1002     0.0000 
      7 C5         57.1690   26.6370   26.8710 C.ar      1 GEN1002     0.0000 
      8 C6         58.6310   26.8560   27.1620 C.2       1 GEN1002     0.0000 
      9 O6         59.3990   25.9010   27.5570 O.2       1 GEN1002     0.0000 
     10 C7         59.0650   28.3010   26.9990 C.2       1 GEN1002     0.0000 
     11 C8         58.1430   29.2740   26.5030 C.2       1 GEN1002     0.0000 
     12 O9         56.8310   29.0500   26.2450 O.3       1 GEN1002     0.0000 
     13 C10        56.3020   27.7870   26.3910 C.ar      1 GEN1002     0.0000 
     14 C11        60.4900   28.7250   26.9850 C.ar      1 GEN1002     0.0000 
     15 C12        61.0370   30.0140   27.1410 C.ar      1 GEN1002     0.0000 
     16 C13        62.4180   30.2090   26.8710 C.ar      1 GEN1002     0.0000 
     17 C14        63.2270   29.1680   26.3420 C.ar      1 GEN1002     0.0000 
     18 O14        64.5580   29.3400   26.0710 O.3       1 GEN1002     0.0000 
     19 C15        62.6640   27.9210   26.0850 C.ar      1 GEN1002     0.0000 
     20 C16        61.3150   27.7290   26.3620 C.ar      1 GEN1002     0.0000 
@<TRIPOS>BOND
     1    1    2 ar   
     2    1   13 ar   
     3    2    3 1    
     4    2    4 ar   
     5    4    5 ar   
     6    5    6 ar   
     7    5    7 ar   
     8    7    8 1    
     9    7   13 ar   
    10    8    9 2    
    11    8   10 1    
    12   10   11 2    
    13   10   14 1    
    14   11   12 1    
    15   12   13 1    
    16   14   15 ar   
    17   14   20 ar   
    18   15   16 ar   
    19   16   17 ar   
    20   17   18 1    
    21   17   19 ar   
    22   19   20 ar   
@<TRIPOS>SUBSTRUCTURE
     1 GEN1002     1 GROUP   
@<TRIPOS>SET

