#    Name: 6g8g_1_GEN
#    Modification time : Fri May 22 19:29:45 2020

@<TRIPOS>MOLECULE
6g8g_1_GEN
   20    22     1     0     0
SMALL
NO_CHARGES


@<TRIPOS>ATOM
      1 C1         23.5260   21.8740    2.9010 C.ar      1 GEN1001     0.0000 
      2 C2         24.6390   22.7580    3.1150 C.ar      1 GEN1001     0.0000 
      3 O2         25.9390   22.3540    2.9070 O.3       1 GEN1001     0.0000 
      4 C3         24.5030   24.0820    3.5380 C.ar      1 GEN1001     0.0000 
      5 C4         23.2510   24.5870    3.7770 C.ar      1 GEN1001     0.0000 
      6 O4         23.1930   25.8790    4.1930 O.co2     1 GEN1001     0.0000 
      7 C5         22.0570   23.6890    3.5820 C.ar      1 GEN1001     0.0000 
      8 C6         20.6930   24.1650    3.8260 C.2       1 GEN1001     0.0000 
      9 O6         20.5750   25.3660    4.1930 O.2       1 GEN1001     0.0000 
     10 C7         19.5470   23.1760    3.6670 C.2       1 GEN1001     0.0000 
     11 C8         19.7910   21.8510    3.1890 C.2       1 GEN1001     0.0000 
     12 O9         21.0510   21.4250    2.9500 O.3       1 GEN1001     0.0000 
     13 C10        22.1850   22.2680    3.1190 C.ar      1 GEN1001     0.0000 
     14 C11        18.1500   23.7230    3.7100 C.ar      1 GEN1001     0.0000 
     15 C12        16.9480   22.9950    3.8190 C.ar      1 GEN1001     0.0000 
     16 C13        15.7330   23.7170    3.6540 C.ar      1 GEN1001     0.0000 
     17 C14        15.7050   25.0990    3.2920 C.ar      1 GEN1001     0.0000 
     18 O14        14.5280   25.7820    3.1290 O.3       1 GEN1001     0.0000 
     19 C15        16.8880   25.8010    3.0890 C.ar      1 GEN1001     0.0000 
     20 C16        18.0680   25.1020    3.2630 C.ar      1 GEN1001     0.0000 
@<TRIPOS>BOND
     1    1    2 ar   
     2    1   13 ar   
     3    2    3 1    
     4    2    4 ar   
     5    4    5 ar   
     6    5    6 ar   
     7    5    7 ar   
     8    7    8 1    
     9    7   13 ar   
    10    8    9 2    
    11    8   10 1    
    12   10   11 2    
    13   10   14 1    
    14   11   12 1    
    15   12   13 1    
    16   14   15 ar   
    17   14   20 ar   
    18   15   16 ar   
    19   16   17 ar   
    20   17   18 1    
    21   17   19 ar   
    22   19   20 ar   
@<TRIPOS>SUBSTRUCTURE
     1 GEN1001     1 GROUP   
@<TRIPOS>SET

