#    Name: 6fdm_1_ANP
#    Modification time : Fri May 22 19:31:40 2020

@<TRIPOS>MOLECULE
6fdm_1_ANP
   31    33     1     0     1
SMALL
NO_CHARGES


@<TRIPOS>ATOM
      1 PG         59.9600   13.5770  183.2170 P.3       1 ANP401      0.0000 
      2 O1G        60.6650   14.7190  182.5860 O.co2     1 ANP401      0.0000 
      3 O2G        60.6840   12.2930  182.9510 O.co2     1 ANP401      0.0000 
      4 O3G        59.8390   13.8680  184.6730 O.co2     1 ANP401      0.0000 
      5 PB         57.5740   14.8550  182.1360 P.3       1 ANP401      0.0000 
      6 O1B        56.9850   14.6150  180.7100 O.co2     1 ANP401      0.0000 
      7 O2B        58.4380   16.0490  182.1190 O.co2     1 ANP401      0.0000 
      8 N3B        58.4640   13.5350  182.5410 N.3       1 ANP401      0.0000 
      9 PA         56.7810   15.0080  184.8410 P.3       1 ANP401      0.0000 
     10 O1A        58.0090   15.8670  185.1430 O.co2     1 ANP401      0.0000 
     11 O2A        55.6070   15.5240  185.5860 O.co2     1 ANP401      0.0000 
     12 O3A        56.4890   15.0360  183.2670 O.3       1 ANP401      0.0000 
     13 O5'        57.0950   13.5050  185.2840 O.3       1 ANP401      0.0000 
     14 C5'        57.2070   13.1060  186.6640 C.3       1 ANP401      0.0000 
     15 C4'        57.8870   11.7620  186.7210 C.3       1 ANP401      0.0000 
     16 O4'        57.5400   10.9630  185.5620 O.3       1 ANP401      0.0000 
     17 C3'        59.4150   11.7930  186.7810 C.3       1 ANP401      0.0000 
     18 O3'        59.8830   11.1780  187.9750 O.3       1 ANP401      0.0000 
     19 C2'        59.8310   11.0950  185.4730 C.3       1 ANP401      0.0000 
     20 O2'        61.0770   10.4170  185.4140 O.3       1 ANP401      0.0000 
     21 C1'        58.6630   10.1730  185.2430 C.3       1 ANP401      0.0000 
     22 N9         58.5330    9.5970  183.9020 N.pl3     1 ANP401      0.0000 
     23 C8         58.3950   10.2610  182.7100 C.2       1 ANP401      0.0000 
     24 N7         58.1730    9.4750  181.6830 N.2       1 ANP401      0.0000 
     25 C5         58.1580    8.2040  182.2390 C.ar      1 ANP401      0.0000 
     26 C6         57.8720    6.9340  181.6990 C.ar      1 ANP401      0.0000 
     27 N6         57.3340    6.7490  180.4930 N.pl3     1 ANP401      0.0000 
     28 N1         57.9710    5.8650  182.5200 N.ar      1 ANP401      0.0000 
     29 C2         58.2720    6.0660  183.8050 C.ar      1 ANP401      0.0000 
     30 N3         58.4920    7.2210  184.4420 N.ar      1 ANP401      0.0000 
     31 C4         58.4150    8.2620  183.6000 C.ar      1 ANP401      0.0000 
@<TRIPOS>BOND
     1    1    2 ar   
     2    1    3 ar   
     3    1    4 ar   
     4    1    8 1    
     5    5    6 ar   
     6    5    7 ar   
     7    5    8 1    
     8    5   12 1    
     9    9   10 ar   
    10    9   11 ar   
    11    9   12 1    
    12    9   13 1    
    13   13   14 1    
    14   14   15 1    
    15   15   16 1    
    16   15   17 1    
    17   16   21 1    
    18   17   18 1    
    19   17   19 1    
    20   19   20 1    
    21   19   21 1    
    22   21   22 1    
    23   22   23 1    
    24   22   31 1    
    25   23   24 2    
    26   24   25 1    
    27   25   26 ar   
    28   25   31 ar   
    29   26   27 1    
    30   26   28 ar   
    31   28   29 ar   
    32   29   30 ar   
    33   30   31 ar   
@<TRIPOS>SUBSTRUCTURE
     1 ANP401      1 GROUP   
@<TRIPOS>SET
ATOM$ORANGE STATIC     ATOMS   COLORGROUP SYSTEM 
20 14 14 15 15 17 17 19 19 21 21 23 23 25 25 26 26 29 \
29 31 31 

