#    Name: 6fdm_2_ANP
#    Modification time : Fri May 22 19:31:45 2020

@<TRIPOS>MOLECULE
6fdm_2_ANP
   31    33     1     0     1
SMALL
NO_CHARGES


@<TRIPOS>ATOM
      1 PG         84.4950   54.6180  103.7160 P.3       1 ANP401      0.0000 
      2 O1G        85.1090   53.5970  102.8410 O.co2     1 ANP401      0.0000 
      3 O2G        84.9490   54.4220  105.1280 O.co2     1 ANP401      0.0000 
      4 O3G        84.8810   55.9800  103.2330 O.co2     1 ANP401      0.0000 
      5 PB         81.7710   55.6780  103.9990 P.3       1 ANP401      0.0000 
      6 O1B        81.8390   56.7120  102.9410 O.co2     1 ANP401      0.0000 
      7 O2B        80.3420   55.0430  104.0640 O.co2     1 ANP401      0.0000 
      8 N3B        82.8570   54.4910  103.6620 N.3       1 ANP401      0.0000 
      9 PA         83.1430   57.4660  105.9140 P.3       1 ANP401      0.0000 
     10 O1A        82.7180   58.7820  105.3860 O.co2     1 ANP401      0.0000 
     11 O2A        84.5820   57.2060  105.4560 O.co2     1 ANP401      0.0000 
     12 O3A        82.1510   56.3260  105.3980 O.3       1 ANP401      0.0000 
     13 O5'        83.0890   57.4740  107.5130 O.3       1 ANP401      0.0000 
     14 C5'        84.0030   56.6520  108.2610 C.3       1 ANP401      0.0000 
     15 C4'        83.2520   55.7080  109.1640 C.3       1 ANP401      0.0000 
     16 O4'        82.7890   54.5720  108.4140 O.3       1 ANP401      0.0000 
     17 C3'        84.1010   55.1340  110.2950 C.3       1 ANP401      0.0000 
     18 O3'        83.9700   55.9130  111.4770 O.3       1 ANP401      0.0000 
     19 C2'        83.5920   53.6930  110.4630 C.3       1 ANP401      0.0000 
     20 O2'        82.9960   53.4560  111.7320 O.3       1 ANP401      0.0000 
     21 C1'        82.5750   53.5160  109.3260 C.3       1 ANP401      0.0000 
     22 N9         82.6580   52.2450  108.6000 N.pl3     1 ANP401      0.0000 
     23 C8         82.1870   52.0180  107.3350 C.2       1 ANP401      0.0000 
     24 N7         82.3540   50.7880  106.9150 N.2       1 ANP401      0.0000 
     25 C5         82.9800   50.1590  107.9810 C.ar      1 ANP401      0.0000 
     26 C6         83.4750   48.8490  108.1520 C.ar      1 ANP401      0.0000 
     27 N6         83.3720   47.8900  107.2430 N.pl3     1 ANP401      0.0000 
     28 N1         84.1130   48.5630  109.3060 N.ar      1 ANP401      0.0000 
     29 C2         84.2540   49.5280  110.2150 C.ar      1 ANP401      0.0000 
     30 N3         83.8190   50.7900  110.1700 N.ar      1 ANP401      0.0000 
     31 C4         83.1810   51.0450  109.0220 C.ar      1 ANP401      0.0000 
@<TRIPOS>BOND
     1    1    2 ar   
     2    1    3 ar   
     3    1    4 ar   
     4    1    8 1    
     5    5    6 ar   
     6    5    7 ar   
     7    5    8 1    
     8    5   12 1    
     9    9   10 ar   
    10    9   11 ar   
    11    9   12 1    
    12    9   13 1    
    13   13   14 1    
    14   14   15 1    
    15   15   16 1    
    16   15   17 1    
    17   16   21 1    
    18   17   18 1    
    19   17   19 1    
    20   19   20 1    
    21   19   21 1    
    22   21   22 1    
    23   22   23 1    
    24   22   31 1    
    25   23   24 2    
    26   24   25 1    
    27   25   26 ar   
    28   25   31 ar   
    29   26   27 1    
    30   26   28 ar   
    31   28   29 ar   
    32   29   30 ar   
    33   30   31 ar   
@<TRIPOS>SUBSTRUCTURE
     1 ANP401      1 GROUP   
@<TRIPOS>SET
ATOM$ORANGE STATIC     ATOMS   COLORGROUP SYSTEM 
20 14 14 15 15 17 17 19 19 21 21 23 23 25 25 26 26 29 \
29 31 31 

