#    Name: 6q2p_1_SAH
#    Modification time : Fri May 22 19:28:47 2020

@<TRIPOS>MOLECULE
6q2p_1_SAH
   26    28     1     0     0
SMALL
NO_CHARGES


@<TRIPOS>ATOM
      1 N          12.7810   13.6990   58.3320 N.4       1 SAH402      0.0000 
      2 CA         11.4950   14.3880   58.5030 C.3       1 SAH402      0.0000 
      3 CB         11.0710   15.1520   57.2390 C.3       1 SAH402      0.0000 
      4 CG         11.4110   14.4500   55.9130 C.3       1 SAH402      0.0000 
      5 SD         10.2330   13.1580   55.4190 S.3       1 SAH402      0.0000 
      6 C          10.4210   13.4170   58.9220 C.2       1 SAH402      0.0000 
      7 O          10.5290   12.2100   58.8130 O.co2     1 SAH402      0.0000 
      8 OXT         9.3200   13.9130   59.4550 O.co2     1 SAH402      0.0000 
      9 C5'         8.7100   14.1220   55.1660 C.3       1 SAH402      0.0000 
     10 C4'         7.4450   13.2810   55.4100 C.3       1 SAH402      0.0000 
     11 O4'         7.3510   12.2430   54.4100 O.3       1 SAH402      0.0000 
     12 C3'         7.4540   12.6080   56.8000 C.3       1 SAH402      0.0000 
     13 O3'         6.1750   12.7640   57.4210 O.3       1 SAH402      0.0000 
     14 C2'         7.7590   11.1340   56.4520 C.3       1 SAH402      0.0000 
     15 O2'         7.2950   10.2090   57.4420 O.3       1 SAH402      0.0000 
     16 C1'         7.0250   11.0140   55.0880 C.3       1 SAH402      0.0000 
     17 N9          7.5330    9.8970   54.2950 N.pl3     1 SAH402      0.0000 
     18 C8          8.8230    9.4430   54.2110 C.2       1 SAH402      0.0000 
     19 N7          8.8760    8.4340   53.3770 N.2       1 SAH402      0.0000 
     20 C5          7.6190    8.2080   52.8770 C.ar      1 SAH402      0.0000 
     21 C6          7.0560    7.2840   51.9760 C.ar      1 SAH402      0.0000 
     22 N6          7.8450    6.3260   51.3760 N.pl3     1 SAH402      0.0000 
     23 N1          5.7520    7.3720   51.7180 N.ar      1 SAH402      0.0000 
     24 C2          4.9820    8.2920   52.2970 C.ar      1 SAH402      0.0000 
     25 N3          5.4550    9.1800   53.1550 N.ar      1 SAH402      0.0000 
     26 C4          6.7550    9.1500   53.4590 C.ar      1 SAH402      0.0000 
@<TRIPOS>BOND
     1    1    2 1    
     2    2    3 1    
     3    2    6 1    
     4    3    4 1    
     5    4    5 1    
     6    5    9 1    
     7    6    7 ar   
     8    6    8 ar   
     9    9   10 1    
    10   10   11 1    
    11   10   12 1    
    12   11   16 1    
    13   12   13 1    
    14   12   14 1    
    15   14   15 1    
    16   14   16 1    
    17   16   17 1    
    18   17   18 1    
    19   17   26 1    
    20   18   19 2    
    21   19   20 1    
    22   20   21 ar   
    23   20   26 ar   
    24   21   22 1    
    25   21   23 ar   
    26   23   24 ar   
    27   24   25 ar   
    28   25   26 ar   
@<TRIPOS>SUBSTRUCTURE
     1 SAH402      1 GROUP   
@<TRIPOS>SET

