#    Name: 6q2p_1_SAH_CAVITY_N1_6
#    Modification time : Fri May 22 19:28:48 2020

@<TRIPOS>MOLECULE
6q2p_1_SAH_CAVITY_N1_6
   80     0     6     0     0
SMALL
NO_CHARGES


@<TRIPOS>ATOM
      1 OG          9.4700   14.5100   53.5200 O.3       1 SER1        0.0000 
      2 OG          8.0400   14.4300   53.9600 O.3       1 SER1        0.0000 
      3 OG          7.3300   12.1600   56.3300 O.3       1 SER1        0.0000 
      4 OG          7.6900   11.0700   57.3000 O.3       1 SER1        0.0000 
      5 OG          8.3000   15.4500   55.0200 O.3       1 SER1        0.0000 
      6 OG         10.0900   14.4500   55.5400 O.3       1 SER1        0.0000 
      7 OG          9.0200   13.2700   56.9500 O.3       1 SER1        0.0000 
      8 OG          7.5900   13.1900   57.3900 O.3       1 SER1        0.0000 
      9 OG          9.3900   12.1900   57.9200 O.3       1 SER1        0.0000 
     10 OG         10.3600   15.4800   56.6000 O.3       1 SER1        0.0000 
     11 OG          9.6500   13.2100   58.9700 O.3       1 SER1        0.0000 
     12 N          11.4500    9.2700   53.8500 N.am      2 ALA2        0.0000 
     13 N          12.7800   11.4700   53.5100 N.am      2 ALA2        0.0000 
     14 N          11.3500   11.3900   53.9500 N.am      2 ALA2        0.0000 
     15 N          11.7100   10.3000   54.9100 N.am      2 ALA2        0.0000 
     16 N          12.0800    9.2100   55.8800 N.am      2 ALA2        0.0000 
     17 N          11.2600   13.5000   54.0400 N.am      2 ALA2        0.0000 
     18 O          13.0500   12.5000   54.5700 O.2       2 ALA2        0.0000 
     19 N          11.6200   12.4100   55.0100 N.am      2 ALA2        0.0000 
     20 N          13.4100   11.4100   55.5300 N.am      2 ALA2        0.0000 
     21 N          11.9800   11.3200   55.9700 N.am      2 ALA2        0.0000 
     22 N          15.2000   10.4000   56.0600 N.am      2 ALA2        0.0000 
     23 N          13.7700   10.3200   56.5000 N.am      2 ALA2        0.0000 
     24 N          12.3400   10.2300   56.9400 N.am      2 ALA2        0.0000 
     25 N          14.1300    9.2300   57.4600 N.am      2 ALA2        0.0000 
     26 N          12.7000    9.1500   57.9100 N.am      2 ALA2        0.0000 
     27 N          11.5300   14.5300   55.1000 N.am      2 ALA2        0.0000 
     28 N          11.8900   13.4400   56.0700 N.am      2 ALA2        0.0000 
     29 N          13.6800   12.4400   56.5900 N.am      2 ALA2        0.0000 
     30 N          12.2500   12.3500   57.0300 N.am      2 ALA2        0.0000 
     31 N          14.0400   11.3500   57.5600 N.am      2 ALA2        0.0000 
     32 N          14.4000   10.2600   58.5200 N.am      2 ALA2        0.0000 
     33 N          10.7200   14.3900   57.5700 N.am      2 ALA2        0.0000 
     34 N          12.5100   13.3800   58.0900 N.am      2 ALA2        0.0000 
     35 O          11.0800   13.3000   58.5300 O.2       2 ALA2        0.0000 
     36 N          14.3100   12.3700   58.6200 N.am      2 ALA2        0.0000 
     37 O          13.2400   11.2000   60.0200 O.2       2 ALA2        0.0000 
     38 OD1         8.8500   10.1300   55.8000 O.co2     3 ASP3        0.0000 
     39 OD1         9.2100    9.0400   56.7600 O.co2     3 ASP3        0.0000 
     40 OD1         9.1200   11.1600   56.8600 O.co2     3 ASP3        0.0000 
     41 OD1        10.9100   10.1500   57.3800 O.co2     3 ASP3        0.0000 
     42 OD1        11.2700    9.0600   58.3500 O.co2     3 ASP3        0.0000 
     43 OD1        12.6100   11.2600   58.0000 O.co2     3 ASP3        0.0000 
     44 OD1        11.1800   11.1800   58.4400 O.co2     3 ASP3        0.0000 
     45 OD1        12.9700   10.1700   58.9600 O.co2     3 ASP3        0.0000 
     46 OD1        11.4400   12.2100   59.5000 O.co2     3 ASP3        0.0000 
     47 CZ          7.9600    9.1600   52.7100 C.ar      4 PHE5        0.0000 
     48 CZ          6.5300    9.0800   53.1500 C.ar      4 PHE5        0.0000 
     49 CZ          8.3200    8.0700   53.6800 C.ar      4 PHE5        0.0000 
     50 CZ          8.2200   10.1900   53.7700 C.ar      4 PHE5        0.0000 
     51 CZ          8.5900    9.1000   54.7400 C.ar      4 PHE5        0.0000 
     52 CZ         10.3800    8.1000   55.2600 C.ar      4 PHE5        0.0000 
     53 CZ          8.1300   12.3100   53.8600 C.ar      4 PHE5        0.0000 
     54 CZ          6.7000   12.2300   54.3100 C.ar      4 PHE5        0.0000 
     55 CZ          9.9200   11.3000   54.3900 C.ar      4 PHE5        0.0000 
     56 CZ          8.4900   11.2200   54.8300 C.ar      4 PHE5        0.0000 
     57 CZ          5.6300   11.0500   55.7100 C.ar      4 PHE5        0.0000 
     58 CZ         10.6400    9.1200   56.3200 C.ar      4 PHE5        0.0000 
     59 CZ          9.8300   13.4200   54.4800 C.ar      4 PHE5        0.0000 
     60 CZ          8.4000   13.3400   54.9200 C.ar      4 PHE5        0.0000 
     61 CZ          5.5300   13.1700   55.8100 C.ar      4 PHE5        0.0000 
     62 CZ          5.8900   12.0800   56.7700 C.ar      4 PHE5        0.0000 
     63 CA          6.7900   10.1100   54.2100 C.3       5 GLY6        0.0000 
     64 CA         10.0200    9.1900   54.3000 C.3       5 GLY6        0.0000 
     65 CA          7.1500    9.0200   55.1800 C.3       5 GLY6        0.0000 
     66 CA         10.9900   12.4800   52.9800 C.3       5 GLY6        0.0000 
     67 CA          7.0600   11.1400   55.2700 C.3       5 GLY6        0.0000 
     68 CA          7.4200   10.0500   56.2400 C.3       5 GLY6        0.0000 
     69 CA         12.4400    8.1200   56.8500 C.3       5 GLY6        0.0000 
     70 CA          8.6600   14.3600   55.9800 C.3       5 GLY6        0.0000 
     71 CA          7.2300   14.2800   56.4200 C.3       5 GLY6        0.0000 
     72 CA          9.2900   14.3000   58.0100 C.3       5 GLY6        0.0000 
     73 CA         12.8800   12.2900   59.0600 C.3       5 GLY6        0.0000 
     74 DU         10.2800   10.2100   55.3500 H         6 CUB7        0.0000 
     75 DU          6.9700   13.2500   55.3600 H         6 CUB7        0.0000 
     76 DU         10.1900   12.3300   55.4500 H         6 CUB7        0.0000 
     77 DU          8.7600   12.2500   55.8900 H         6 CUB7        0.0000 
     78 DU         10.5500   11.2400   56.4100 H         6 CUB7        0.0000 
     79 DU         10.4600   13.3600   56.5100 H         6 CUB7        0.0000 
     80 DU         10.8200   12.2700   57.4700 H         6 CUB7        0.0000 
@<TRIPOS>BOND
@<TRIPOS>SUBSTRUCTURE
     1 SER1        1 GROUP   
     2 ALA2       12 GROUP   
     3 ASP3       38 GROUP   
     4 PHE5       47 GROUP   
     5 GLY6       63 GROUP   
     6 CUB7       74 GROUP   
@<TRIPOS>SET

