#    Name: 6q2p_2_SAH_CAVITY_N1_8
#    Modification time : Fri May 22 19:28:53 2020

@<TRIPOS>MOLECULE
6q2p_2_SAH_CAVITY_N1_8
   85     0     7     0     0
SMALL
NO_CHARGES


@<TRIPOS>ATOM
      1 OG          0.6600  -13.5300   29.8400 O.3       1 SER1        0.0000 
      2 OG          1.6400  -10.2400   28.5300 O.3       1 SER1        0.0000 
      3 OG          0.2100  -10.3200   28.9700 O.3       1 SER1        0.0000 
      4 OG          0.5700  -11.4100   29.9300 O.3       1 SER1        0.0000 
      5 OG          2.3600  -12.4200   30.4600 O.3       1 SER1        0.0000 
      6 OG          0.9300  -12.5000   30.9000 O.3       1 SER1        0.0000 
      7 OG          2.9900  -12.4800   32.4800 O.3       1 SER1        0.0000 
      8 O          -1.0300  -14.6400   29.2200 O.2       2 ALA2        0.0000 
      9 N          -1.1300  -12.5200   29.3200 N.am      2 ALA2        0.0000 
     10 N          -0.7700  -13.6100   30.2800 N.am      2 ALA2        0.0000 
     11 N          -2.2000  -13.7000   30.7200 N.am      2 ALA2        0.0000 
     12 N          -3.6300  -13.7800   31.1600 N.am      2 ALA2        0.0000 
     13 N          -3.2700  -14.8700   32.1300 N.am      2 ALA2        0.0000 
     14 N          -0.8600  -11.5000   30.3700 N.am      2 ALA2        0.0000 
     15 N          -2.2900  -11.5800   30.8200 N.am      2 ALA2        0.0000 
     16 O          -3.7200  -11.6600   31.2600 O.2       2 ALA2        0.0000 
     17 N          -3.3600  -12.7500   32.2200 N.am      2 ALA2        0.0000 
     18 N          -3.0000  -13.8400   33.1900 N.am      2 ALA2        0.0000 
     19 N          -0.9600   -9.3800   30.4700 N.am      2 ALA2        0.0000 
     20 N          -2.3900   -9.4600   30.9100 N.am      2 ALA2        0.0000 
     21 N          -2.0300  -10.5500   31.8800 N.am      2 ALA2        0.0000 
     22 N          -3.4600  -10.6300   32.3200 N.am      2 ALA2        0.0000 
     23 N          -1.6700  -11.6400   32.8400 N.am      2 ALA2        0.0000 
     24 N          -3.1000  -11.7200   33.2800 N.am      2 ALA2        0.0000 
     25 N          -4.5300  -11.8100   33.7200 N.am      2 ALA2        0.0000 
     26 N          -2.7400  -12.8100   34.2500 N.am      2 ALA2        0.0000 
     27 N           0.0300  -10.5300   33.4600 N.am      2 ALA2        0.0000 
     28 N          -1.4000  -10.6100   33.9000 N.am      2 ALA2        0.0000 
     29 O           0.3000   -9.5000   34.5200 O.2       2 ALA2        0.0000 
     30 OD1        -0.4100  -14.7000   31.2500 O.co2     3 ASP3        0.0000 
     31 OD1        -1.8400  -14.7900   31.6900 O.co2     3 ASP3        0.0000 
     32 OD1         1.2900  -13.5900   31.8700 O.co2     3 ASP3        0.0000 
     33 OD1        -0.1400  -13.6700   32.3100 O.co2     3 ASP3        0.0000 
     34 OD1        -1.5700  -13.7600   32.7500 O.co2     3 ASP3        0.0000 
     35 OD1         1.5600  -12.5600   32.9200 O.co2     3 ASP3        0.0000 
     36 OD1         0.1300  -12.6500   33.3700 O.co2     3 ASP3        0.0000 
     37 OD1        -1.3000  -12.7300   33.8100 O.co2     3 ASP3        0.0000 
     38 OD1         1.8200  -11.5400   33.9800 O.co2     3 ASP3        0.0000 
     39 NZ         -2.4600  -14.7200   29.6600 N.4       4 LYS4        0.0000 
     40 CZ          1.9100   -9.2100   29.5900 C.ar      5 PHE5        0.0000 
     41 CZ          0.4700   -9.3000   30.0300 C.ar      5 PHE5        0.0000 
     42 CZ          2.2700  -10.3000   30.5500 C.ar      5 PHE5        0.0000 
     43 CZ          0.8400  -10.3800   30.9900 C.ar      5 PHE5        0.0000 
     44 CZ          4.0600  -11.3100   31.0800 C.ar      5 PHE5        0.0000 
     45 CZ          4.4200  -12.4000   32.0400 C.ar      5 PHE5        0.0000 
     46 CZ          3.9700   -9.1900   31.1700 C.ar      5 PHE5        0.0000 
     47 CZ          1.1000   -9.3600   32.0500 C.ar      5 PHE5        0.0000 
     48 CZ         -0.3300   -9.4400   32.4900 C.ar      5 PHE5        0.0000 
     49 CZ          4.3300  -10.2800   32.1400 C.ar      5 PHE5        0.0000 
     50 CZ          2.8900  -10.3600   32.5800 C.ar      5 PHE5        0.0000 
     51 CZ          1.4600  -10.4500   33.0200 C.ar      5 PHE5        0.0000 
     52 CZ          0.3900  -11.6200   34.4300 C.ar      5 PHE5        0.0000 
     53 CZ          4.5900   -9.2500   33.2000 C.ar      5 PHE5        0.0000 
     54 CZ          3.1600   -9.3400   33.6400 C.ar      5 PHE5        0.0000 
     55 CZ          1.7300   -9.4200   34.0800 C.ar      5 PHE5        0.0000 
     56 CZ          2.0900  -10.5100   35.0400 C.ar      5 PHE5        0.0000 
     57 CZ          0.6600  -10.5900   35.4900 C.ar      5 PHE5        0.0000 
     58 CZ          4.8600   -8.2200   34.2600 C.ar      5 PHE5        0.0000 
     59 CZ          3.4300   -8.3100   34.7000 C.ar      5 PHE5        0.0000 
     60 CZ          2.0000   -8.3900   35.1400 C.ar      5 PHE5        0.0000 
     61 CZ          2.3600   -9.4800   36.1000 C.ar      5 PHE5        0.0000 
     62 CZ          5.1300   -7.2000   35.3200 C.ar      5 PHE5        0.0000 
     63 CZ          3.6900   -7.2800   35.7600 C.ar      5 PHE5        0.0000 
     64 CZ          2.2600   -7.3600   36.2000 C.ar      5 PHE5        0.0000 
     65 CZ          2.6200   -8.4500   37.1600 C.ar      5 PHE5        0.0000 
     66 CA          0.3000  -12.4400   28.8700 C.3       6 GLY6        0.0000 
     67 CA          3.4300  -11.2500   29.0500 C.3       6 GLY6        0.0000 
     68 CA          2.0000  -11.3300   29.4900 C.3       6 GLY6        0.0000 
     69 CA          3.7900  -12.3300   30.0200 C.3       6 GLY6        0.0000 
     70 CA          4.6900  -11.3700   33.1000 C.3       6 GLY6        0.0000 
     71 CA          3.2600  -11.4500   33.5400 C.3       6 GLY6        0.0000 
     72 CA         -1.0400  -11.7000   34.8700 C.3       6 GLY6        0.0000 
     73 CA         -2.4700  -11.7900   35.3100 C.3       6 GLY6        0.0000 
     74 CA          3.5200  -10.4200   34.6000 C.3       6 GLY6        0.0000 
     75 CA          5.2200   -9.3100   35.2200 C.3       6 GLY6        0.0000 
     76 CA          3.7900   -9.4000   35.6600 C.3       6 GLY6        0.0000 
     77 CA          5.4900   -8.2900   36.2800 C.3       6 GLY6        0.0000 
     78 CA          4.0600   -8.3700   36.7200 C.3       6 GLY6        0.0000 
     79 DU         -0.5000  -12.5900   31.3400 H         7 CUB7        0.0000 
     80 DU         -1.9300  -12.6700   31.7800 H         7 CUB7        0.0000 
     81 DU          3.7000  -10.2200   30.1100 H         7 CUB7        0.0000 
     82 DU         -0.6000  -10.4700   31.4300 H         7 CUB7        0.0000 
     83 DU          2.6300  -11.3900   31.5200 H         7 CUB7        0.0000 
     84 DU          1.2000  -11.4700   31.9600 H         7 CUB7        0.0000 
     85 DU         -0.2300  -11.5600   32.4000 H         7 CUB7        0.0000 
@<TRIPOS>BOND
@<TRIPOS>SUBSTRUCTURE
     1 SER1        1 GROUP   
     2 ALA2        8 GROUP   
     3 ASP3       30 GROUP   
     4 LYS4       39 GROUP   
     5 PHE5       40 GROUP   
     6 GLY6       66 GROUP   
     7 CUB7       79 GROUP   
@<TRIPOS>SET

