#    Name: 6q2p_2_SAH
#    Modification time : Fri May 22 19:28:51 2020

@<TRIPOS>MOLECULE
6q2p_2_SAH
   26    28     1     0     0
SMALL
NO_CHARGES


@<TRIPOS>ATOM
      1 N          -2.2690  -13.8110   29.8140 N.4       1 SAH403      0.0000 
      2 CA         -0.9730  -13.9330   29.1060 C.3       1 SAH403      0.0000 
      3 CB         -0.5620  -12.6290   28.4100 C.3       1 SAH403      0.0000 
      4 CG         -0.9000  -11.3330   29.1730 C.3       1 SAH403      0.0000 
      5 SD          0.3110  -10.8970   30.4600 S.3       1 SAH403      0.0000 
      6 C           0.1090  -14.3940   30.0510 C.2       1 SAH403      0.0000 
      7 O           0.0070  -14.3000   31.2540 O.co2     1 SAH403      0.0000 
      8 OXT         1.2180  -14.9160   29.5540 O.co2     1 SAH403      0.0000 
      9 C5'         1.8430  -10.6420   29.5180 C.3       1 SAH403      0.0000 
     10 C4'         3.0950  -10.9550   30.3590 C.3       1 SAH403      0.0000 
     11 O4'         3.2000   -9.9980   31.4340 O.3       1 SAH403      0.0000 
     12 C3'         3.0570  -12.3560   30.9990 C.3       1 SAH403      0.0000 
     13 O3'         4.3400  -12.9920   30.8380 O.3       1 SAH403      0.0000 
     14 C2'         2.7470  -12.0380   32.4880 C.3       1 SAH403      0.0000 
     15 O2'         3.1940  -13.0460   33.3980 O.3       1 SAH403      0.0000 
     16 C1'         3.4960  -10.6860   32.6550 C.3       1 SAH403      0.0000 
     17 N9          2.9980   -9.9030   33.7890 N.pl3     1 SAH403      0.0000 
     18 C8          1.7190   -9.8460   34.2660 C.2       1 SAH403      0.0000 
     19 N7          1.6570   -9.0360   35.2890 N.2       1 SAH403      0.0000 
     20 C5          2.9130   -8.5580   35.5280 C.ar      1 SAH403      0.0000 
     21 C6          3.4690   -7.6790   36.4770 C.ar      1 SAH403      0.0000 
     22 N6          2.6810   -7.1070   37.4550 N.pl3     1 SAH403      0.0000 
     23 N1          4.7660   -7.4120   36.3910 N.ar      1 SAH403      0.0000 
     24 C2          5.5390   -7.9520   35.4530 C.ar      1 SAH403      0.0000 
     25 N3          5.0710   -8.7840   34.5440 N.ar      1 SAH403      0.0000 
     26 C4          3.7730   -9.0930   34.5570 C.ar      1 SAH403      0.0000 
@<TRIPOS>BOND
     1    1    2 1    
     2    2    3 1    
     3    2    6 1    
     4    3    4 1    
     5    4    5 1    
     6    5    9 1    
     7    6    7 ar   
     8    6    8 ar   
     9    9   10 1    
    10   10   11 1    
    11   10   12 1    
    12   11   16 1    
    13   12   13 1    
    14   12   14 1    
    15   14   15 1    
    16   14   16 1    
    17   16   17 1    
    18   17   18 1    
    19   17   26 1    
    20   18   19 2    
    21   19   20 1    
    22   20   21 ar   
    23   20   26 ar   
    24   21   22 1    
    25   21   23 ar   
    26   23   24 ar   
    27   24   25 ar   
    28   25   26 ar   
@<TRIPOS>SUBSTRUCTURE
     1 SAH403      1 GROUP   
@<TRIPOS>SET

