#    Name: 6jig_1_5GP
#    Modification time : Fri May 22 19:25:14 2020

@<TRIPOS>MOLECULE
6jig_1_5GP
   24    26     1     0     0
SMALL
NO_CHARGES


@<TRIPOS>ATOM
      1 P           7.9920   21.0050  -18.2490 P.3       1 5GP601      0.0000 
      2 O1P         7.4020   19.6760  -18.6910 O.co2     1 5GP601      0.0000 
      3 O2P         7.6900   21.3510  -16.8050 O.co2     1 5GP601      0.0000 
      4 O3P         9.4330   21.2070  -18.6460 O.co2     1 5GP601      0.0000 
      5 O5'         7.2000   22.0320  -19.1800 O.3       1 5GP601      0.0000 
      6 C5'         7.2030   23.4340  -18.9580 C.3       1 5GP601      0.0000 
      7 C4'         6.3720   24.1440  -20.0070 C.3       1 5GP601      0.0000 
      8 O4'         4.9680   23.8950  -19.7630 O.3       1 5GP601      0.0000 
      9 C3'         6.4570   25.6650  -20.0210 C.3       1 5GP601      0.0000 
     10 O3'         7.6380   26.1570  -20.6430 O.3       1 5GP601      0.0000 
     11 C2'         5.1500   26.0740  -20.7230 C.3       1 5GP601      0.0000 
     12 O2'         5.2620   26.0160  -22.1390 O.3       1 5GP601      0.0000 
     13 C1'         4.1980   24.9480  -20.3110 C.3       1 5GP601      0.0000 
     14 N9          3.2260   25.3740  -19.2980 N.pl3     1 5GP601      0.0000 
     15 C8          3.4790   25.9470  -18.1110 C.2       1 5GP601      0.0000 
     16 N7          2.2910   26.1480  -17.4830 N.2       1 5GP601      0.0000 
     17 C5          1.3140   25.6690  -18.2910 C.2       1 5GP601      0.0000 
     18 C6         -0.0680   25.5850  -18.1910 C.2       1 5GP601      0.0000 
     19 O6         -0.6350   26.0050  -17.1610 O.2       1 5GP601      0.0000 
     20 N1         -0.7720   25.0510  -19.2020 N.am      1 5GP601      0.0000 
     21 C2         -0.1700   24.5930  -20.3090 C.2       1 5GP601      0.0000 
     22 N2         -0.9050   24.0560  -21.3090 N.pl3     1 5GP601      0.0000 
     23 N3          1.1780   24.6460  -20.4350 N.2       1 5GP601      0.0000 
     24 C4          1.9160   25.1820  -19.4350 C.2       1 5GP601      0.0000 
@<TRIPOS>BOND
     1    1    2 ar   
     2    1    3 ar   
     3    1    4 ar   
     4    1    5 1    
     5    5    6 1    
     6    6    7 1    
     7    7    8 1    
     8    7    9 1    
     9    8   13 1    
    10    9   10 1    
    11    9   11 1    
    12   11   12 1    
    13   11   13 1    
    14   13   14 1    
    15   14   15 1    
    16   14   24 1    
    17   15   16 2    
    18   16   17 1    
    19   17   18 1    
    20   17   24 2    
    21   18   19 2    
    22   18   20 am   
    23   20   21 1    
    24   21   22 1    
    25   21   23 2    
    26   23   24 1    
@<TRIPOS>SUBSTRUCTURE
     1 5GP601      1 GROUP   
@<TRIPOS>SET

