#    Name: 5y7z_2_IRE
#    Modification time : Fri May 22 19:12:18 2020

@<TRIPOS>MOLECULE
5y7z_2_IRE
   31    34     1     0     0
SMALL
NO_CHARGES


@<TRIPOS>ATOM
      1 CAO        -5.4660   21.8690  -14.8730 C.3       1 IRE401      0.0000 
      2 CAL        -6.8840   21.5850  -15.3340 C.3       1 IRE401      0.0000 
      3 OAU        -6.9240   21.5050  -16.7510 O.3       1 IRE401      0.0000 
      4 CAM        -5.9930   20.5840  -17.2930 C.3       1 IRE401      0.0000 
      5 CAP        -4.5880   20.8360  -16.7560 C.3       1 IRE401      0.0000 
      6 NBE        -4.6790   20.6940  -15.2840 N.4       1 IRE401      0.0000 
      7 CAN        -3.3260   20.9380  -14.7220 C.3       1 IRE401      0.0000 
      8 CAJ        -2.5890   19.5940  -14.8430 C.3       1 IRE401      0.0000 
      9 CAK        -1.3680   19.7360  -15.7840 C.3       1 IRE401      0.0000 
     10 OAV        -0.1240   19.9460  -15.0890 O.3       1 IRE401      0.0000 
     11 CBA         1.0760   19.2880  -15.4490 C.ar      1 IRE401      0.0000 
     12 CAZ         1.2540   18.0890  -16.3100 C.ar      1 IRE401      0.0000 
     13 CAH         2.5430   17.6050  -16.5200 C.ar      1 IRE401      0.0000 
     14 OAT         0.1510   17.4670  -16.8960 O.3       1 IRE401      0.0000 
     15 CAA         0.2670   16.9530  -18.2350 C.3       1 IRE401      0.0000 
     16 CAI         2.2500   19.8190  -14.9180 C.ar      1 IRE401      0.0000 
     17 C5          3.5810   19.3380  -15.1220 C.ar      1 IRE401      0.0000 
     18 C4          3.7390   18.1980  -15.9480 C.ar      1 IRE401      0.0000 
     19 N3          5.0180   17.6620  -16.1970 N.pl3     1 IRE401      0.0000 
     20 C2          6.0630   18.2760  -15.6210 C.2       1 IRE401      0.0000 
     21 N1          6.0200   19.4030  -14.7970 N.2       1 IRE401      0.0000 
     22 C6          4.7960   19.9400  -14.5370 C.2       1 IRE401      0.0000 
     23 NAS         4.7350   21.0880  -13.6980 N.2       1 IRE401      0.0000 
     24 CAY         5.7980   22.0030  -13.2950 C.ar      1 IRE401      0.0000 
     25 CAG         6.8620   22.3700  -14.1420 C.ar      1 IRE401      0.0000 
     26 CAX         7.8750   23.2420  -13.7640 C.ar      1 IRE401      0.0000 
     27 CL          9.1690   23.6490  -14.8640 Cl        1 IRE401      0.0000 
     28 CAW         7.8880   23.8240  -12.4830 C.ar      1 IRE401      0.0000 
     29 FAB         8.8040   24.6350  -12.0940 F         1 IRE401      0.0000 
     30 CAD         6.8360   23.4720  -11.6370 C.ar      1 IRE401      0.0000 
     31 CAE         5.8260   22.5960  -12.0230 C.ar      1 IRE401      0.0000 
@<TRIPOS>BOND
     1    1    2 1    
     2    1    6 1    
     3    2    3 1    
     4    3    4 1    
     5    4    5 1    
     6    5    6 1    
     7    6    7 1    
     8    7    8 1    
     9    8    9 1    
    10    9   10 1    
    11   10   11 1    
    12   11   12 ar   
    13   11   16 ar   
    14   12   13 ar   
    15   12   14 1    
    16   13   18 ar   
    17   14   15 1    
    18   16   17 ar   
    19   17   18 ar   
    20   17   22 1    
    21   18   19 1    
    22   19   20 1    
    23   20   21 2    
    24   21   22 1    
    25   22   23 2    
    26   23   24 1    
    27   24   25 ar   
    28   24   31 ar   
    29   25   26 ar   
    30   26   27 1    
    31   26   28 ar   
    32   28   29 1    
    33   28   30 ar   
    34   30   31 ar   
@<TRIPOS>SUBSTRUCTURE
     1 IRE401      1 GROUP   
@<TRIPOS>SET

