#    Name: 5y7z_1_IRE
#    Modification time : Fri May 22 19:12:10 2020

@<TRIPOS>MOLECULE
5y7z_1_IRE
   31    34     1     0     0
SMALL
NO_CHARGES


@<TRIPOS>ATOM
      1 CAO        10.5490  -22.6340   16.5970 C.3       1 IRE401      0.0000 
      2 CAL        11.3100  -21.8610   17.6610 C.3       1 IRE401      0.0000 
      3 OAU        12.3090  -21.0610   17.0490 O.3       1 IRE401      0.0000 
      4 CAM        11.7980  -20.2040   16.0440 C.3       1 IRE401      0.0000 
      5 CAP        10.9610  -20.9750   15.0200 C.3       1 IRE401      0.0000 
      6 NBE         9.8600  -21.6190   15.7780 N.4       1 IRE401      0.0000 
      7 CAN         9.0530  -22.4140   14.8100 C.3       1 IRE401      0.0000 
      8 CAJ         7.9810  -21.4510   14.2490 C.3       1 IRE401      0.0000 
      9 CAK         6.5950  -22.1500   14.2430 C.3       1 IRE401      0.0000 
     10 OAV         6.2040  -22.6860   15.5300 O.3       1 IRE401      0.0000 
     11 CBA         4.9710  -23.3320   15.6800 C.ar      1 IRE401      0.0000 
     12 CAZ         4.7790  -24.5740   16.4250 C.ar      1 IRE401      0.0000 
     13 CAH         3.5040  -25.1230   16.5140 C.ar      1 IRE401      0.0000 
     14 OAT         5.8940  -25.1590   17.0170 O.3       1 IRE401      0.0000 
     15 CAA         5.7470  -25.8050   18.2950 C.3       1 IRE401      0.0000 
     16 CAI         3.8220  -22.7780   15.1040 C.ar      1 IRE401      0.0000 
     17 C5          2.4870  -23.3200   15.1770 C.ar      1 IRE401      0.0000 
     18 C4          2.3250  -24.5290   15.9040 C.ar      1 IRE401      0.0000 
     19 N3          1.0570  -25.1330   16.0270 N.pl3     1 IRE401      0.0000 
     20 C2          0.0200  -24.5220   15.4350 C.2       1 IRE401      0.0000 
     21 N1          0.0610  -23.3380   14.7010 N.2       1 IRE401      0.0000 
     22 C6          1.2690  -22.7270   14.5570 C.2       1 IRE401      0.0000 
     23 NAS         1.2970  -21.5180   13.8070 N.2       1 IRE401      0.0000 
     24 CAY         0.1760  -20.6770   13.3870 C.ar      1 IRE401      0.0000 
     25 CAG        -0.8740  -20.3060   14.2520 C.ar      1 IRE401      0.0000 
     26 CAX        -1.9430  -19.5070   13.8630 C.ar      1 IRE401      0.0000 
     27 CL         -3.2150  -19.0890   14.9880 Cl        1 IRE401      0.0000 
     28 CAW        -2.0330  -19.0090   12.5500 C.ar      1 IRE401      0.0000 
     29 FAB        -3.0020  -18.2670   12.1500 F         1 IRE401      0.0000 
     30 CAD        -0.9980  -19.3680   11.6840 C.ar      1 IRE401      0.0000 
     31 CAE         0.0690  -20.1710   12.0820 C.ar      1 IRE401      0.0000 
@<TRIPOS>BOND
     1    1    2 1    
     2    1    6 1    
     3    2    3 1    
     4    3    4 1    
     5    4    5 1    
     6    5    6 1    
     7    6    7 1    
     8    7    8 1    
     9    8    9 1    
    10    9   10 1    
    11   10   11 1    
    12   11   12 ar   
    13   11   16 ar   
    14   12   13 ar   
    15   12   14 1    
    16   13   18 ar   
    17   14   15 1    
    18   16   17 ar   
    19   17   18 ar   
    20   17   22 1    
    21   18   19 1    
    22   19   20 1    
    23   20   21 2    
    24   21   22 1    
    25   22   23 2    
    26   23   24 1    
    27   24   25 ar   
    28   24   31 ar   
    29   25   26 ar   
    30   26   27 1    
    31   26   28 ar   
    32   28   29 1    
    33   28   30 ar   
    34   30   31 ar   
@<TRIPOS>SUBSTRUCTURE
     1 IRE401      1 GROUP   
@<TRIPOS>SET

