#    Name: 6i2j_1_EB4
#    Modification time : Fri May 22 19:24:33 2020

@<TRIPOS>MOLECULE
6i2j_1_EB4
   48    51     1     0     0
SMALL
NO_CHARGES


@<TRIPOS>ATOM
      1 O6        -85.3360   29.9230  124.4260 O.3       1 EB4802      0.0000 
      2 O4        -85.3150   29.8640  127.1460 O.3       1 EB4802      0.0000 
      3 O5        -85.4550   32.8120  125.9420 O.3       1 EB4802      0.0000 
      4 N1        -90.3680   29.6280  128.3590 N.am      1 EB4802      0.0000 
      5 C5        -86.2160   33.9290  125.9590 C.ar      1 EB4802      0.0000 
      6 C4        -86.0210   29.2960  128.1670 C.ar      1 EB4802      0.0000 
      7 C1        -87.4720   29.5840  128.2680 C.ar      1 EB4802      0.0000 
      8 C2        -87.6790   33.7970  125.9100 C.ar      1 EB4802      0.0000 
      9 C6        -86.0860   29.4280  123.4070 C.ar      1 EB4802      0.0000 
     10 C8        -85.6400   35.1950  126.0190 C.ar      1 EB4802      0.0000 
     11 N2        -90.5660   33.8550  125.5790 N.am      1 EB4802      0.0000 
     12 C9        -85.4790   29.0090  122.2300 C.ar      1 EB4802      0.0000 
     13 C10       -86.2010   27.8680  130.1290 C.ar      1 EB4802      0.0000 
     14 O3        -88.1610   29.7420  124.6920 O.3       1 EB4802      0.0000 
     15 N3        -90.5330   29.2380  123.4640 N.am      1 EB4802      0.0000 
     16 C16       -88.2440   28.9610  129.3710 C.ar      1 EB4802      0.0000 
     17 C7        -85.4300   28.4460  129.1100 C.ar      1 EB4802      0.0000 
     18 C3        -87.5610   29.3280  123.5470 C.ar      1 EB4802      0.0000 
     19 C11       -86.4240   36.3500  126.0430 C.ar      1 EB4802      0.0000 
     20 O1        -88.0880   30.4060  127.3690 O.3       1 EB4802      0.0000 
     21 O2        -88.2440   32.5620  125.8520 O.3       1 EB4802      0.0000 
     22 C12       -86.2520   28.5020  121.1860 C.ar      1 EB4802      0.0000 
     23 C15       -87.6510   28.4030  121.2640 C.ar      1 EB4802      0.0000 
     24 C14       -87.8170   36.2820  125.9930 C.ar      1 EB4802      0.0000 
     25 C13       -87.5730   28.1200  130.2640 C.ar      1 EB4802      0.0000 
     26 O7        -90.2590   29.1070  130.5620 O.2       1 EB4802      0.0000 
     27 C19       -89.7190   29.2450  129.4750 C.2       1 EB4802      0.0000 
     28 C22       -91.7960   29.8960  128.2840 C.3       1 EB4802      0.0000 
     29 C25       -92.4110   29.5510  126.9380 C.2       1 EB4802      0.0000 
     30 O10       -93.5210   29.9650  126.6220 O.2       1 EB4802      0.0000 
     31 O15       -91.7010   28.7050  125.9810 O.3       1 EB4802      0.0000 
     32 C30       -92.3040   28.2420  124.7650 C.3       1 EB4802      0.0000 
     33 C24       -91.9770   29.1470  123.5820 C.3       1 EB4802      0.0000 
     34 C21       -89.8570   28.6850  122.4560 C.2       1 EB4802      0.0000 
     35 C18       -88.3520   28.7920  122.4080 C.ar      1 EB4802      0.0000 
     36 O9        -90.4350   28.1260  121.5360 O.2       1 EB4802      0.0000 
     37 C27       -92.6270   30.4960  123.7150 C.2       1 EB4802      0.0000 
     38 O12       -93.7150   30.7340  123.2040 O.2       1 EB4802      0.0000 
     39 C28       -92.0210   31.3620  128.6540 C.3       1 EB4802      0.0000 
     40 O13       -91.5290   32.2560  127.6550 O.3       1 EB4802      0.0000 
     41 C26       -92.4600   32.9980  126.8200 C.2       1 EB4802      0.0000 
     42 O11       -93.6320   33.0270  127.1360 O.2       1 EB4802      0.0000 
     43 C23       -92.0030   33.6940  125.5730 C.3       1 EB4802      0.0000 
     44 C29       -92.4130   32.9100  124.3270 C.3       1 EB4802      0.0000 
     45 O14       -91.9480   31.5620  124.4240 O.3       1 EB4802      0.0000 
     46 C20       -89.9750   35.0080  125.8910 C.2       1 EB4802      0.0000 
     47 O8        -90.6040   36.0240  126.1610 O.2       1 EB4802      0.0000 
     48 C17       -88.4780   35.0520  125.9280 C.ar      1 EB4802      0.0000 
@<TRIPOS>BOND
     1    1    9 1    
     2    2    6 1    
     3    3    5 1    
     4    4   27 am   
     5    4   28 1    
     6    5    8 ar   
     7    5   10 ar   
     8    6    7 ar   
     9    6   17 ar   
    10    7   16 ar   
    11    7   20 1    
    12    8   21 1    
    13    8   48 ar   
    14    9   12 ar   
    15    9   18 ar   
    16   10   19 ar   
    17   11   43 1    
    18   11   46 am   
    19   12   22 ar   
    20   13   17 ar   
    21   13   25 ar   
    22   14   18 1    
    23   15   33 1    
    24   15   34 am   
    25   16   25 ar   
    26   16   27 1    
    27   18   35 ar   
    28   19   24 ar   
    29   22   23 ar   
    30   23   35 ar   
    31   24   48 ar   
    32   26   27 2    
    33   28   29 1    
    34   28   39 1    
    35   29   30 2    
    36   29   31 1    
    37   31   32 1    
    38   32   33 1    
    39   33   37 1    
    40   34   35 1    
    41   34   36 2    
    42   37   38 2    
    43   37   45 1    
    44   39   40 1    
    45   40   41 1    
    46   41   42 2    
    47   41   43 1    
    48   43   44 1    
    49   44   45 1    
    50   46   47 2    
    51   46   48 1    
@<TRIPOS>SUBSTRUCTURE
     1 EB4802      1 GROUP   
@<TRIPOS>SET

