#    Name: 6s7t_1_ALA_ALA_ASN_ALA_THR_ALA_ALA_CAVITY_N1_4
#    Modification time : Fri May 22 19:40:42 2020

@<TRIPOS>MOLECULE
6s7t_1_ALA_ALA_ASN_ALA_THR_ALA_ALA_CAVITY_N1_4
  116     0     7     0     0
SMALL
NO_CHARGES


@<TRIPOS>ATOM
      1 OG        172.8500  149.4100  147.3900 O.3       1 SER1        0.0000 
      2 OG        173.7000  154.0000  150.1200 O.3       1 SER1        0.0000 
      3 OG        173.7500  152.6400  150.7500 O.3       1 SER1        0.0000 
      4 OG        175.1700  153.9000  149.8200 O.3       1 SER1        0.0000 
      5 OG        175.2100  152.5400  150.4500 O.3       1 SER1        0.0000 
      6 OG        172.5500  154.7100  151.7500 O.3       1 SER1        0.0000 
      7 OG        172.5900  153.3500  152.3800 O.3       1 SER1        0.0000 
      8 OG        174.0100  154.6200  151.4500 O.3       1 SER1        0.0000 
      9 OG        175.4800  154.5300  151.1500 O.3       1 SER1        0.0000 
     10 OG        172.8600  155.3300  153.0800 O.3       1 SER1        0.0000 
     11 OG        174.3300  155.2400  152.7800 O.3       1 SER1        0.0000 
     12 OG        174.4300  158.4500  159.7300 O.3       1 SER1        0.0000 
     13 N         174.3200  149.3100  147.0900 N.am      2 ALA2        0.0000 
     14 N         175.7800  149.2200  146.7900 N.am      2 ALA2        0.0000 
     15 N         173.1600  150.0300  148.7200 N.am      2 ALA2        0.0000 
     16 N         174.6300  149.9400  148.4200 N.am      2 ALA2        0.0000 
     17 N         176.1000  149.8400  148.1200 N.am      2 ALA2        0.0000 
     18 N         176.1400  148.4800  148.7400 N.am      2 ALA2        0.0000 
     19 O         177.6100  148.3900  148.4400 O.2       2 ALA2        0.0000 
     20 O         177.6500  147.0300  149.0700 O.2       2 ALA2        0.0000 
     21 O         170.4100  154.9200  148.7700 O.2       2 ALA2        0.0000 
     22 O         173.4300  152.0100  149.4200 O.2       2 ALA2        0.0000 
     23 O         173.4800  150.6500  150.0500 O.2       2 ALA2        0.0000 
     24 O         174.9400  150.5600  149.7500 O.2       2 ALA2        0.0000 
     25 N         176.4500  149.1100  150.0700 N.am      2 ALA2        0.0000 
     26 O         177.9600  147.6500  150.4000 O.2       2 ALA2        0.0000 
     27 N         167.8400  154.3700  151.3300 N.am      2 ALA2        0.0000 
     28 N         169.2600  155.6400  150.4000 N.am      2 ALA2        0.0000 
     29 N         169.3000  154.2700  151.0300 N.am      2 ALA2        0.0000 
     30 O         169.8400  158.2400  152.4300 O.2       2 ALA2        0.0000 
     31 O         171.3100  158.1500  152.1300 O.2       2 ALA2        0.0000 
     32 OD1       172.2900  158.6500  156.7400 O.co2     3 ASP3        0.0000 
     33 OD1       172.3300  157.2900  157.3700 O.co2     3 ASP3        0.0000 
     34 OD1       173.8000  157.2000  157.0700 O.co2     3 ASP3        0.0000 
     35 OD1       174.1100  157.8200  158.4000 O.co2     3 ASP3        0.0000 
     36 NZ        172.8100  150.7700  146.7700 N.4       4 LYS4        0.0000 
     37 NZ        174.2700  150.6800  146.4600 N.4       4 LYS4        0.0000 
     38 NZ        173.0800  152.7500  147.4700 N.4       4 LYS4        0.0000 
     39 NZ        173.1200  151.3900  148.0900 N.4       4 LYS4        0.0000 
     40 NZ        174.5400  152.6600  147.1600 N.4       4 LYS4        0.0000 
     41 NZ        174.5900  151.3000  147.7900 N.4       4 LYS4        0.0000 
     42 NZ        171.8800  154.8300  148.4700 N.4       4 LYS4        0.0000 
     43 NZ        171.9200  153.4700  149.1000 N.4       4 LYS4        0.0000 
     44 NZ        173.3900  153.3700  148.8000 N.4       4 LYS4        0.0000 
     45 NZ        174.8100  154.6400  147.8700 N.4       4 LYS4        0.0000 
     46 NZ        168.1900  153.6300  153.2900 N.4       4 LYS4        0.0000 
     47 NZ        169.5700  156.2600  151.7300 N.4       4 LYS4        0.0000 
     48 NZ        169.6200  154.9000  152.3600 N.4       4 LYS4        0.0000 
     49 NZ        169.6600  153.5300  152.9900 N.4       4 LYS4        0.0000 
     50 NZ        169.8900  156.8800  153.0600 N.4       4 LYS4        0.0000 
     51 NZ        169.9300  155.5200  153.6900 N.4       4 LYS4        0.0000 
     52 NZ        171.4000  155.4300  153.3900 N.4       4 LYS4        0.0000 
     53 NZ        172.7700  158.0600  151.8300 N.4       4 LYS4        0.0000 
     54 NZ        172.8200  156.7000  152.4600 N.4       4 LYS4        0.0000 
     55 NZ        174.2400  157.9600  151.5300 N.4       4 LYS4        0.0000 
     56 NZ        174.2800  156.6000  152.1500 N.4       4 LYS4        0.0000 
     57 NZ        170.2000  157.5000  154.3900 N.4       4 LYS4        0.0000 
     58 NZ        171.6600  157.4100  154.0900 N.4       4 LYS4        0.0000 
     59 NZ        173.1300  157.3200  153.7800 N.4       4 LYS4        0.0000 
     60 NZ        173.1700  155.9600  154.4100 N.4       4 LYS4        0.0000 
     61 NZ        174.6000  157.2300  153.4800 N.4       4 LYS4        0.0000 
     62 NZ        170.5100  158.1200  155.7200 N.4       4 LYS4        0.0000 
     63 NZ        171.9800  158.0300  155.4100 N.4       4 LYS4        0.0000 
     64 NZ        173.4400  157.9400  155.1100 N.4       4 LYS4        0.0000 
     65 NZ        173.4900  156.5800  155.7400 N.4       4 LYS4        0.0000 
     66 NZ        173.7600  158.5600  156.4400 N.4       4 LYS4        0.0000 
     67 NZ        175.2200  158.4700  156.1400 N.4       4 LYS4        0.0000 
     68 NZ        174.0300  160.5500  157.1400 N.4       4 LYS4        0.0000 
     69 NZ        175.4900  160.4500  156.8400 N.4       4 LYS4        0.0000 
     70 NZ        175.5400  159.0900  157.4700 N.4       4 LYS4        0.0000 
     71 CZ        171.6500  151.4800  148.4000 C.ar      5 PHE5        0.0000 
     72 CZ        168.9900  153.6500  149.7000 C.ar      5 PHE5        0.0000 
     73 CZ        169.0300  152.2900  150.3300 C.ar      5 PHE5        0.0000 
     74 CZ        170.4600  153.5600  149.4000 C.ar      5 PHE5        0.0000 
     75 CZ        170.5000  152.2000  150.0300 C.ar      5 PHE5        0.0000 
     76 CZ        173.3400  154.7400  148.1700 C.ar      5 PHE5        0.0000 
     77 CZ        170.7300  155.5400  150.1000 C.ar      5 PHE5        0.0000 
     78 CZ        172.1900  155.4500  149.8000 C.ar      5 PHE5        0.0000 
     79 CZ        173.6600  155.3600  149.5000 C.ar      5 PHE5        0.0000 
     80 CZ        175.1200  155.2700  149.1900 C.ar      5 PHE5        0.0000 
     81 CZ        171.0400  156.1700  151.4300 C.ar      5 PHE5        0.0000 
     82 CZ        172.5000  156.0700  151.1300 C.ar      5 PHE5        0.0000 
     83 CZ        173.9700  155.9800  150.8200 C.ar      5 PHE5        0.0000 
     84 CZ        175.3900  157.2500  149.8900 C.ar      5 PHE5        0.0000 
     85 CZ        175.4400  155.8900  150.5200 C.ar      5 PHE5        0.0000 
     86 CZ        177.3600  158.2600  159.1200 C.ar      5 PHE5        0.0000 
     87 CA        175.7400  150.5800  146.1600 C.3       6 GLY6        0.0000 
     88 CA        171.7000  150.1200  149.0200 C.3       6 GLY6        0.0000 
     89 CA        176.0100  152.5700  146.8600 C.3       6 GLY6        0.0000 
     90 CA        176.0500  151.2100  147.4900 C.3       6 GLY6        0.0000 
     91 CA        177.5200  151.1100  147.1900 C.3       6 GLY6        0.0000 
     92 CA        171.9700  152.1100  149.7300 C.3       6 GLY6        0.0000 
     93 CA        174.9000  151.9200  149.1200 C.3       6 GLY6        0.0000 
     94 CA        176.4100  150.4700  149.4500 C.3       6 GLY6        0.0000 
     95 CA        169.3500  152.9100  151.6600 C.3       6 GLY6        0.0000 
     96 CA        170.8100  152.8200  151.3600 C.3       6 GLY6        0.0000 
     97 CA        172.2800  152.7300  151.0500 C.3       6 GLY6        0.0000 
     98 CA        171.1300  153.4400  152.6800 C.3       6 GLY6        0.0000 
     99 CA        170.1500  158.8600  153.7600 C.3       6 GLY6        0.0000 
    100 CA        171.6200  158.7700  153.4600 C.3       6 GLY6        0.0000 
    101 CA        172.2500  160.0200  156.1200 C.3       6 GLY6        0.0000 
    102 CA        172.6000  159.2800  158.0700 C.3       6 GLY6        0.0000 
    103 CA        175.8900  158.3500  159.4200 C.3       6 GLY6        0.0000 
    104 DU        177.5600  149.7500  147.8100 H         7 CUB7        0.0000 
    105 DU        174.8500  153.2800  148.4900 H         7 CUB7        0.0000 
    106 DU        176.3200  153.1900  148.1900 H         7 CUB7        0.0000 
    107 DU        176.3600  151.8300  148.8200 H         7 CUB7        0.0000 
    108 DU        170.7700  154.1800  150.7300 H         7 CUB7        0.0000 
    109 DU        172.2400  154.0900  150.4300 H         7 CUB7        0.0000 
    110 DU        176.6300  153.8100  149.5200 H         7 CUB7        0.0000 
    111 DU        171.0800  154.8000  152.0600 H         7 CUB7        0.0000 
    112 DU        171.3500  156.7900  152.7600 H         7 CUB7        0.0000 
    113 DU        175.2700  157.1100  156.7700 H         7 CUB7        0.0000 
    114 DU        174.0700  159.1800  157.7700 H         7 CUB7        0.0000 
    115 DU        175.5800  157.7300  158.0900 H         7 CUB7        0.0000 
    116 DU        177.0000  159.0000  157.1600 H         7 CUB7        0.0000 
@<TRIPOS>BOND
@<TRIPOS>SUBSTRUCTURE
     1 SER1        1 GROUP   
     2 ALA2       13 GROUP   
     3 ASP3       32 GROUP   
     4 LYS4       36 GROUP   
     5 PHE5       71 GROUP   
     6 GLY6       87 GROUP   
     7 CUB7      104 GROUP   
@<TRIPOS>SET

