#    Name: 6s7t_1_ALA_ALA_ASN_ALA_THR_ALA_ALA
#    Modification time : Fri May 22 19:40:41 2020

@<TRIPOS>MOLECULE
6s7t_1_ALA_ALA_ASN_ALA_THR_ALA_ALA
   40    39     7     0     0
SMALL
NO_CHARGES


@<TRIPOS>ATOM
      1 N         177.0850  155.2210  155.9360 N.4       1 ALA1        0.0000 
      2 CA        175.7650  154.9490  156.4890 C.3       1 ALA1        0.0000 
      3 C         174.7010  155.8160  155.8230 C.2       1 ALA1        0.0000 
      4 O         174.3390  156.8740  156.3350 O.2       1 ALA1        0.0000 
      5 CB        175.7650  155.1700  157.9920 C.3       1 ALA1        0.0000 
      6 N         174.2070  155.3590  154.6770 N.am      2 ALA2        0.0000 
      7 CA        173.1400  156.0410  153.9580 C.3       2 ALA2        0.0000 
      8 C         172.2570  154.9840  153.3060 C.2       2 ALA2        0.0000 
      9 O         172.3970  153.7870  153.5690 O.2       2 ALA2        0.0000 
     10 CB        173.7160  157.0320  152.9390 C.3       2 ALA2        0.0000 
     11 N         171.3500  155.4250  152.4380 N.am      3 ASN3        0.0000 
     12 CA        170.4080  154.5300  151.7700 C.3       3 ASN3        0.0000 
     13 C         170.8550  154.1930  150.3550 C.2       3 ASN3        0.0000 
     14 O         170.0320  154.0560  149.4470 O.2       3 ASN3        0.0000 
     15 CB        169.0120  155.1420  151.7610 C.3       3 ASN3        0.0000 
     16 CG        167.9200  154.0990  151.6440 C.2       3 ASN3        0.0000 
     17 OD1       168.1950  152.9010  151.5780 O.2       3 ASN3        0.0000 
     18 ND2       166.6710  154.5490  151.6330 N.am      3 ASN3        0.0000 
     19 N         172.1580  154.0610  150.1440 N.am      4 ALA4        0.0000 
     20 CA        172.7150  153.7500  148.8380 C.3       4 ALA4        0.0000 
     21 C         173.1280  152.2850  148.7650 C.2       4 ALA4        0.0000 
     22 O         173.1000  151.5490  149.7530 O.2       4 ALA4        0.0000 
     23 CB        173.9110  154.6570  148.5370 C.3       4 ALA4        0.0000 
     24 N         173.5110  151.8660  147.5630 N.am      5 THR5        0.0000 
     25 CA        174.0500  150.5300  147.3590 C.3       5 THR5        0.0000 
     26 C         175.4920  150.4800  147.8470 C.2       5 THR5        0.0000 
     27 O         176.2710  151.4080  147.6170 O.2       5 THR5        0.0000 
     28 CB        173.9740  150.1470  145.8810 C.3       5 THR5        0.0000 
     29 OG1       172.6180  150.2450  145.4300 O.3       5 THR5        0.0000 
     30 CG2       174.4680  148.7290  145.6650 C.3       5 THR5        0.0000 
     31 N         175.8420  149.3950  148.5330 N.am      6 ALA6        0.0000 
     32 CA        177.1720  149.2570  149.1170 C.3       6 ALA6        0.0000 
     33 C         178.2130  149.1430  148.0110 C.2       6 ALA6        0.0000 
     34 O         178.2190  148.1710  147.2490 O.2       6 ALA6        0.0000 
     35 CB        177.2200  148.0430  150.0390 C.3       6 ALA6        0.0000 
     36 N         179.0970  150.1320  147.9230 N.am      7 ALA7        0.0000 
     37 CA        180.1640  150.1260  146.9310 C.3       7 ALA7        0.0000 
     38 C         181.4900  149.7160  147.5620 C.2       7 ALA7        0.0000 
     39 O         181.8020  148.5300  147.6600 O.2       7 ALA7        0.0000 
     40 CB        180.2880  151.4900  146.2790 C.3       7 ALA7        0.0000 
@<TRIPOS>BOND
     1    1    2 1    
     2    2    3 1    
     3    2    5 1    
     4    3    4 2    
     5    3    6 am   
     6    6    7 1    
     7    7    8 1    
     8    7   10 1    
     9    8    9 2    
    10    8   11 am   
    11   11   12 1    
    12   12   13 1    
    13   12   15 1    
    14   13   14 2    
    15   13   19 am   
    16   15   16 1    
    17   16   17 2    
    18   16   18 am   
    19   19   20 1    
    20   20   21 1    
    21   20   23 1    
    22   21   22 2    
    23   21   24 am   
    24   24   25 1    
    25   25   26 1    
    26   25   28 1    
    27   26   27 2    
    28   26   31 am   
    29   28   29 1    
    30   28   30 1    
    31   31   32 1    
    32   32   33 1    
    33   32   35 1    
    34   33   34 2    
    35   33   36 am   
    36   36   37 1    
    37   37   38 1    
    38   37   40 1    
    39   38   39 2    
@<TRIPOS>SUBSTRUCTURE
     1 ALA1        1 RESIDUE 
     2 ALA2        6 RESIDUE 
     3 ASN3       11 RESIDUE 
     4 ALA4       19 RESIDUE 
     5 THR5       24 RESIDUE 
     6 ALA6       31 RESIDUE 
     7 ALA7       36 RESIDUE 
@<TRIPOS>SET

