#    Name: 6r2u_7_11D
#    Modification time : Fri May 22 19:27:46 2020

@<TRIPOS>MOLECULE
6r2u_7_11D
   30    31     1     0     0
SMALL
NO_CHARGES


@<TRIPOS>ATOM
      1 C1        -62.9670  -26.2110   60.3910 C.ar      1 11D301      0.0000 
      2 C2        -63.0070  -27.6240   60.2270 C.ar      1 11D301      0.0000 
      3 C3        -62.4890  -28.4490   61.2890 C.ar      1 11D301      0.0000 
      4 C4        -61.9340  -27.7940   62.4380 C.ar      1 11D301      0.0000 
      5 C5        -61.9410  -26.4300   62.5450 C.ar      1 11D301      0.0000 
      6 C6        -62.4610  -25.6480   61.5260 C.ar      1 11D301      0.0000 
      7 C7        -63.5670  -28.2600   59.0710 C.ar      1 11D301      0.0000 
      8 C8        -63.5980  -29.6400   58.9880 C.ar      1 11D301      0.0000 
      9 C9        -63.1100  -30.4250   60.0200 C.ar      1 11D301      0.0000 
     10 C10       -62.5820  -29.8620   61.1480 C.ar      1 11D301      0.0000 
     11 N11       -64.0870  -27.4310   58.0180 N.3       1 11D301      0.0000 
     12 C12       -65.5070  -27.6180   57.7610 C.3       1 11D301      0.0000 
     13 C13       -63.2300  -27.3520   56.8440 C.3       1 11D301      0.0000 
     14 S14       -61.1990  -28.7060   63.7720 S.o2      1 11D301      0.0000 
     15 O15       -60.3680  -27.8070   64.5130 O.2       1 11D301      0.0000 
     16 O16       -62.2690  -29.3790   64.4410 O.2       1 11D301      0.0000 
     17 N17       -60.2370  -29.8650   63.1860 N.pl3     1 11D301      0.0000 
     18 C18       -58.7980  -29.6750   62.9890 C.3       1 11D301      0.0000 
     19 C19       -58.5180  -29.0550   61.6260 C.3       1 11D301      0.0000 
     20 C20       -58.5580  -30.0580   60.4630 C.3       1 11D301      0.0000 
     21 C21       -59.4570  -29.6900   59.2820 C.3       1 11D301      0.0000 
     22 C22       -58.7910  -29.7460   57.9100 C.3       1 11D301      0.0000 
     23 C23       -59.2990  -30.8680   57.0240 C.3       1 11D301      0.0000 
     24 C24       -59.0000  -32.2650   57.5550 C.3       1 11D301      0.0000 
     25 C25       -60.2290  -33.1000   57.8960 C.3       1 11D301      0.0000 
     26 C26       -59.8920  -34.3860   58.6350 C.3       1 11D301      0.0000 
     27 C27       -61.0260  -35.4040   58.6390 C.3       1 11D301      0.0000 
     28 C28       -60.6420  -36.7510   59.1860 C.2       1 11D301      0.0000 
     29 O29       -59.5560  -36.9740   59.6900 O.co2     1 11D301      0.0000 
     30 O30       -61.5850  -37.6670   59.0690 O.co2     1 11D301      0.0000 
@<TRIPOS>BOND
     1    1    2 ar   
     2    1    6 ar   
     3    2    3 ar   
     4    2    7 ar   
     5    3    4 ar   
     6    3   10 ar   
     7    4    5 ar   
     8    4   14 1    
     9    5    6 ar   
    10    7    8 ar   
    11    7   11 1    
    12    8    9 ar   
    13    9   10 ar   
    14   11   12 1    
    15   11   13 1    
    16   14   15 2    
    17   14   16 2    
    18   14   17 1    
    19   17   18 1    
    20   18   19 1    
    21   19   20 1    
    22   20   21 1    
    23   21   22 1    
    24   22   23 1    
    25   23   24 1    
    26   24   25 1    
    27   25   26 1    
    28   26   27 1    
    29   27   28 1    
    30   28   29 ar   
    31   28   30 ar   
@<TRIPOS>SUBSTRUCTURE
     1 11D301      1 GROUP   
@<TRIPOS>SET

