#    Name: 6r2u_4_11D
#    Modification time : Fri May 22 19:27:29 2020

@<TRIPOS>MOLECULE
6r2u_4_11D
   30    31     1     0     0
SMALL
NO_CHARGES


@<TRIPOS>ATOM
      1 C1        -38.2710  -59.5710   55.9560 C.ar      1 11D306      0.0000 
      2 C2        -37.8110  -58.2230   55.9700 C.ar      1 11D306      0.0000 
      3 C3        -37.7510  -57.5350   57.2350 C.ar      1 11D306      0.0000 
      4 C4        -38.1520  -58.2600   58.4130 C.ar      1 11D306      0.0000 
      5 C5        -38.5860  -59.5560   58.3300 C.ar      1 11D306      0.0000 
      6 C6        -38.6350  -60.2050   57.1070 C.ar      1 11D306      0.0000 
      7 C7        -37.3930  -57.5320   54.7840 C.ar      1 11D306      0.0000 
      8 C8        -36.9180  -56.2280   54.8720 C.ar      1 11D306      0.0000 
      9 C9        -36.8720  -55.5720   56.0910 C.ar      1 11D306      0.0000 
     10 C10       -37.2840  -56.1850   57.2420 C.ar      1 11D306      0.0000 
     11 N11       -37.5270  -58.2130   53.5130 N.3       1 11D306      0.0000 
     12 C12       -36.5750  -59.2750   53.2440 C.3       1 11D306      0.0000 
     13 C13       -38.0020  -57.4520   52.3670 C.3       1 11D306      0.0000 
     14 S14       -38.0760  -57.5430   60.0360 S.o2      1 11D306      0.0000 
     15 O15       -37.9160  -58.6060   60.9800 O.2       1 11D306      0.0000 
     16 O16       -37.1440  -56.4580   60.0430 O.2       1 11D306      0.0000 
     17 N17       -39.5390  -56.9130   60.2940 N.pl3     1 11D306      0.0000 
     18 C18       -39.7200  -55.5540   60.8120 C.3       1 11D306      0.0000 
     19 C19       -39.6220  -54.4990   59.7180 C.3       1 11D306      0.0000 
     20 C20       -40.4050  -54.8040   58.4480 C.3       1 11D306      0.0000 
     21 C21       -40.1790  -53.7710   57.3620 C.3       1 11D306      0.0000 
     22 C22       -40.7550  -54.1220   56.0010 C.3       1 11D306      0.0000 
     23 C23       -42.1780  -53.6340   55.7700 C.3       1 11D306      0.0000 
     24 C24       -42.5490  -53.5700   54.3010 C.3       1 11D306      0.0000 
     25 C25       -44.0470  -53.5030   53.9920 C.3       1 11D306      0.0000 
     26 C26       -44.6700  -54.8610   53.8020 C.3       1 11D306      0.0000 
     27 C27       -45.8980  -54.9080   52.9130 C.3       1 11D306      0.0000 
     28 C28       -47.2040  -55.1250   53.6190 C.2       1 11D306      0.0000 
     29 O29       -47.3350  -55.7390   54.6890 O.co2     1 11D306      0.0000 
     30 O30       -48.1990  -54.5890   52.9450 O.co2     1 11D306      0.0000 
@<TRIPOS>BOND
     1    1    2 ar   
     2    1    6 ar   
     3    2    3 ar   
     4    2    7 ar   
     5    3    4 ar   
     6    3   10 ar   
     7    4    5 ar   
     8    4   14 1    
     9    5    6 ar   
    10    7    8 ar   
    11    7   11 1    
    12    8    9 ar   
    13    9   10 ar   
    14   11   12 1    
    15   11   13 1    
    16   14   15 2    
    17   14   16 2    
    18   14   17 1    
    19   17   18 1    
    20   18   19 1    
    21   19   20 1    
    22   20   21 1    
    23   21   22 1    
    24   22   23 1    
    25   23   24 1    
    26   24   25 1    
    27   25   26 1    
    28   26   27 1    
    29   27   28 1    
    30   28   29 ar   
    31   28   30 ar   
@<TRIPOS>SUBSTRUCTURE
     1 11D306      1 GROUP   
@<TRIPOS>SET

