#    Name: 6r2u_2_11D
#    Modification time : Fri May 22 19:27:21 2020

@<TRIPOS>MOLECULE
6r2u_2_11D
   30    31     1     0     0
SMALL
NO_CHARGES


@<TRIPOS>ATOM
      1 C1        -46.8210  -52.0560   45.7510 C.ar      1 11D301      0.0000 
      2 C2        -46.3150  -51.7540   47.0480 C.ar      1 11D301      0.0000 
      3 C3        -47.0890  -52.1650   48.1950 C.ar      1 11D301      0.0000 
      4 C4        -48.2910  -52.9080   47.9630 C.ar      1 11D301      0.0000 
      5 C5        -48.7270  -53.1700   46.6920 C.ar      1 11D301      0.0000 
      6 C6        -47.9940  -52.7430   45.5950 C.ar      1 11D301      0.0000 
      7 C7        -45.0410  -51.1370   47.2650 C.ar      1 11D301      0.0000 
      8 C8        -44.5860  -50.9270   48.5630 C.ar      1 11D301      0.0000 
      9 C9        -45.3720  -51.2660   49.6520 C.ar      1 11D301      0.0000 
     10 C10       -46.5870  -51.8650   49.4880 C.ar      1 11D301      0.0000 
     11 N11       -44.2470  -50.7790   46.1140 N.3       1 11D301      0.0000 
     12 C12       -43.5690  -49.4860   46.1700 C.3       1 11D301      0.0000 
     13 C13       -43.6060  -51.8680   45.3940 C.3       1 11D301      0.0000 
     14 S14       -49.2400  -53.5840   49.3010 S.o2      1 11D301      0.0000 
     15 O15       -49.6740  -52.4880   50.1130 O.2       1 11D301      0.0000 
     16 O16       -50.2100  -54.5090   48.7950 O.2       1 11D301      0.0000 
     17 N17       -48.2000  -54.4370   50.1800 N.pl3     1 11D301      0.0000 
     18 C18       -47.6270  -55.6620   49.6280 C.3       1 11D301      0.0000 
     19 C19       -48.6810  -56.7420   49.5150 C.3       1 11D301      0.0000 
     20 C20       -48.1380  -58.1080   49.8310 C.3       1 11D301      0.0000 
     21 C21       -47.0250  -58.5910   48.9130 C.3       1 11D301      0.0000 
     22 C22       -46.6210  -60.0300   49.1670 C.3       1 11D301      0.0000 
     23 C23       -46.0940  -60.2690   50.5700 C.3       1 11D301      0.0000 
     24 C24       -46.8970  -61.2250   51.4250 C.3       1 11D301      0.0000 
     25 C25       -47.9370  -60.5810   52.3240 C.3       1 11D301      0.0000 
     26 C26       -48.5400  -61.5500   53.3180 C.3       1 11D301      0.0000 
     27 C27       -47.6440  -61.7410   54.5230 C.3       1 11D301      0.0000 
     28 C28       -47.7990  -60.6990   55.5910 C.2       1 11D301      0.0000 
     29 O29       -48.6050  -59.7830   55.5460 O.co2     1 11D301      0.0000 
     30 O30       -46.9760  -60.8870   56.5790 O.co2     1 11D301      0.0000 
@<TRIPOS>BOND
     1    1    2 ar   
     2    1    6 ar   
     3    2    3 ar   
     4    2    7 ar   
     5    3    4 ar   
     6    3   10 ar   
     7    4    5 ar   
     8    4   14 1    
     9    5    6 ar   
    10    7    8 ar   
    11    7   11 1    
    12    8    9 ar   
    13    9   10 ar   
    14   11   12 1    
    15   11   13 1    
    16   14   15 2    
    17   14   16 2    
    18   14   17 1    
    19   17   18 1    
    20   18   19 1    
    21   19   20 1    
    22   20   21 1    
    23   21   22 1    
    24   22   23 1    
    25   23   24 1    
    26   24   25 1    
    27   25   26 1    
    28   26   27 1    
    29   27   28 1    
    30   28   29 ar   
    31   28   30 ar   
@<TRIPOS>SUBSTRUCTURE
     1 11D301      1 GROUP   
@<TRIPOS>SET

