#    Name: 6r2u_8_11D
#    Modification time : Fri May 22 19:27:49 2020

@<TRIPOS>MOLECULE
6r2u_8_11D
   30    31     1     0     0
SMALL
NO_CHARGES


@<TRIPOS>ATOM
      1 C1        -20.8670  -57.0560   21.9760 C.ar      1 11D301      0.0000 
      2 C2        -20.8850  -56.9560   23.3950 C.ar      1 11D301      0.0000 
      3 C3        -21.6660  -57.9100   24.1380 C.ar      1 11D301      0.0000 
      4 C4        -22.4430  -58.8620   23.3980 C.ar      1 11D301      0.0000 
      5 C5        -22.3720  -58.9200   22.0320 C.ar      1 11D301      0.0000 
      6 C6        -21.5810  -58.0230   21.3310 C.ar      1 11D301      0.0000 
      7 C7        -20.1590  -55.9510   24.1090 C.ar      1 11D301      0.0000 
      8 C8        -20.1700  -55.9440   25.4980 C.ar      1 11D301      0.0000 
      9 C9        -20.8910  -56.8950   26.2050 C.ar      1 11D301      0.0000 
     10 C10       -21.6190  -57.8560   25.5610 C.ar      1 11D301      0.0000 
     11 N11       -19.5070  -54.9120   23.3470 N.3       1 11D301      0.0000 
     12 C12       -18.0820  -55.0910   23.1360 C.3       1 11D301      0.0000 
     13 C13       -20.0270  -53.5650   23.5310 C.3       1 11D301      0.0000 
     14 S14       -23.6220  -59.9270   24.1910 S.o2      1 11D301      0.0000 
     15 O15       -24.5570  -60.3890   23.2120 O.2       1 11D301      0.0000 
     16 O16       -22.8830  -60.8790   24.9600 O.2       1 11D301      0.0000 
     17 N17       -24.4520  -59.0270   25.2470 N.pl3     1 11D301      0.0000 
     18 C18       -25.5730  -58.1410   24.8770 C.3       1 11D301      0.0000 
     19 C19       -25.0950  -56.7170   24.5790 C.3       1 11D301      0.0000 
     20 C20       -25.9700  -55.5990   25.1500 C.3       1 11D301      0.0000 
     21 C21       -25.3790  -54.1790   25.1510 C.3       1 11D301      0.0000 
     22 C22       -24.0540  -53.9590   25.8860 C.3       1 11D301      0.0000 
     23 C23       -23.9210  -54.6290   27.2510 C.3       1 11D301      0.0000 
     24 C24       -24.9680  -54.2200   28.2890 C.3       1 11D301      0.0000 
     25 C25       -24.5580  -54.4630   29.7460 C.3       1 11D301      0.0000 
     26 C26       -25.0670  -55.7650   30.3670 C.3       1 11D301      0.0000 
     27 C27       -25.9570  -55.5550   31.5960 C.3       1 11D301      0.0000 
     28 C28       -25.7810  -56.5510   32.7070 C.2       1 11D301      0.0000 
     29 O29       -26.6930  -57.2140   33.1540 O.co2     1 11D301      0.0000 
     30 O30       -24.5620  -56.6200   33.1630 O.co2     1 11D301      0.0000 
@<TRIPOS>BOND
     1    1    2 ar   
     2    1    6 ar   
     3    2    3 ar   
     4    2    7 ar   
     5    3    4 ar   
     6    3   10 ar   
     7    4    5 ar   
     8    4   14 1    
     9    5    6 ar   
    10    7    8 ar   
    11    7   11 1    
    12    8    9 ar   
    13    9   10 ar   
    14   11   12 1    
    15   11   13 1    
    16   14   15 2    
    17   14   16 2    
    18   14   17 1    
    19   17   18 1    
    20   18   19 1    
    21   19   20 1    
    22   20   21 1    
    23   21   22 1    
    24   22   23 1    
    25   23   24 1    
    26   24   25 1    
    27   25   26 1    
    28   26   27 1    
    29   27   28 1    
    30   28   29 ar   
    31   28   30 ar   
@<TRIPOS>SUBSTRUCTURE
     1 11D301      1 GROUP   
@<TRIPOS>SET

