#    Name: 6r2u_6_11D
#    Modification time : Fri May 22 19:27:42 2020

@<TRIPOS>MOLECULE
6r2u_6_11D
   30    31     1     0     0
SMALL
NO_CHARGES


@<TRIPOS>ATOM
      1 C1        -46.8410  -26.2640   21.5000 C.ar      1 11D301      0.0000 
      2 C2        -45.4550  -26.5320   21.6880 C.ar      1 11D301      0.0000 
      3 C3        -44.7880  -27.3720   20.7210 C.ar      1 11D301      0.0000 
      4 C4        -45.5760  -27.9340   19.6570 C.ar      1 11D301      0.0000 
      5 C5        -46.9020  -27.6210   19.5230 C.ar      1 11D301      0.0000 
      6 C6        -47.5240  -26.7900   20.4410 C.ar      1 11D301      0.0000 
      7 C7        -44.6860  -25.9760   22.7740 C.ar      1 11D301      0.0000 
      8 C8        -43.3170  -26.2240   22.8510 C.ar      1 11D301      0.0000 
      9 C9        -42.6850  -27.0030   21.8970 C.ar      1 11D301      0.0000 
     10 C10       -43.3830  -27.5650   20.8610 C.ar      1 11D301      0.0000 
     11 N11       -45.3870  -25.2070   23.8050 N.3       1 11D301      0.0000 
     12 C12       -44.6420  -24.1070   24.4050 C.3       1 11D301      0.0000 
     13 C13       -46.0830  -26.0250   24.7840 C.3       1 11D301      0.0000 
     14 S14       -44.9030  -29.1070   18.5030 S.o2      1 11D301      0.0000 
     15 O15       -45.9720  -29.9280   18.0200 O.2       1 11D301      0.0000 
     16 O16       -44.1430  -28.3380   17.5670 O.2       1 11D301      0.0000 
     17 N17       -43.8450  -30.1070   19.2050 N.pl3     1 11D301      0.0000 
     18 C18       -44.2080  -31.3600   19.8810 C.3       1 11D301      0.0000 
     19 C19       -44.6020  -31.1280   21.3390 C.3       1 11D301      0.0000 
     20 C20       -43.4470  -31.2650   22.3260 C.3       1 11D301      0.0000 
     21 C21       -43.8170  -31.0680   23.7930 C.3       1 11D301      0.0000 
     22 C22       -42.6640  -30.5880   24.6670 C.3       1 11D301      0.0000 
     23 C23       -41.3920  -31.4440   24.6080 C.3       1 11D301      0.0000 
     24 C24       -40.1620  -30.7390   24.0290 C.3       1 11D301      0.0000 
     25 C25       -38.9520  -31.6390   23.7480 C.3       1 11D301      0.0000 
     26 C26       -37.5890  -31.0150   24.0580 C.3       1 11D301      0.0000 
     27 C27       -37.0310  -30.0870   22.9760 C.3       1 11D301      0.0000 
     28 C28       -37.5170  -28.6630   23.0100 C.2       1 11D301      0.0000 
     29 O29       -37.8900  -28.0900   22.0040 O.co2     1 11D301      0.0000 
     30 O30       -37.4960  -28.0840   24.2030 O.co2     1 11D301      0.0000 
@<TRIPOS>BOND
     1    1    2 ar   
     2    1    6 ar   
     3    2    3 ar   
     4    2    7 ar   
     5    3    4 ar   
     6    3   10 ar   
     7    4    5 ar   
     8    4   14 1    
     9    5    6 ar   
    10    7    8 ar   
    11    7   11 1    
    12    8    9 ar   
    13    9   10 ar   
    14   11   12 1    
    15   11   13 1    
    16   14   15 2    
    17   14   16 2    
    18   14   17 1    
    19   17   18 1    
    20   18   19 1    
    21   19   20 1    
    22   20   21 1    
    23   21   22 1    
    24   22   23 1    
    25   23   24 1    
    26   24   25 1    
    27   25   26 1    
    28   26   27 1    
    29   27   28 1    
    30   28   29 ar   
    31   28   30 ar   
@<TRIPOS>SUBSTRUCTURE
     1 11D301      1 GROUP   
@<TRIPOS>SET

