#    Name: 6r2u_5_11D
#    Modification time : Fri May 22 19:27:36 2020

@<TRIPOS>MOLECULE
6r2u_5_11D
   30    31     1     0     0
SMALL
NO_CHARGES


@<TRIPOS>ATOM
      1 C1        -41.1620  -52.5700   48.0140 C.ar      1 11D301      0.0000 
      2 C2        -40.8500  -53.1240   49.2830 C.ar      1 11D301      0.0000 
      3 C3        -39.7600  -52.5530   50.0280 C.ar      1 11D301      0.0000 
      4 C4        -39.0750  -51.4310   49.4580 C.ar      1 11D301      0.0000 
      5 C5        -39.4500  -50.9190   48.2460 C.ar      1 11D301      0.0000 
      6 C6        -40.4750  -51.5010   47.5240 C.ar      1 11D301      0.0000 
      7 C7        -41.5890  -54.2050   49.8570 C.ar      1 11D301      0.0000 
      8 C8        -41.2100  -54.7230   51.0850 C.ar      1 11D301      0.0000 
      9 C9        -40.1480  -54.1780   51.7890 C.ar      1 11D301      0.0000 
     10 C10       -39.4480  -53.1140   51.2980 C.ar      1 11D301      0.0000 
     11 N11       -42.7880  -54.6390   49.1920 N.3       1 11D301      0.0000 
     12 C12       -43.9960  -54.1000   49.7830 C.3       1 11D301      0.0000 
     13 C13       -42.8800  -56.0530   48.8810 C.3       1 11D301      0.0000 
     14 S14       -37.7480  -50.6090   50.3030 S.o2      1 11D301      0.0000 
     15 O15       -37.1900  -49.6520   49.3980 O.2       1 11D301      0.0000 
     16 O16       -36.8870  -51.5670   50.9330 O.2       1 11D301      0.0000 
     17 N17       -38.4860  -49.7790   51.4690 N.pl3     1 11D301      0.0000 
     18 C18       -37.8960  -49.6720   52.8050 C.3       1 11D301      0.0000 
     19 C19       -38.7200  -50.4320   53.8240 C.3       1 11D301      0.0000 
     20 C20       -38.8060  -49.7230   55.1590 C.3       1 11D301      0.0000 
     21 C21       -38.9060  -50.6460   56.3520 C.3       1 11D301      0.0000 
     22 C22       -37.5950  -50.8450   57.1100 C.3       1 11D301      0.0000 
     23 C23       -37.5100  -50.0940   58.4220 C.3       1 11D301      0.0000 
     24 C24       -36.3840  -50.5570   59.3220 C.3       1 11D301      0.0000 
     25 C25       -34.9870  -50.4200   58.7380 C.3       1 11D301      0.0000 
     26 C26       -34.2910  -51.7200   58.4020 C.3       1 11D301      0.0000 
     27 C27       -32.7820  -51.7120   58.6600 C.3       1 11D301      0.0000 
     28 C28       -32.3070  -52.8740   59.4820 C.2       1 11D301      0.0000 
     29 O29       -32.2340  -52.8540   60.6870 O.co2     1 11D301      0.0000 
     30 O30       -32.0290  -53.9260   58.7620 O.co2     1 11D301      0.0000 
@<TRIPOS>BOND
     1    1    2 ar   
     2    1    6 ar   
     3    2    3 ar   
     4    2    7 ar   
     5    3    4 ar   
     6    3   10 ar   
     7    4    5 ar   
     8    4   14 1    
     9    5    6 ar   
    10    7    8 ar   
    11    7   11 1    
    12    8    9 ar   
    13    9   10 ar   
    14   11   12 1    
    15   11   13 1    
    16   14   15 2    
    17   14   16 2    
    18   14   17 1    
    19   17   18 1    
    20   18   19 1    
    21   19   20 1    
    22   20   21 1    
    23   21   22 1    
    24   22   23 1    
    25   23   24 1    
    26   24   25 1    
    27   25   26 1    
    28   26   27 1    
    29   27   28 1    
    30   28   29 ar   
    31   28   30 ar   
@<TRIPOS>SUBSTRUCTURE
     1 11D301      1 GROUP   
@<TRIPOS>SET

