#    Name: 6ps1_1_TIM_CAVITY_N1_6
#    Modification time : Fri May 22 19:34:24 2020

@<TRIPOS>MOLECULE
6ps1_1_TIM_CAVITY_N1_6
  111     0     6     0     0
SMALL
NO_CHARGES


@<TRIPOS>ATOM
      1 OG          0.5800    0.7000   46.9600 O.3       1 SER1        0.0000 
      2 OG          0.4600    0.1300   50.2700 O.3       1 SER1        0.0000 
      3 OG          0.8300    0.4200   51.6900 O.3       1 SER1        0.0000 
      4 OG          2.9100    3.0000   52.2100 O.3       1 SER1        0.0000 
      5 OG          1.5100   -1.3600   53.4500 O.3       1 SER1        0.0000 
      6 OG          5.5800   11.1500   53.0300 O.3       1 SER1        0.0000 
      7 OG          4.7300   10.0000   53.4900 O.3       1 SER1        0.0000 
      8 OG          3.8400    0.9300   58.7000 O.3       1 SER1        0.0000 
      9 OG          3.8000   10.6500   58.3300 O.3       1 SER1        0.0000 
     10 N           0.2700    2.7700   46.6300 N.am      2 ALA2        0.0000 
     11 O           2.8600    0.6400   51.1200 O.2       2 ALA2        0.0000 
     12 O           2.0000   -0.5100   51.5800 O.2       2 ALA2        0.0000 
     13 N           2.5900    5.0700   51.8800 N.am      2 ALA2        0.0000 
     14 N           3.2300    0.9300   52.5500 N.am      2 ALA2        0.0000 
     15 O           2.3700   -0.2200   53.0000 O.2       2 ALA2        0.0000 
     16 N           3.5000    8.5700   52.5100 N.am      2 ALA2        0.0000 
     17 N           2.6400    7.4200   52.9700 N.am      2 ALA2        0.0000 
     18 N           3.8700    8.8600   53.9400 N.am      2 ALA2        0.0000 
     19 N           4.1900    6.7900   54.2800 N.am      2 ALA2        0.0000 
     20 N           3.0100    7.7100   54.3900 N.am      2 ALA2        0.0000 
     21 N           5.6300   13.5000   54.1200 N.am      2 ALA2        0.0000 
     22 N           5.5100    0.8600   56.7100 N.am      2 ALA2        0.0000 
     23 O           3.7500    8.2900   57.2400 O.2       2 ALA2        0.0000 
     24 N           2.5700    9.2100   57.3600 N.am      2 ALA2        0.0000 
     25 N           5.5600    3.2200   57.8000 N.am      2 ALA2        0.0000 
     26 N           4.7000    2.0800   58.2500 N.am      2 ALA2        0.0000 
     27 O           5.2900    7.6500   58.5500 O.2       2 ALA2        0.0000 
     28 O           4.1100    8.5800   58.6700 O.2       2 ALA2        0.0000 
     29 N           5.6100    5.5800   58.8900 N.am      2 ALA2        0.0000 
     30 NZ          2.7200    5.6300   48.5700 N.4       3 LYS4        0.0000 
     31 NZ          1.8600    4.4900   49.0300 N.4       3 LYS4        0.0000 
     32 NZ          0.6800    5.4200   49.1400 N.4       3 LYS4        0.0000 
     33 NZ          3.0800    5.9200   50.0000 N.4       3 LYS4        0.0000 
     34 NZ          2.2300    4.7800   50.4500 N.4       3 LYS4        0.0000 
     35 NZ          1.0500    5.7000   50.5700 N.4       3 LYS4        0.0000 
     36 NZ          2.2800    7.1400   51.5400 N.4       3 LYS4        0.0000 
     37 NZ          1.4200    5.9900   51.9900 N.4       3 LYS4        0.0000 
     38 NZ          0.2400    6.9200   52.1100 N.4       3 LYS4        0.0000 
     39 NZ          2.3300    9.4900   52.6300 N.4       3 LYS4        0.0000 
     40 NZ          1.4700    8.3500   53.0800 N.4       3 LYS4        0.0000 
     41 CZ          1.8100    2.1300   47.9400 C.ar      4 PHE5        0.0000 
     42 CZ          0.9500    0.9900   48.3900 C.ar      4 PHE5        0.0000 
     43 CZ          3.8900    4.7100   48.4600 C.ar      4 PHE5        0.0000 
     44 CZ          3.0300    3.5600   48.9100 C.ar      4 PHE5        0.0000 
     45 CZ          3.3500    1.4900   49.2500 C.ar      4 PHE5        0.0000 
     46 CZ          2.1800    2.4200   49.3600 C.ar      4 PHE5        0.0000 
     47 CZ          2.4900    0.3500   49.7000 C.ar      4 PHE5        0.0000 
     48 CZ          4.2600    5.0000   49.8800 C.ar      4 PHE5        0.0000 
     49 CZ          3.4000    3.8500   50.3400 C.ar      4 PHE5        0.0000 
     50 CZ          3.7200    1.7800   50.6700 C.ar      4 PHE5        0.0000 
     51 CZ          2.5400    2.7100   50.7900 C.ar      4 PHE5        0.0000 
     52 CZ          3.7700    4.1400   51.7600 C.ar      4 PHE5        0.0000 
     53 CZ          4.0900    2.0700   52.1000 C.ar      4 PHE5        0.0000 
     54 CZ          1.7400    3.9200   52.3300 C.ar      4 PHE5        0.0000 
     55 CZ          2.0500    1.8500   52.6700 C.ar      4 PHE5        0.0000 
     56 CZ          0.8800    2.7800   52.7800 C.ar      4 PHE5        0.0000 
     57 CZ          1.2000    0.7100   53.1200 C.ar      4 PHE5        0.0000 
     58 CZ          0.3400   -0.4400   53.5700 C.ar      4 PHE5        0.0000 
     59 CZ          2.9600    5.3500   53.3000 C.ar      4 PHE5        0.0000 
     60 CZ          1.7900    6.2800   53.4200 C.ar      4 PHE5        0.0000 
     61 CZ          0.9300    5.1300   53.8700 C.ar      4 PHE5        0.0000 
     62 CZ          2.7400    0.0700   54.4300 C.ar      4 PHE5        0.0000 
     63 CZ          4.4100   12.0700   53.1500 C.ar      4 PHE5        0.0000 
     64 CZ          3.5500   10.9300   53.6000 C.ar      4 PHE5        0.0000 
     65 CZ          2.6900    9.7800   54.0600 C.ar      4 PHE5        0.0000 
     66 CZ          1.8400    8.6400   54.5100 C.ar      4 PHE5        0.0000 
     67 CZ          3.3300    5.6400   54.7300 C.ar      4 PHE5        0.0000 
     68 CZ          4.7800   12.3600   54.5800 C.ar      4 PHE5        0.0000 
     69 CZ          3.6000   13.2900   54.6900 C.ar      4 PHE5        0.0000 
     70 CZ          3.9200   11.2100   55.0300 C.ar      4 PHE5        0.0000 
     71 CZ          5.4100    8.2200   55.2500 C.ar      4 PHE5        0.0000 
     72 CZ          3.0600   10.0700   55.4800 C.ar      4 PHE5        0.0000 
     73 CZ          4.5500    7.0700   55.7000 C.ar      4 PHE5        0.0000 
     74 CZ          2.2000    8.9300   55.9300 C.ar      4 PHE5        0.0000 
     75 CZ          5.1400   12.6500   56.0000 C.ar      4 PHE5        0.0000 
     76 CZ          4.2900   11.5000   56.4500 C.ar      4 PHE5        0.0000 
     77 CZ          6.9500    7.5800   56.5600 C.ar      4 PHE5        0.0000 
     78 CZ          3.4300   10.3600   56.9100 C.ar      4 PHE5        0.0000 
     79 CZ          4.9200    7.3600   57.1300 C.ar      4 PHE5        0.0000 
     80 CZ          5.2400    5.2900   57.4600 C.ar      4 PHE5        0.0000 
     81 CZ          6.4600    6.7200   58.4400 C.ar      4 PHE5        0.0000 
     82 CA          1.4400    1.8400   46.5100 C.3       5 GLY6        0.0000 
     83 CA          1.4900    4.2000   47.6000 C.3       5 GLY6        0.0000 
     84 CA          0.6300    3.0600   48.0500 C.3       5 GLY6        0.0000 
     85 CA         -0.2200    1.9100   48.5100 C.3       5 GLY6        0.0000 
     86 CA          0.0900   -0.1600   48.8400 C.3       5 GLY6        0.0000 
     87 CA          1.0000    3.3500   49.4800 C.3       5 GLY6        0.0000 
     88 CA          1.3200    1.2700   49.8100 C.3       5 GLY6        0.0000 
     89 CA          1.6300   -0.8000   50.1500 C.3       5 GLY6        0.0000 
     90 CA         -0.7100    1.0600   50.3800 C.3       5 GLY6        0.0000 
     91 CA          1.3700    3.6300   50.9000 C.3       5 GLY6        0.0000 
     92 CA          0.5100    2.4900   51.3600 C.3       5 GLY6        0.0000 
     93 CA         -0.3500    1.3400   51.8100 C.3       5 GLY6        0.0000 
     94 CA          0.5600    4.8500   52.4500 C.3       5 GLY6        0.0000 
     95 CA          0.6100    7.2100   53.5300 C.3       5 GLY6        0.0000 
     96 CA          2.1500    6.5700   54.8400 C.3       5 GLY6        0.0000 
     97 CA          0.9800    7.4900   54.9600 C.3       5 GLY6        0.0000 
     98 CA          6.8100   12.5800   54.0100 C.3       5 GLY6        0.0000 
     99 CA          5.9500   11.4300   54.4600 C.3       5 GLY6        0.0000 
    100 CA          6.2700    9.3600   54.8000 C.3       5 GLY6        0.0000 
    101 CA          5.0900   10.2900   54.9100 C.3       5 GLY6        0.0000 
    102 CA          3.3800    8.0000   55.8200 C.3       5 GLY6        0.0000 
    103 CA          6.3200   11.7200   55.8900 C.3       5 GLY6        0.0000 
    104 CA          5.4600   10.5800   56.3400 C.3       5 GLY6        0.0000 
    105 CA          5.7800    8.5100   56.6700 C.3       5 GLY6        0.0000 
    106 CA          5.8300   10.8700   57.7600 C.3       5 GLY6        0.0000 
    107 CA          6.1500    8.7900   58.1000 C.3       5 GLY6        0.0000 
    108 CA          4.9700    9.7200   58.2200 C.3       5 GLY6        0.0000 
    109 DU          1.6900    1.5600   51.2400 H         6 CUB7        0.0000 
    110 DU          4.2400    9.1400   55.3600 H         6 CUB7        0.0000 
    111 DU          4.6000    9.4300   56.7900 H         6 CUB7        0.0000 
@<TRIPOS>BOND
@<TRIPOS>SUBSTRUCTURE
     1 SER1        1 GROUP   
     2 ALA2       10 GROUP   
     3 LYS4       30 GROUP   
     4 PHE5       41 GROUP   
     5 GLY6       82 GROUP   
     6 CUB7      109 GROUP   
@<TRIPOS>SET

