#    Name: 6ps1_1_TIM
#    Modification time : Fri May 22 19:34:23 2020

@<TRIPOS>MOLECULE
6ps1_1_TIM
   21    22     1     0     0
SMALL
NO_CHARGES


@<TRIPOS>ATOM
      1 C5          3.1240    1.0990   50.7900 C.3       1 TIM1201     0.0000 
      2 C6          2.9990    1.4190   52.2730 C.3       1 TIM1201     0.0000 
      3 O1          2.4800    0.2780   52.9890 O.3       1 TIM1201     0.0000 
      4 C2          1.1780   -0.1350   52.5220 C.3       1 TIM1201     0.0000 
      5 C3          1.2030   -0.4950   51.0400 C.3       1 TIM1201     0.0000 
      6 N4          1.8730    0.5460   50.2480 N.3       1 TIM1201     0.0000 
      7 C7          1.3680    0.9260   49.0130 C.2       1 TIM1201     0.0000 
      8 N8          0.9580    0.0250   48.0990 N.2       1 TIM1201     0.0000 
      9 S9          0.4460    0.9060   46.7700 S.3       1 TIM1201     0.0000 
     10 N10         0.7260    2.4540   47.3050 N.2       1 TIM1201     0.0000 
     11 C11         1.2360    2.2960   48.5340 C.2       1 TIM1201     0.0000 
     12 O12         1.5610    3.4400   49.2050 O.3       1 TIM1201     0.0000 
     13 C13         2.6560    4.1570   48.6090 C.3       1 TIM1201     0.0000 
     14 C14         3.1690    5.2890   49.4990 C.3       1 TIM1201     0.0000 
     15 O15         3.3930    6.4260   48.6660 O.3       1 TIM1201     0.0000 
     16 C16         2.2710    5.6480   50.7030 C.3       1 TIM1201     0.0000 
     17 N17         2.7440    6.8930   51.3690 N.4       1 TIM1201     0.0000 
     18 C18         2.4440    7.1830   52.8080 C.3       1 TIM1201     0.0000 
     19 C19         0.9600    7.2720   53.0730 C.3       1 TIM1201     0.0000 
     20 C20         3.0370    6.0650   53.6870 C.3       1 TIM1201     0.0000 
     21 C21         3.0110    8.5220   53.3030 C.3       1 TIM1201     0.0000 
@<TRIPOS>BOND
     1    1    2 1    
     2    1    6 1    
     3    2    3 1    
     4    3    4 1    
     5    4    5 1    
     6    5    6 1    
     7    6    7 1    
     8    7    8 2    
     9    7   11 1    
    10    8    9 1    
    11    9   10 1    
    12   10   11 2    
    13   11   12 1    
    14   12   13 1    
    15   13   14 1    
    16   14   15 1    
    17   14   16 1    
    18   16   17 1    
    19   17   18 1    
    20   18   19 1    
    21   18   20 1    
    22   18   21 1    
@<TRIPOS>SUBSTRUCTURE
     1 TIM1201     1 GROUP   
@<TRIPOS>SET

