#    Name: 5yg9_1_AMP
#    Modification time : Fri May 22 19:14:59 2020

@<TRIPOS>MOLECULE
5yg9_1_AMP
   23    25     1     0     1
SMALL
NO_CHARGES


@<TRIPOS>ATOM
      1 P          -8.1610   71.0390   46.5930 P.3       1 AMP402      0.0000 
      2 O1P        -7.5370   69.8310   45.8140 O.co2     1 AMP402      0.0000 
      3 O2P        -7.9350   71.0840   48.1040 O.co2     1 AMP402      0.0000 
      4 O3P        -8.1780   72.4800   46.0650 O.co2     1 AMP402      0.0000 
      5 O5'        -9.7280   70.7580   46.4140 O.3       1 AMP402      0.0000 
      6 C5'       -10.6430   70.7120   47.4870 C.3       1 AMP402      0.0000 
      7 C4'       -11.9840   70.1760   47.0000 C.3       1 AMP402      0.0000 
      8 O4'       -13.0770   70.8310   47.6550 O.3       1 AMP402      0.0000 
      9 C3'       -12.2920   70.3230   45.5300 C.3       1 AMP402      0.0000 
     10 O3'       -13.0170   69.1440   45.2490 O.3       1 AMP402      0.0000 
     11 C2'       -13.1900   71.5220   45.3970 C.3       1 AMP402      0.0000 
     12 O2'       -14.2710   71.2430   44.5260 O.3       1 AMP402      0.0000 
     13 C1'       -13.7750   71.7250   46.7840 C.3       1 AMP402      0.0000 
     14 N9        -13.6600   73.0690   47.4400 N.pl3     1 AMP402      0.0000 
     15 C8        -12.5360   73.7650   47.7870 C.2       1 AMP402      0.0000 
     16 N7        -12.8410   74.9310   48.4160 N.2       1 AMP402      0.0000 
     17 C5        -14.1860   74.9600   48.4960 C.ar      1 AMP402      0.0000 
     18 C6        -15.1620   75.8910   49.0510 C.ar      1 AMP402      0.0000 
     19 N6        -14.7310   77.0220   49.6360 N.pl3     1 AMP402      0.0000 
     20 N1        -16.4790   75.5780   48.9350 N.ar      1 AMP402      0.0000 
     21 C2        -16.8980   74.4320   48.3320 C.ar      1 AMP402      0.0000 
     22 N3        -16.0630   73.5210   47.7910 N.ar      1 AMP402      0.0000 
     23 C4        -14.7280   73.7450   47.8580 C.ar      1 AMP402      0.0000 
@<TRIPOS>BOND
     1    1    2 ar   
     2    1    3 ar   
     3    1    4 ar   
     4    1    5 1    
     5    5    6 1    
     6    6    7 1    
     7    7    8 1    
     8    7    9 1    
     9    8   13 1    
    10    9   10 1    
    11    9   11 1    
    12   11   12 1    
    13   11   13 1    
    14   13   14 1    
    15   14   15 1    
    16   14   23 1    
    17   15   16 2    
    18   16   17 1    
    19   17   18 ar   
    20   17   23 ar   
    21   18   19 1    
    22   18   20 ar   
    23   20   21 ar   
    24   21   22 ar   
    25   22   23 ar   
@<TRIPOS>SUBSTRUCTURE
     1 AMP402      1 GROUP   
@<TRIPOS>SET
ATOM$ORANGE STATIC     ATOMS   COLORGROUP SYSTEM 
20 6 6 7 7 9 9 11 11 13 13 15 15 17 17 18 18 21 \
21 23 23 

