#    Name: 5yg9_3_AMP
#    Modification time : Fri May 22 19:15:17 2020

@<TRIPOS>MOLECULE
5yg9_3_AMP
   23    25     1     0     1
SMALL
NO_CHARGES


@<TRIPOS>ATOM
      1 P          -8.1580   55.8320   30.2750 P.3       1 AMP402      0.0000 
      2 O1P        -8.5060   55.3270   28.8720 O.co2     1 AMP402      0.0000 
      3 O2P        -7.6090   54.8080   31.2750 O.co2     1 AMP402      0.0000 
      4 O3P        -7.5470   57.2220   30.3970 O.co2     1 AMP402      0.0000 
      5 O5'        -9.6480   56.1530   30.7900 O.3       1 AMP402      0.0000 
      6 C5'       -10.5420   57.0920   30.2030 C.3       1 AMP402      0.0000 
      7 C4'       -11.9160   56.9250   30.8440 C.3       1 AMP402      0.0000 
      8 O4'       -12.9400   57.1610   29.8800 O.3       1 AMP402      0.0000 
      9 C3'       -12.2800   55.5610   31.4090 C.3       1 AMP402      0.0000 
     10 O3'       -13.2570   55.7610   32.4300 O.3       1 AMP402      0.0000 
     11 C2'       -12.9440   54.8140   30.2890 C.3       1 AMP402      0.0000 
     12 O2'       -13.8780   53.8490   30.7690 O.3       1 AMP402      0.0000 
     13 C1'       -13.6150   55.9440   29.5240 C.3       1 AMP402      0.0000 
     14 N9        -13.4810   55.8650   28.0480 N.pl3     1 AMP402      0.0000 
     15 C8        -12.3350   55.8600   27.3090 C.2       1 AMP402      0.0000 
     16 N7        -12.5930   55.8170   25.9860 N.2       1 AMP402      0.0000 
     17 C5        -13.9260   55.8140   25.8580 C.ar      1 AMP402      0.0000 
     18 C6        -14.8640   55.7940   24.7320 C.ar      1 AMP402      0.0000 
     19 N6        -14.4260   55.7660   23.4630 N.pl3     1 AMP402      0.0000 
     20 N1        -16.1740   55.8060   25.0310 N.ar      1 AMP402      0.0000 
     21 C2        -16.6410   55.8410   26.3080 C.ar      1 AMP402      0.0000 
     22 N3        -15.8500   55.8770   27.3950 N.ar      1 AMP402      0.0000 
     23 C4        -14.5100   55.8530   27.2200 C.ar      1 AMP402      0.0000 
@<TRIPOS>BOND
     1    1    2 ar   
     2    1    3 ar   
     3    1    4 ar   
     4    1    5 1    
     5    5    6 1    
     6    6    7 1    
     7    7    8 1    
     8    7    9 1    
     9    8   13 1    
    10    9   10 1    
    11    9   11 1    
    12   11   12 1    
    13   11   13 1    
    14   13   14 1    
    15   14   15 1    
    16   14   23 1    
    17   15   16 2    
    18   16   17 1    
    19   17   18 ar   
    20   17   23 ar   
    21   18   19 1    
    22   18   20 ar   
    23   20   21 ar   
    24   21   22 ar   
    25   22   23 ar   
@<TRIPOS>SUBSTRUCTURE
     1 AMP402      1 GROUP   
@<TRIPOS>SET
ATOM$ORANGE STATIC     ATOMS   COLORGROUP SYSTEM 
20 6 6 7 7 9 9 11 11 13 13 15 15 17 17 18 18 21 \
21 23 23 

