#    Name: 5yg9_2_AMP
#    Modification time : Fri May 22 19:15:08 2020

@<TRIPOS>MOLECULE
5yg9_2_AMP
   23    25     1     0     1
SMALL
NO_CHARGES


@<TRIPOS>ATOM
      1 P          -8.0520   49.7440   51.2350 P.3       1 AMP402      0.0000 
      2 O1P        -7.2380   49.4690   49.9910 O.co2     1 AMP402      0.0000 
      3 O2P        -8.2840   48.6440   52.3000 O.co2     1 AMP402      0.0000 
      4 O3P        -7.8280   51.1750   51.7440 O.co2     1 AMP402      0.0000 
      5 O5'        -9.4640   49.7590   50.4630 O.3       1 AMP402      0.0000 
      6 C5'       -10.5600   48.9880   50.9410 C.3       1 AMP402      0.0000 
      7 C4'       -11.8500   49.4800   50.3410 C.3       1 AMP402      0.0000 
      8 O4'       -12.8360   48.5200   50.6370 O.3       1 AMP402      0.0000 
      9 C3'       -12.3450   50.7400   51.0080 C.3       1 AMP402      0.0000 
     10 O3'       -13.1570   51.4350   50.0580 O.3       1 AMP402      0.0000 
     11 C2'       -13.1180   50.2380   52.2240 C.3       1 AMP402      0.0000 
     12 O2'       -14.1240   51.1560   52.6320 O.3       1 AMP402      0.0000 
     13 C1'       -13.6820   48.9170   51.7400 C.3       1 AMP402      0.0000 
     14 N9        -13.6140   47.6900   52.5570 N.pl3     1 AMP402      0.0000 
     15 C8        -12.5080   47.0120   52.9430 C.2       1 AMP402      0.0000 
     16 N7        -12.8210   45.8680   53.6000 N.2       1 AMP402      0.0000 
     17 C5        -14.1490   45.7840   53.5800 C.ar      1 AMP402      0.0000 
     18 C6        -15.1210   44.8350   54.0890 C.ar      1 AMP402      0.0000 
     19 N6        -14.7120   43.7320   54.7360 N.pl3     1 AMP402      0.0000 
     20 N1        -16.4260   45.0920   53.8750 N.ar      1 AMP402      0.0000 
     21 C2        -16.8490   46.1850   53.2230 C.ar      1 AMP402      0.0000 
     22 N3        -15.9990   47.1020   52.7230 N.ar      1 AMP402      0.0000 
     23 C4        -14.6690   46.9570   52.8780 C.ar      1 AMP402      0.0000 
@<TRIPOS>BOND
     1    1    2 ar   
     2    1    3 ar   
     3    1    4 ar   
     4    1    5 1    
     5    5    6 1    
     6    6    7 1    
     7    7    8 1    
     8    7    9 1    
     9    8   13 1    
    10    9   10 1    
    11    9   11 1    
    12   11   12 1    
    13   11   13 1    
    14   13   14 1    
    15   14   15 1    
    16   14   23 1    
    17   15   16 2    
    18   16   17 1    
    19   17   18 ar   
    20   17   23 ar   
    21   18   19 1    
    22   18   20 ar   
    23   20   21 ar   
    24   21   22 ar   
    25   22   23 ar   
@<TRIPOS>SUBSTRUCTURE
     1 AMP402      1 GROUP   
@<TRIPOS>SET
ATOM$ORANGE STATIC     ATOMS   COLORGROUP SYSTEM 
20 6 6 7 7 9 9 11 11 13 13 15 15 17 17 18 18 21 \
21 23 23 

