#    Name: 6h45_2_QEI_CAVITY_N1_4
#    Modification time : Fri May 22 19:31:09 2020

@<TRIPOS>MOLECULE
6h45_2_QEI_CAVITY_N1_4
   77     0     6     0     0
SMALL
NO_CHARGES


@<TRIPOS>ATOM
      1 OG         29.9400  -33.7100   27.5000 O.3       1 SER1        0.0000 
      2 O          29.4800  -37.0400   27.5200 O.2       2 ALA2        0.0000 
      3 N          31.2400  -35.9300   27.0900 N.am      2 ALA2        0.0000 
      4 O          33.1300  -36.8700   27.1900 O.2       2 ALA2        0.0000 
      5 N          32.9900  -34.8200   26.6600 N.am      2 ALA2        0.0000 
      6 N          31.8400  -34.6500   27.6000 N.am      2 ALA2        0.0000 
      7 O          33.7400  -35.5900   27.7100 O.2       2 ALA2        0.0000 
      8 O          34.4800  -36.3700   28.7500 O.2       2 ALA2        0.0000 
      9 N          31.6900  -32.6000   27.0700 N.am      2 ALA2        0.0000 
     10 N          33.5900  -33.5400   27.1700 N.am      2 ALA2        0.0000 
     11 O          36.2400  -35.2600   28.3200 O.2       2 ALA2        0.0000 
     12 N          32.3000  -31.3300   27.5900 N.am      2 ALA2        0.0000 
     13 N          35.3500  -32.4300   26.7400 N.am      2 ALA2        0.0000 
     14 N          34.2000  -32.2700   27.6900 N.am      2 ALA2        0.0000 
     15 N          36.1000  -33.2100   27.7900 N.am      2 ALA2        0.0000 
     16 O          35.9500  -31.1600   27.2600 O.2       2 ALA2        0.0000 
     17 N          35.5500  -31.7700   29.2500 N.am      2 ALA2        0.0000 
     18 NZ         28.4700  -38.9200   29.0000 N.4       3 LYS4        0.0000 
     19 NZ         28.0600  -39.5300   30.9900 N.4       3 LYS4        0.0000 
     20 NZ         27.1700  -36.7100   29.4100 N.4       3 LYS4        0.0000 
     21 NZ         29.0700  -37.6500   29.5100 N.4       3 LYS4        0.0000 
     22 NZ         27.9200  -37.4800   30.4600 N.4       3 LYS4        0.0000 
     23 NZ         28.6600  -38.2600   31.5000 N.4       3 LYS4        0.0000 
     24 NZ         30.5600  -39.2000   31.6000 N.4       3 LYS4        0.0000 
     25 NZ         34.6300  -38.4200   29.2800 N.4       3 LYS4        0.0000 
     26 CZ         28.9300  -35.6000   28.9800 C.ar      4 PHE5        0.0000 
     27 CZ         27.7700  -35.4300   29.9200 C.ar      4 PHE5        0.0000 
     28 CZ         30.8300  -36.5400   29.0800 C.ar      4 PHE5        0.0000 
     29 CZ         29.6700  -36.3700   30.0200 C.ar      4 PHE5        0.0000 
     30 CZ         28.5200  -36.2100   30.9700 C.ar      4 PHE5        0.0000 
     31 CZ         32.7300  -37.4800   29.1800 C.ar      4 PHE5        0.0000 
     32 CZ         31.5700  -37.3100   30.1300 C.ar      4 PHE5        0.0000 
     33 CZ         30.4200  -37.1500   31.0700 C.ar      4 PHE5        0.0000 
     34 CZ         29.2700  -36.9800   32.0200 C.ar      4 PHE5        0.0000 
     35 CZ         33.4700  -38.2500   30.2300 C.ar      4 PHE5        0.0000 
     36 CZ         32.3200  -38.0900   31.1700 C.ar      4 PHE5        0.0000 
     37 CZ         31.1700  -37.9200   32.1200 C.ar      4 PHE5        0.0000 
     38 CZ         30.6800  -34.4900   28.5500 C.ar      4 PHE5        0.0000 
     39 CZ         29.5300  -34.3200   29.4900 C.ar      4 PHE5        0.0000 
     40 CZ         28.3800  -34.1600   30.4400 C.ar      4 PHE5        0.0000 
     41 CZ         32.5800  -35.4300   28.6500 C.ar      4 PHE5        0.0000 
     42 CZ         33.3300  -36.2000   29.7000 C.ar      4 PHE5        0.0000 
     43 CZ         32.4400  -33.3800   28.1200 C.ar      4 PHE5        0.0000 
     44 CZ         34.3400  -34.3200   28.2200 C.ar      4 PHE5        0.0000 
     45 CZ         33.0400  -32.1100   28.6300 C.ar      4 PHE5        0.0000 
     46 CZ         31.8900  -31.9400   29.5800 C.ar      4 PHE5        0.0000 
     47 CZ         32.4900  -30.6700   30.0900 C.ar      4 PHE5        0.0000 
     48 CZ         34.3900  -31.6100   30.1900 C.ar      4 PHE5        0.0000 
     49 CZ         33.2400  -31.4400   31.1400 C.ar      4 PHE5        0.0000 
     50 CA         29.6200  -39.0900   28.0500 C.3       5 GLY6        0.0000 
     51 CA         29.2100  -39.7000   30.0400 C.3       5 GLY6        0.0000 
     52 CA         30.6300  -37.2000   26.5800 C.3       5 GLY6        0.0000 
     53 CA         28.3300  -36.8700   28.4600 C.3       5 GLY6        0.0000 
     54 CA         30.2300  -37.8100   28.5700 C.3       5 GLY6        0.0000 
     55 CA         32.1200  -38.7500   28.6700 C.3       5 GLY6        0.0000 
     56 CA         30.9700  -38.5900   29.6100 C.3       5 GLY6        0.0000 
     57 CA         29.8200  -38.4200   30.5600 C.3       5 GLY6        0.0000 
     58 CA         31.7200  -39.3600   30.6600 C.3       5 GLY6        0.0000 
     59 CA         29.3400  -34.9900   26.9900 C.3       5 GLY6        0.0000 
     60 CA         28.1800  -34.8200   27.9300 C.3       5 GLY6        0.0000 
     61 CA         30.0800  -35.7600   28.0300 C.3       5 GLY6        0.0000 
     62 CA         31.9800  -36.7000   28.1400 C.3       5 GLY6        0.0000 
     63 CA         33.8800  -37.6400   28.2400 C.3       5 GLY6        0.0000 
     64 CA         34.7500  -33.7100   26.2300 C.3       5 GLY6        0.0000 
     65 CA         35.4900  -34.4800   27.2800 C.3       5 GLY6        0.0000 
     66 CA         35.0900  -35.0900   29.2700 C.3       5 GLY6        0.0000 
     67 CA         33.4500  -31.5000   26.6400 C.3       5 GLY6        0.0000 
     68 CA         34.9400  -33.0500   28.7300 C.3       5 GLY6        0.0000 
     69 CA         34.0500  -30.2200   27.1600 C.3       5 GLY6        0.0000 
     70 CA         32.9000  -30.0600   28.1000 C.3       5 GLY6        0.0000 
     71 CA         34.8000  -31.0000   28.2000 C.3       5 GLY6        0.0000 
     72 CA         33.5000  -28.7800   28.6200 C.3       5 GLY6        0.0000 
     73 CA         35.4000  -29.7200   28.7200 C.3       5 GLY6        0.0000 
     74 CA         34.2500  -29.5600   29.6600 C.3       5 GLY6        0.0000 
     75 CA         34.9900  -30.3300   30.7100 C.3       5 GLY6        0.0000 
     76 DU         28.7900  -33.5500   28.4500 H         6 CUB7        0.0000 
     77 DU         33.6500  -30.8300   29.1500 H         6 CUB7        0.0000 
@<TRIPOS>BOND
@<TRIPOS>SUBSTRUCTURE
     1 SER1        1 GROUP   
     2 ALA2        2 GROUP   
     3 LYS4       18 GROUP   
     4 PHE5       26 GROUP   
     5 GLY6       50 GROUP   
     6 CUB7       76 GROUP   
@<TRIPOS>SET

