#    Name: 6h45_2_QEI
#    Modification time : Fri May 22 19:31:08 2020

@<TRIPOS>MOLECULE
6h45_2_QEI
   20    22     1     0     0
SMALL
NO_CHARGES


@<TRIPOS>ATOM
      1 C1         33.4350  -33.8870   27.5560 C.3       1 QEI802      0.0000 
      2 C2         33.6880  -32.6710   26.6930 C.3       1 QEI802      0.0000 
      3 C3         34.7260  -34.1050   28.2870 C.2       1 QEI802      0.0000 
      4 C4         35.1700  -32.3420   26.8110 C.3       1 QEI802      0.0000 
      5 C5         35.6480  -33.2290   27.9210 C.2       1 QEI802      0.0000 
      6 C6         31.7980  -35.6370   26.8380 C.3       1 QEI802      0.0000 
      7 C9         32.7760  -37.2040   28.8340 C.2       1 QEI802      0.0000 
      8 C10        32.0480  -37.9300   29.8730 C.2       1 QEI802      0.0000 
      9 C11        34.2570  -37.3410   28.8600 C.2       1 QEI802      0.0000 
     10 O1         32.8600  -31.6130   27.1690 O.3       1 QEI802      0.0000 
     11 O2         35.4240  -30.9920   27.1580 O.3       1 QEI802      0.0000 
     12 N1         33.0850  -35.0100   26.7300 N.4       1 QEI802      0.0000 
     13 C7         31.7080  -36.5250   28.0470 C.2       1 QEI802      0.0000 
     14 C8         30.5220  -36.8730   28.6550 C.2       1 QEI802      0.0000 
     15 N2         30.7450  -37.6940   29.7010 N.pl3     1 QEI802      0.0000 
     16 N3         32.7520  -38.6520   30.7690 N.2       1 QEI802      0.0000 
     17 C12        34.0940  -38.7340   30.7240 C.2       1 QEI802      0.0000 
     18 N5         34.7210  -39.4810   31.6550 N.pl3     1 QEI802      0.0000 
     19 N4         34.8170  -38.1010   29.7960 N.am      1 QEI802      0.0000 
     20 O3         34.9860  -36.7840   28.0380 O.2       1 QEI802      0.0000 
@<TRIPOS>BOND
     1    1    2 1    
     2    1    3 1    
     3    1   12 1    
     4    2    4 1    
     5    2   10 1    
     6    3    5 2    
     7    4    5 1    
     8    4   11 1    
     9    6   12 1    
    10    6   13 1    
    11    7    8 2    
    12    7    9 1    
    13    7   13 1    
    14    8   15 1    
    15    8   16 1    
    16    9   19 am   
    17    9   20 2    
    18   13   14 2    
    19   14   15 1    
    20   16   17 2    
    21   17   18 1    
    22   17   19 1    
@<TRIPOS>SUBSTRUCTURE
     1 QEI802      1 GROUP   
@<TRIPOS>SET

