#    Name: 6h45_1_QEI
#    Modification time : Fri May 22 19:31:02 2020

@<TRIPOS>MOLECULE
6h45_1_QEI
   20    22     1     0     0
SMALL
NO_CHARGES


@<TRIPOS>ATOM
      1 C1         36.4280  -12.0880   20.2110 C.3       1 QEI501      0.0000 
      2 C2         35.7990  -13.4290   20.8800 C.3       1 QEI501      0.0000 
      3 C3         37.7510  -12.2230   20.3840 C.2       1 QEI501      0.0000 
      4 C4         36.9530  -13.9690   21.8110 C.3       1 QEI501      0.0000 
      5 C5         38.0920  -13.4160   21.2750 C.2       1 QEI501      0.0000 
      6 C6         34.8130  -10.2950   20.2120 C.3       1 QEI501      0.0000 
      7 C9         36.2860   -8.5250   18.7110 C.2       1 QEI501      0.0000 
      8 C10        36.0140   -8.0570   17.4410 C.2       1 QEI501      0.0000 
      9 C11        37.5460   -8.0460   19.4460 C.2       1 QEI501      0.0000 
     10 O1         35.5220  -14.2980   19.9620 O.3       1 QEI501      0.0000 
     11 O2         37.0300  -15.3950   21.7450 O.3       1 QEI501      0.0000 
     12 N1         35.9530  -10.8560   20.9090 N.4       1 QEI501      0.0000 
     13 C7         35.2850   -9.3820   19.0590 C.2       1 QEI501      0.0000 
     14 C8         34.3960   -9.4460   18.0060 C.2       1 QEI501      0.0000 
     15 N2         34.8490   -8.6300   17.0170 N.pl3     1 QEI501      0.0000 
     16 N3         36.9390   -7.0910   16.7820 N.2       1 QEI501      0.0000 
     17 C12        38.1400   -6.6320   17.4750 C.2       1 QEI501      0.0000 
     18 N5         39.0460   -5.6780   16.8150 N.pl3     1 QEI501      0.0000 
     19 N4         38.4370   -7.1150   18.8130 N.am      1 QEI501      0.0000 
     20 O3         37.7900   -8.4460   20.5450 O.2       1 QEI501      0.0000 
@<TRIPOS>BOND
     1    1    2 1    
     2    1    3 1    
     3    1   12 1    
     4    2    4 1    
     5    2   10 1    
     6    3    5 2    
     7    4    5 1    
     8    4   11 1    
     9    6   12 1    
    10    6   13 1    
    11    7    8 2    
    12    7    9 1    
    13    7   13 1    
    14    8   15 1    
    15    8   16 1    
    16    9   19 am   
    17    9   20 2    
    18   13   14 2    
    19   14   15 1    
    20   16   17 2    
    21   17   18 1    
    22   17   19 1    
@<TRIPOS>SUBSTRUCTURE
     1 QEI501      1 GROUP   
@<TRIPOS>SET

