#    Name: 5y24_1_GLY_MET_PRO_ARG_GLY_ALA
#    Modification time : Fri May 22 19:21:54 2020

@<TRIPOS>MOLECULE
5y24_1_GLY_MET_PRO_ARG_GLY_ALA
   40    40     6     0     0
SMALL
NO_CHARGES


@<TRIPOS>ATOM
      1 N         -84.3620  128.0370  231.7610 N.4       1 GLY1        0.0000 
      2 CA        -83.1180  127.6170  232.3750 C.3       1 GLY1        0.0000 
      3 C         -82.3560  126.6200  231.5230 C.2       1 GLY1        0.0000 
      4 O         -82.6180  126.5120  230.3270 O.2       1 GLY1        0.0000 
      5 N         -81.4420  125.8750  232.1590 N.am      2 MET2        0.0000 
      6 CA        -80.5790  124.9050  231.4760 C.3       2 MET2        0.0000 
      7 C         -81.1220  123.5060  231.6900 C.2       2 MET2        0.0000 
      8 O         -81.2490  123.0770  232.8530 O.2       2 MET2        0.0000 
      9 CB        -79.1570  124.9850  232.0220 C.3       2 MET2        0.0000 
     10 CG        -78.1600  124.0270  231.3520 C.3       2 MET2        0.0000 
     11 SD        -76.5070  123.9570  232.1000 S.3       2 MET2        0.0000 
     12 CE        -76.8140  122.9560  233.5550 C.3       2 MET2        0.0000 
     13 N         -81.4420  122.7520  230.6450 N.am      3 PRO3        0.0000 
     14 CA        -81.9250  121.3870  230.8680 C.3       3 PRO3        0.0000 
     15 C         -80.7920  120.5010  231.3540 C.2       3 PRO3        0.0000 
     16 O         -79.6480  120.6550  230.9420 O.2       3 PRO3        0.0000 
     17 CB        -82.4460  120.9590  229.4890 C.3       3 PRO3        0.0000 
     18 CG        -81.6650  121.7670  228.5170 C.3       3 PRO3        0.0000 
     19 CD        -81.2780  123.0640  229.2050 C.3       3 PRO3        0.0000 
     20 N         -81.1110  119.6060  232.2850 N.am      4 ARG4        0.0000 
     21 CA        -80.1640  118.6370  232.8140 C.3       4 ARG4        0.0000 
     22 C         -80.8260  117.2780  232.8100 C.2       4 ARG4        0.0000 
     23 O         -82.0510  117.1850  232.9300 O.2       4 ARG4        0.0000 
     24 CB        -79.7440  118.9310  234.2670 C.3       4 ARG4        0.0000 
     25 CG        -78.7810  120.0690  234.4780 C.3       4 ARG4        0.0000 
     26 CD        -78.6460  120.2960  236.0070 C.3       4 ARG4        0.0000 
     27 NE        -77.4010  120.9420  236.3890 N.pl3     4 ARG4        0.0000 
     28 CZ        -77.3270  122.1940  236.8220 C.cat     4 ARG4        0.0000 
     29 NH1       -76.1640  122.7050  237.1610 N.pl3     4 ARG4        0.0000 
     30 NH2       -78.4260  122.9340  236.8860 N.pl3     4 ARG4        0.0000 
     31 N         -80.0070  116.2280  232.7160 N.am      5 GLY5        0.0000 
     32 CA        -80.5390  114.8780  232.7800 C.3       5 GLY5        0.0000 
     33 C         -79.4280  113.8480  232.7940 C.2       5 GLY5        0.0000 
     34 O         -78.2740  114.1340  232.4650 O.2       5 GLY5        0.0000 
     35 N         -79.8140  112.6290  233.1430 N.am      6 ALA6        0.0000 
     36 CA        -78.9020  111.4960  233.1480 C.3       6 ALA6        0.0000 
     37 C         -79.6820  110.2150  232.9620 C.2       6 ALA6        0.0000 
     38 O         -79.1280  109.1880  232.5630 O.2       6 ALA6        0.0000 
     39 CB        -78.1160  111.4420  234.4470 C.3       6 ALA6        0.0000 
     40 OXT       -80.8860  110.1910  233.2430 O.2       6 ALA6        0.0000 
@<TRIPOS>BOND
     1    1    2 1    
     2    2    3 1    
     3    3    4 2    
     4    3    5 am   
     5    5    6 1    
     6    6    7 1    
     7    6    9 1    
     8    7    8 2    
     9    7   13 am   
    10    9   10 1    
    11   10   11 1    
    12   11   12 1    
    13   13   14 1    
    14   13   19 1    
    15   14   15 1    
    16   14   17 1    
    17   15   16 2    
    18   15   20 am   
    19   17   18 1    
    20   18   19 1    
    21   20   21 1    
    22   21   22 1    
    23   21   24 1    
    24   22   23 2    
    25   22   31 am   
    26   24   25 1    
    27   25   26 1    
    28   26   27 1    
    29   27   28 ar   
    30   28   29 ar   
    31   28   30 ar   
    32   31   32 1    
    33   32   33 1    
    34   33   34 2    
    35   33   35 am   
    36   35   36 1    
    37   36   37 1    
    38   36   39 1    
    39   37   38 2    
    40   37   40 2    
@<TRIPOS>SUBSTRUCTURE
     1 GLY1        1 RESIDUE 
     2 MET2        5 RESIDUE 
     3 PRO3       13 RESIDUE 
     4 ARG4       20 RESIDUE 
     5 GLY5       31 RESIDUE 
     6 ALA6       35 RESIDUE 
@<TRIPOS>SET

