#    Name: 5y24_2_GLY_MET_PRO_ARG_GLY_ALA
#    Modification time : Fri May 22 19:21:58 2020

@<TRIPOS>MOLECULE
5y24_2_GLY_MET_PRO_ARG_GLY_ALA
   40    40     6     0     0
SMALL
NO_CHARGES


@<TRIPOS>ATOM
      1 N         -56.5620  141.6330  271.0190 N.4       1 GLY1        0.0000 
      2 CA        -57.7890  140.8630  270.8800 C.3       1 GLY1        0.0000 
      3 C         -58.5270  140.6840  272.1970 C.2       1 GLY1        0.0000 
      4 O         -58.2660  141.3950  273.1570 O.2       1 GLY1        0.0000 
      5 N         -59.4260  139.7430  272.2410 N.am      2 MET2        0.0000 
      6 CA        -60.2160  139.5190  273.4490 C.3       2 MET2        0.0000 
      7 C         -59.6550  138.3210  274.1940 C.2       2 MET2        0.0000 
      8 O         -59.5110  137.2420  273.6000 O.2       2 MET2        0.0000 
      9 CB        -61.6740  139.2630  273.0780 C.3       2 MET2        0.0000 
     10 CG        -62.6090  138.9830  274.2700 C.3       2 MET2        0.0000 
     11 SD        -64.2300  138.3560  273.7020 S.3       2 MET2        0.0000 
     12 CE        -63.8670  136.6600  273.3010 C.3       2 MET2        0.0000 
     13 N         -59.3020  138.4440  275.4690 N.am      3 PRO3        0.0000 
     14 CA        -58.8150  137.2670  276.1950 C.3       3 PRO3        0.0000 
     15 C         -59.9130  136.2210  276.3780 C.2       3 PRO3        0.0000 
     16 O         -61.0740  136.5400  276.6480 O.2       3 PRO3        0.0000 
     17 CB        -58.3450  137.8420  277.5380 C.3       3 PRO3        0.0000 
     18 CG        -59.0810  139.1440  277.6860 C.3       3 PRO3        0.0000 
     19 CD        -59.3900  139.6510  276.3110 C.3       3 PRO3        0.0000 
     20 N         -59.5280  134.9560  276.2060 N.am      4 ARG4        0.0000 
     21 CA        -60.3840  133.8100  276.4820 C.3       4 ARG4        0.0000 
     22 C         -59.6340  132.8080  277.3430 C.2       4 ARG4        0.0000 
     23 O         -58.4070  132.6810  277.2440 O.2       4 ARG4        0.0000 
     24 CB        -60.8110  133.0720  275.2060 C.3       4 ARG4        0.0000 
     25 CG        -61.8680  133.7340  274.3890 C.3       4 ARG4        0.0000 
     26 CD        -62.1790  132.8510  273.1840 C.3       4 ARG4        0.0000 
     27 NE        -62.0940  133.6070  271.9570 N.pl3     4 ARG4        0.0000 
     28 CZ        -63.1240  133.9240  271.1930 C.cat     4 ARG4        0.0000 
     29 NH1       -64.3510  133.5360  271.4950 N.pl3     4 ARG4        0.0000 
     30 NH2       -62.9050  134.6220  270.1040 N.pl3     4 ARG4        0.0000 
     31 N         -60.3840  132.0620  278.1420 N.am      5 GLY5        0.0000 
     32 CA        -59.7710  130.9940  278.9090 C.3       5 GLY5        0.0000 
     33 C         -60.8110  130.0890  279.5250 C.2       5 GLY5        0.0000 
     34 O         -62.0040  130.4050  279.5800 O.2       5 GLY5        0.0000 
     35 N         -60.3250  128.9580  280.0060 N.am      6 ALA6        0.0000 
     36 CA        -61.1500  128.0010  280.7240 C.3       6 ALA6        0.0000 
     37 C         -60.2410  127.2050  281.6400 C.2       6 ALA6        0.0000 
     38 O         -60.6790  126.5840  282.6100 O.2       6 ALA6        0.0000 
     39 CB        -61.8980  127.0730  279.7480 C.3       6 ALA6        0.0000 
     40 OXT       -59.0270  127.1790  281.3970 O.2       6 ALA6        0.0000 
@<TRIPOS>BOND
     1    1    2 1    
     2    2    3 1    
     3    3    4 2    
     4    3    5 am   
     5    5    6 1    
     6    6    7 1    
     7    6    9 1    
     8    7    8 2    
     9    7   13 am   
    10    9   10 1    
    11   10   11 1    
    12   11   12 1    
    13   13   14 1    
    14   13   19 1    
    15   14   15 1    
    16   14   17 1    
    17   15   16 2    
    18   15   20 am   
    19   17   18 1    
    20   18   19 1    
    21   20   21 1    
    22   21   22 1    
    23   21   24 1    
    24   22   23 2    
    25   22   31 am   
    26   24   25 1    
    27   25   26 1    
    28   26   27 1    
    29   27   28 ar   
    30   28   29 ar   
    31   28   30 ar   
    32   31   32 1    
    33   32   33 1    
    34   33   34 2    
    35   33   35 am   
    36   35   36 1    
    37   36   37 1    
    38   36   39 1    
    39   37   38 2    
    40   37   40 2    
@<TRIPOS>SUBSTRUCTURE
     1 GLY1        1 RESIDUE 
     2 MET2        5 RESIDUE 
     3 PRO3       13 RESIDUE 
     4 ARG4       20 RESIDUE 
     5 GLY5       31 RESIDUE 
     6 ALA6       35 RESIDUE 
@<TRIPOS>SET

