#    Name: 6khd_2_3NG
#    Modification time : Fri May 22 19:29:46 2020

@<TRIPOS>MOLECULE
6khd_2_3NG
   25    28     1     0     0
SMALL
NO_CHARGES


@<TRIPOS>ATOM
      1 C1         -1.6090   16.1780   54.9800 C.ar      1 3NG1000     0.0000 
      2 C2         -1.8560   16.1620   53.6320 C.ar      1 3NG1000     0.0000 
      3 C3         -2.1190   14.9500   52.9730 C.ar      1 3NG1000     0.0000 
      4 C4         -2.1250   13.7690   53.6960 C.ar      1 3NG1000     0.0000 
      5 C5         -1.8760   13.7920   55.0570 C.ar      1 3NG1000     0.0000 
      6 C6         -1.6180   14.9810   55.7070 C.ar      1 3NG1000     0.0000 
      7 C7         -1.5950   18.5210   53.5310 C.ar      1 3NG1000     0.0000 
      8 C8         -1.8440   17.3700   52.9080 C.ar      1 3NG1000     0.0000 
      9 N9         -1.3580   17.3750   55.6160 N.ar      1 3NG1000     0.0000 
     10 C10        -1.3550   18.5420   54.9030 C.ar      1 3NG1000     0.0000 
     11 C11        -1.8180   19.7510   51.5070 C.ar      1 3NG1000     0.0000 
     12 N12        -2.0730   18.5790   50.8690 N.ar      1 3NG1000     0.0000 
     13 C13        -2.0960   17.3890   51.5340 C.ar      1 3NG1000     0.0000 
     14 C14        -1.5750   19.7300   52.8580 C.ar      1 3NG1000     0.0000 
     15 N15        -1.0430   19.4560   55.9340 N.pl3     1 3NG1000     0.0000 
     16 C16        -1.2550   19.2860   57.3140 C.ar      1 3NG1000     0.0000 
     17 C17        -0.3900   18.5010   58.0570 C.ar      1 3NG1000     0.0000 
     18 C18        -0.5990   18.3430   59.4020 C.ar      1 3NG1000     0.0000 
     19 C19        -1.6580   18.9930   60.0140 C.ar      1 3NG1000     0.0000 
     20 C20        -2.5200   19.7950   59.2780 C.ar      1 3NG1000     0.0000 
     21 C21        -2.3090   19.9490   57.9190 C.ar      1 3NG1000     0.0000 
     22 CL22        0.4870   17.3280   60.3010 Cl        1 3NG1000     0.0000 
     23 C23        -1.9360   12.4200   55.6780 C.2       1 3NG1000     0.0000 
     24 O24        -2.1780   11.4080   54.9770 O.co2     1 3NG1000     0.0000 
     25 O25        -1.7690   12.2710   56.9060 O.co2     1 3NG1000     0.0000 
@<TRIPOS>BOND
     1    1    2 ar   
     2    1    6 ar   
     3    1    9 ar   
     4    2    3 ar   
     5    2    8 ar   
     6    3    4 ar   
     7    4    5 ar   
     8    5    6 ar   
     9    5   23 1    
    10    7    8 ar   
    11    7   10 ar   
    12    7   14 ar   
    13    8   13 ar   
    14    9   10 ar   
    15   10   15 1    
    16   11   12 ar   
    17   11   14 ar   
    18   12   13 ar   
    19   15   16 1    
    20   16   17 ar   
    21   16   21 ar   
    22   17   18 ar   
    23   18   19 ar   
    24   18   22 1    
    25   19   20 ar   
    26   20   21 ar   
    27   23   24 ar   
    28   23   25 ar   
@<TRIPOS>SUBSTRUCTURE
     1 3NG1000     1 GROUP   
@<TRIPOS>SET

