#    Name: 6khd_3_3NG
#    Modification time : Fri May 22 19:29:52 2020

@<TRIPOS>MOLECULE
6khd_3_3NG
   25    28     1     0     0
SMALL
NO_CHARGES


@<TRIPOS>ATOM
      1 C1        -35.0590  -23.1460   64.5090 C.ar      1 3NG1000     0.0000 
      2 C2        -34.9390  -21.8100   64.7620 C.ar      1 3NG1000     0.0000 
      3 C3        -34.7490  -21.3290   66.0710 C.ar      1 3NG1000     0.0000 
      4 C4        -34.6740  -22.2240   67.1290 C.ar      1 3NG1000     0.0000 
      5 C5        -34.7900  -23.5850   66.8750 C.ar      1 3NG1000     0.0000 
      6 C6        -34.9820  -24.0530   65.5820 C.ar      1 3NG1000     0.0000 
      7 C7        -35.1950  -21.3520   62.4650 C.ar      1 3NG1000     0.0000 
      8 C8        -35.0110  -20.9060   63.7050 C.ar      1 3NG1000     0.0000 
      9 N9        -35.2460  -23.6020   63.2200 N.ar      1 3NG1000     0.0000 
     10 C10       -35.3220  -22.7180   62.1950 C.ar      1 3NG1000     0.0000 
     11 C11       -35.1470  -19.1130   61.6640 C.ar      1 3NG1000     0.0000 
     12 N12       -34.9600  -18.6580   62.9340 N.ar      1 3NG1000     0.0000 
     13 C13       -34.8880  -19.5380   63.9640 C.ar      1 3NG1000     0.0000 
     14 C14       -35.2640  -20.4650   61.4130 C.ar      1 3NG1000     0.0000 
     15 N15       -35.5000  -23.6090   61.1020 N.pl3     1 3NG1000     0.0000 
     16 C16       -35.8150  -24.9910   60.9530 C.ar      1 3NG1000     0.0000 
     17 C17       -36.4890  -25.7970   61.8610 C.ar      1 3NG1000     0.0000 
     18 C18       -36.7380  -27.1260   61.5490 C.ar      1 3NG1000     0.0000 
     19 C19       -36.3410  -27.6610   60.3420 C.ar      1 3NG1000     0.0000 
     20 C20       -35.6920  -26.8620   59.4340 C.ar      1 3NG1000     0.0000 
     21 C21       -35.4440  -25.5400   59.7440 C.ar      1 3NG1000     0.0000 
     22 CL22      -37.5580  -28.1720   62.6650 Cl        1 3NG1000     0.0000 
     23 C23       -34.6720  -24.4290   68.1200 C.2       1 3NG1000     0.0000 
     24 O24       -34.9480  -25.6510   68.0890 O.co2     1 3NG1000     0.0000 
     25 O25       -34.2630  -23.9200   69.1860 O.co2     1 3NG1000     0.0000 
@<TRIPOS>BOND
     1    1    2 ar   
     2    1    6 ar   
     3    1    9 ar   
     4    2    3 ar   
     5    2    8 ar   
     6    3    4 ar   
     7    4    5 ar   
     8    5    6 ar   
     9    5   23 1    
    10    7    8 ar   
    11    7   10 ar   
    12    7   14 ar   
    13    8   13 ar   
    14    9   10 ar   
    15   10   15 1    
    16   11   12 ar   
    17   11   14 ar   
    18   12   13 ar   
    19   15   16 1    
    20   16   17 ar   
    21   16   21 ar   
    22   17   18 ar   
    23   18   19 ar   
    24   18   22 1    
    25   19   20 ar   
    26   20   21 ar   
    27   23   24 ar   
    28   23   25 ar   
@<TRIPOS>SUBSTRUCTURE
     1 3NG1000     1 GROUP   
@<TRIPOS>SET

