#    Name: 6khd_1_3NG
#    Modification time : Fri May 22 19:29:41 2020

@<TRIPOS>MOLECULE
6khd_1_3NG
   25    28     1     0     0
SMALL
NO_CHARGES


@<TRIPOS>ATOM
      1 C1        -10.6730  -14.4240   99.8700 C.ar      1 3NG1000     0.0000 
      2 C2        -10.6100  -15.7600  100.1790 C.ar      1 3NG1000     0.0000 
      3 C3        -10.5010  -16.7300   99.1670 C.ar      1 3NG1000     0.0000 
      4 C4        -10.4580  -16.3310   97.8380 C.ar      1 3NG1000     0.0000 
      5 C5        -10.5190  -14.9780   97.5280 C.ar      1 3NG1000     0.0000 
      6 C6        -10.6260  -14.0260   98.5270 C.ar      1 3NG1000     0.0000 
      7 C7        -10.7560  -15.2240  102.4910 C.ar      1 3NG1000     0.0000 
      8 C8        -10.6540  -16.1500  101.5290 C.ar      1 3NG1000     0.0000 
      9 N9        -10.7770  -13.4680  100.8690 N.ar      1 3NG1000     0.0000 
     10 C10       -10.8270  -13.8630  102.1750 C.ar      1 3NG1000     0.0000 
     11 C11       -10.7340  -16.8940  104.1840 C.ar      1 3NG1000     0.0000 
     12 N12       -10.6330  -17.8340  103.2090 N.ar      1 3NG1000     0.0000 
     13 C13       -10.5870  -17.4980  101.8880 C.ar      1 3NG1000     0.0000 
     14 C14       -10.7960  -15.5690  103.8300 C.ar      1 3NG1000     0.0000 
     15 N15       -10.9100  -12.6190  102.8460 N.pl3     1 3NG1000     0.0000 
     16 C16       -11.2810  -11.3030  102.4740 C.ar      1 3NG1000     0.0000 
     17 C17       -12.1010  -10.9620  101.4070 C.ar      1 3NG1000     0.0000 
     18 C18       -12.4010   -9.6270  101.1740 C.ar      1 3NG1000     0.0000 
     19 C19       -11.9050   -8.6370  101.9990 C.ar      1 3NG1000     0.0000 
     20 C20       -11.0980   -8.9770  103.0690 C.ar      1 3NG1000     0.0000 
     21 C21       -10.7940  -10.3060  103.3030 C.ar      1 3NG1000     0.0000 
     22 CL22      -13.4090   -9.1500   99.8460 Cl        1 3NG1000     0.0000 
     23 C23       -10.4670  -14.6840   96.0510 C.2       1 3NG1000     0.0000 
     24 O24       -10.0870  -15.5620   95.2450 O.co2     1 3NG1000     0.0000 
     25 O25       -10.8070  -13.5480   95.6340 O.co2     1 3NG1000     0.0000 
@<TRIPOS>BOND
     1    1    2 ar   
     2    1    6 ar   
     3    1    9 ar   
     4    2    3 ar   
     5    2    8 ar   
     6    3    4 ar   
     7    4    5 ar   
     8    5    6 ar   
     9    5   23 1    
    10    7    8 ar   
    11    7   10 ar   
    12    7   14 ar   
    13    8   13 ar   
    14    9   10 ar   
    15   10   15 1    
    16   11   12 ar   
    17   11   14 ar   
    18   12   13 ar   
    19   15   16 1    
    20   16   17 ar   
    21   16   21 ar   
    22   17   18 ar   
    23   18   19 ar   
    24   18   22 1    
    25   19   20 ar   
    26   20   21 ar   
    27   23   24 ar   
    28   23   25 ar   
@<TRIPOS>SUBSTRUCTURE
     1 3NG1000     1 GROUP   
@<TRIPOS>SET

