#    Name: 6ee1_2_ACO
#    Modification time : Fri May 22 19:31:05 2020

@<TRIPOS>MOLECULE
6ee1_2_ACO
   51    53     1     0     1
SMALL
NO_CHARGES


@<TRIPOS>ATOM
      1 N1A        46.3550  112.5980  138.5840 N.ar      1 ACO801      0.0000 
      2 C2A        46.2210  111.6820  139.5680 C.ar      1 ACO801      0.0000 
      3 N3A        45.4000  110.6260  139.4600 N.ar      1 ACO801      0.0000 
      4 C4A        44.6570  110.4340  138.3380 C.ar      1 ACO801      0.0000 
      5 C5A        44.7510  111.3890  137.2200 C.ar      1 ACO801      0.0000 
      6 C6A        45.6720  112.5300  137.4130 C.ar      1 ACO801      0.0000 
      7 N6A        45.8340  113.4600  136.4410 N.pl3     1 ACO801      0.0000 
      8 N7A        43.9200  110.9580  136.2510 N.2       1 ACO801      0.0000 
      9 C8A        43.3410  109.8180  136.7140 C.2       1 ACO801      0.0000 
     10 N9A        43.7880  109.5090  137.9510 N.pl3     1 ACO801      0.0000 
     11 C1B        43.3880  108.3750  138.8130 C.3       1 ACO801      0.0000 
     12 C2B        41.9390  108.5720  139.2400 C.3       1 ACO801      0.0000 
     13 O2B        41.7900  109.4650  140.3430 O.3       1 ACO801      0.0000 
     14 C3B        41.4840  107.1520  139.5150 C.3       1 ACO801      0.0000 
     15 O3B        41.8890  106.6370  140.7750 O.3       1 ACO801      0.0000 
     16 P3B        41.3020  107.0810  142.1980 P.3       1 ACO801      0.0000 
     17 O7A        39.8150  107.2700  142.0090 O.co2     1 ACO801      0.0000 
     18 O8A        41.6700  105.8790  143.0500 O.co2     1 ACO801      0.0000 
     19 O9A        42.0490  108.3660  142.4760 O.co2     1 ACO801      0.0000 
     20 C4B        42.2470  106.3440  138.4780 C.3       1 ACO801      0.0000 
     21 O4B        43.4230  107.1060  138.1640 O.3       1 ACO801      0.0000 
     22 C5B        41.3980  106.0870  137.2380 C.3       1 ACO801      0.0000 
     23 O5B        41.1740  107.3050  136.5080 O.3       1 ACO801      0.0000 
     24 P1A        39.7220  107.6270  135.8980 P.3       1 ACO801      0.0000 
     25 O1A        39.0670  108.6750  136.7620 O.co2     1 ACO801      0.0000 
     26 O2A        39.1000  106.2540  135.7230 O.co2     1 ACO801      0.0000 
     27 O3A        39.9790  108.3130  134.4700 O.3       1 ACO801      0.0000 
     28 P2A        39.5070  109.8150  134.1210 P.3       1 ACO801      0.0000 
     29 O4A        38.0390  109.8760  133.7870 O.co2     1 ACO801      0.0000 
     30 O5A        40.1190  110.7690  135.1140 O.co2     1 ACO801      0.0000 
     31 O6A        40.2240  110.0730  132.7180 O.3       1 ACO801      0.0000 
     32 CBP        42.0480  110.3960  131.2670 C.3       1 ACO801      0.0000 
     33 CCP        41.5520  109.6240  132.4710 C.3       1 ACO801      0.0000 
     34 CDP        41.2430  109.9890  130.0400 C.3       1 ACO801      0.0000 
     35 CEP        43.5110  110.0500  131.0360 C.3       1 ACO801      0.0000 
     36 CAP        41.8400  111.8780  131.5990 C.3       1 ACO801      0.0000 
     37 OAP        42.7760  112.2450  132.6150 O.3       1 ACO801      0.0000 
     38 C9P        41.9850  112.7740  130.4060 C.2       1 ACO801      0.0000 
     39 O9P        41.0280  112.9500  129.6720 O.2       1 ACO801      0.0000 
     40 N8P        43.1680  113.3470  130.2070 N.am      1 ACO801      0.0000 
     41 C7P        43.4090  114.2280  129.0780 C.3       1 ACO801      0.0000 
     42 C6P        43.5490  113.4590  127.7680 C.3       1 ACO801      0.0000 
     43 C5P        44.6940  112.4710  127.8330 C.2       1 ACO801      0.0000 
     44 O5P        45.7770  112.8330  128.2680 O.2       1 ACO801      0.0000 
     45 N4P        44.4350  111.2460  127.3600 N.am      1 ACO801      0.0000 
     46 C3P        45.4100  110.1740  127.2320 C.3       1 ACO801      0.0000 
     47 C2P        45.6450  109.7850  125.7700 C.3       1 ACO801      0.0000 
     48 S1P        47.1180  108.8120  125.6140 S.3       1 ACO801      0.0000 
     49 C          46.6290  107.2340  125.3180 C.2       1 ACO801      0.0000 
     50 O          47.3330  106.4890  124.6500 O.2       1 ACO801      0.0000 
     51 CH3        45.3540  106.7300  125.9020 C.3       1 ACO801      0.0000 
@<TRIPOS>BOND
     1    1    2 ar   
     2    1    6 ar   
     3    2    3 ar   
     4    3    4 ar   
     5    4    5 ar   
     6    4   10 1    
     7    5    6 ar   
     8    5    8 1    
     9    6    7 1    
    10    8    9 2    
    11    9   10 1    
    12   10   11 1    
    13   11   12 1    
    14   11   21 1    
    15   12   13 1    
    16   12   14 1    
    17   14   15 1    
    18   14   20 1    
    19   15   16 1    
    20   16   17 ar   
    21   16   18 ar   
    22   16   19 ar   
    23   20   21 1    
    24   20   22 1    
    25   22   23 1    
    26   23   24 1    
    27   24   25 ar   
    28   24   26 ar   
    29   24   27 1    
    30   27   28 1    
    31   28   29 ar   
    32   28   30 ar   
    33   28   31 1    
    34   31   33 1    
    35   32   33 1    
    36   32   34 1    
    37   32   35 1    
    38   32   36 1    
    39   36   37 1    
    40   36   38 1    
    41   38   39 2    
    42   38   40 am   
    43   40   41 1    
    44   41   42 1    
    45   42   43 1    
    46   43   44 2    
    47   43   45 am   
    48   45   46 1    
    49   46   47 1    
    50   47   48 1    
    51   48   49 1    
    52   49   50 2    
    53   49   51 1    
@<TRIPOS>SUBSTRUCTURE
     1 ACO801      1 GROUP   
@<TRIPOS>SET
ATOM$ORANGE STATIC     ATOMS   COLORGROUP SYSTEM 
46 2 2 4 4 5 5 6 6 9 9 11 11 12 12 14 14 20 \
20 22 22 32 32 33 33 34 34 35 35 36 36 38 38 41 41 42 \
42 43 43 46 46 47 47 49 49 51 51 

