#    Name: 6ee1_1_ACO
#    Modification time : Fri May 22 19:30:55 2020

@<TRIPOS>MOLECULE
6ee1_1_ACO
   51    53     1     0     1
SMALL
NO_CHARGES


@<TRIPOS>ATOM
      1 N1A       -43.5720  115.5450   36.0190 N.ar      1 ACO801      0.0000 
      2 C2A       -43.2170  116.1860   34.8890 C.ar      1 ACO801      0.0000 
      3 N3A       -41.9430  116.4810   34.5860 N.ar      1 ACO801      0.0000 
      4 C4A       -40.9430  116.1410   35.4280 C.ar      1 ACO801      0.0000 
      5 C5A       -41.2480  115.4400   36.6810 C.ar      1 ACO801      0.0000 
      6 C6A       -42.6720  115.1510   36.9460 C.ar      1 ACO801      0.0000 
      7 N6A       -43.0490  114.5040   38.0730 N.pl3     1 ACO801      0.0000 
      8 N7A       -40.0750  115.2290   37.3090 N.2       1 ACO801      0.0000 
      9 C8A       -39.0950  115.7500   36.5290 C.2       1 ACO801      0.0000 
     10 N9A       -39.6270  116.2810   35.4110 N.pl3     1 ACO801      0.0000 
     11 C1B       -38.9110  116.9640   34.3300 C.3       1 ACO801      0.0000 
     12 C2B       -38.5810  118.3450   34.8560 C.3       1 ACO801      0.0000 
     13 O2B       -39.7120  119.2220   34.7950 O.3       1 ACO801      0.0000 
     14 C3B       -37.4110  118.7220   33.9760 C.3       1 ACO801      0.0000 
     15 O3B       -37.8530  119.2730   32.7290 O.3       1 ACO801      0.0000 
     16 P3B       -38.2810  120.8220   32.5360 P.3       1 ACO801      0.0000 
     17 O7A       -37.7930  121.5660   33.7600 O.co2     1 ACO801      0.0000 
     18 O8A       -37.5800  121.2300   31.2700 O.co2     1 ACO801      0.0000 
     19 O9A       -39.7850  120.7650   32.4130 O.co2     1 ACO801      0.0000 
     20 C4B       -36.7000  117.3860   33.7620 C.3       1 ACO801      0.0000 
     21 O4B       -37.6700  116.3550   33.9880 O.3       1 ACO801      0.0000 
     22 C5B       -35.5140  117.2010   34.7080 C.3       1 ACO801      0.0000 
     23 O5B       -35.9810  117.0410   36.0470 O.3       1 ACO801      0.0000 
     24 P1A       -35.2010  117.6470   37.3220 P.3       1 ACO801      0.0000 
     25 O1A       -33.7260  117.6280   36.9660 O.co2     1 ACO801      0.0000 
     26 O2A       -35.8750  118.9250   37.7760 O.co2     1 ACO801      0.0000 
     27 O3A       -35.4580  116.5400   38.4670 O.3       1 ACO801      0.0000 
     28 P2A       -36.0340  116.8800   39.9360 P.3       1 ACO801      0.0000 
     29 O4A       -35.0900  117.7880   40.6880 O.co2     1 ACO801      0.0000 
     30 O5A       -37.4880  117.2680   39.8160 O.co2     1 ACO801      0.0000 
     31 O6A       -35.9570  115.4270   40.6300 O.3       1 ACO801      0.0000 
     32 CBP       -36.6620  113.1350   40.9600 C.3       1 ACO801      0.0000 
     33 CCP       -36.4110  114.2580   39.9580 C.3       1 ACO801      0.0000 
     34 CDP       -35.3660  112.8740   41.7150 C.3       1 ACO801      0.0000 
     35 CEP       -37.0550  111.8720   40.1920 C.3       1 ACO801      0.0000 
     36 CAP       -37.7860  113.5660   41.9390 C.3       1 ACO801      0.0000 
     37 OAP       -39.0420  113.5520   41.2540 O.3       1 ACO801      0.0000 
     38 C9P       -37.9350  112.7370   43.2010 C.2       1 ACO801      0.0000 
     39 O9P       -37.3410  113.0610   44.2180 O.2       1 ACO801      0.0000 
     40 N8P       -38.7720  111.6970   43.1760 N.am      1 ACO801      0.0000 
     41 C7P       -39.1200  110.9350   44.3710 C.3       1 ACO801      0.0000 
     42 C6P       -38.1940  109.7600   44.6730 C.3       1 ACO801      0.0000 
     43 C5P       -37.8210  109.0150   43.4070 C.2       1 ACO801      0.0000 
     44 O5P       -38.6810  108.7910   42.5740 O.2       1 ACO801      0.0000 
     45 N4P       -36.5300  108.6730   43.2910 N.am      1 ACO801      0.0000 
     46 C3P       -35.8840  108.1050   42.1190 C.3       1 ACO801      0.0000 
     47 C2P       -36.4680  106.8190   41.5540 C.3       1 ACO801      0.0000 
     48 S1P       -35.6200  105.3630   42.0720 S.3       1 ACO801      0.0000 
     49 C         -34.3080  105.2060   41.0330 C.2       1 ACO801      0.0000 
     50 O         -34.1300  104.1700   40.4040 O.2       1 ACO801      0.0000 
     51 CH3       -33.3360  106.3300   40.8800 C.3       1 ACO801      0.0000 
@<TRIPOS>BOND
     1    1    2 ar   
     2    1    6 ar   
     3    2    3 ar   
     4    3    4 ar   
     5    4    5 ar   
     6    4   10 1    
     7    5    6 ar   
     8    5    8 1    
     9    6    7 1    
    10    8    9 2    
    11    9   10 1    
    12   10   11 1    
    13   11   12 1    
    14   11   21 1    
    15   12   13 1    
    16   12   14 1    
    17   14   15 1    
    18   14   20 1    
    19   15   16 1    
    20   16   17 ar   
    21   16   18 ar   
    22   16   19 ar   
    23   20   21 1    
    24   20   22 1    
    25   22   23 1    
    26   23   24 1    
    27   24   25 ar   
    28   24   26 ar   
    29   24   27 1    
    30   27   28 1    
    31   28   29 ar   
    32   28   30 ar   
    33   28   31 1    
    34   31   33 1    
    35   32   33 1    
    36   32   34 1    
    37   32   35 1    
    38   32   36 1    
    39   36   37 1    
    40   36   38 1    
    41   38   39 2    
    42   38   40 am   
    43   40   41 1    
    44   41   42 1    
    45   42   43 1    
    46   43   44 2    
    47   43   45 am   
    48   45   46 1    
    49   46   47 1    
    50   47   48 1    
    51   48   49 1    
    52   49   50 2    
    53   49   51 1    
@<TRIPOS>SUBSTRUCTURE
     1 ACO801      1 GROUP   
@<TRIPOS>SET
ATOM$ORANGE STATIC     ATOMS   COLORGROUP SYSTEM 
46 2 2 4 4 5 5 6 6 9 9 11 11 12 12 14 14 20 \
20 22 22 32 32 33 33 34 34 35 35 36 36 38 38 41 41 42 \
42 43 43 46 46 47 47 49 49 51 51 

