#    Name: 6ee1_4_ACO
#    Modification time : Fri May 22 19:31:25 2020

@<TRIPOS>MOLECULE
6ee1_4_ACO
   51    53     1     0     1
SMALL
NO_CHARGES


@<TRIPOS>ATOM
      1 N1A        70.3280   82.7060  117.7510 N.ar      1 ACO801      0.0000 
      2 C2A        71.2170   83.7230  117.7610 C.ar      1 ACO801      0.0000 
      3 N3A        71.1460   84.7460  116.8910 N.ar      1 ACO801      0.0000 
      4 C4A        70.1650   84.8070  115.9580 C.ar      1 ACO801      0.0000 
      5 C5A        69.1670   83.7350  115.8920 C.ar      1 ACO801      0.0000 
      6 C6A        69.3050   82.6420  116.8620 C.ar      1 ACO801      0.0000 
      7 N6A        68.4090   81.6310  116.8450 N.pl3     1 ACO801      0.0000 
      8 N7A        68.3190   84.0280  114.8990 N.2       1 ACO801      0.0000 
      9 C8A        68.7340   85.2010  114.3580 C.2       1 ACO801      0.0000 
     10 N9A        69.8330   85.6650  114.9960 N.pl3     1 ACO801      0.0000 
     11 C1B        70.6060   86.8970  114.6820 C.3       1 ACO801      0.0000 
     12 C2B        71.2060   86.8010  113.2880 C.3       1 ACO801      0.0000 
     13 O2B        72.4050   86.0290  113.2630 O.3       1 ACO801      0.0000 
     14 C3B        71.4320   88.2570  112.9610 C.3       1 ACO801      0.0000 
     15 O3B        72.6260   88.7410  113.5790 O.3       1 ACO801      0.0000 
     16 P3B        74.1210   88.5140  113.0140 P.3       1 ACO801      0.0000 
     17 O7A        73.9900   88.3210  111.5140 O.co2     1 ACO801      0.0000 
     18 O8A        74.8030   89.7820  113.4680 O.co2     1 ACO801      0.0000 
     19 O9A        74.6220   87.2820  113.7330 O.co2     1 ACO801      0.0000 
     20 C4B        70.2300   88.9420  113.5950 C.3       1 ACO801      0.0000 
     21 O4B        69.8530   88.1140  114.7010 O.3       1 ACO801      0.0000 
     22 C5B        69.0650   89.0940  112.6120 C.3       1 ACO801      0.0000 
     23 O5B        68.4490   87.8270  112.3320 O.3       1 ACO801      0.0000 
     24 P1A        67.9580   87.4380  110.8490 P.3       1 ACO801      0.0000 
     25 O1A        69.0060   86.5810  110.1800 O.co2     1 ACO801      0.0000 
     26 O2A        67.5620   88.7590  110.2240 O.co2     1 ACO801      0.0000 
     27 O3A        66.6380   86.5420  111.1090 O.3       1 ACO801      0.0000 
     28 P2A        66.3260   85.1080  110.4310 P.3       1 ACO801      0.0000 
     29 O4A        66.2540   85.1710  108.9240 O.co2     1 ACO801      0.0000 
     30 O5A        67.1630   84.0540  111.1160 O.co2     1 ACO801      0.0000 
     31 O6A        64.8210   84.8670  110.9340 O.3       1 ACO801      0.0000 
     32 CBP        63.2400   84.2700  112.6510 C.3       1 ACO801      0.0000 
     33 CCP        64.4600   85.1100  112.2960 C.3       1 ACO801      0.0000 
     34 CDP        62.1040   84.6510  111.7050 C.3       1 ACO801      0.0000 
     35 CEP        62.8470   84.5870  114.0920 C.3       1 ACO801      0.0000 
     36 CAP        63.6200   82.7830  112.4830 C.3       1 ACO801      0.0000 
     37 OAP        64.5550   82.4190  113.5030 O.3       1 ACO801      0.0000 
     38 C9P        62.4500   81.8330  112.5200 C.2       1 ACO801      0.0000 
     39 O9P        61.8530   81.5830  111.4870 O.2       1 ACO801      0.0000 
     40 N8P        62.1410   81.2800  113.6970 N.am      1 ACO801      0.0000 
     41 C7P        61.0910   80.2850  113.8610 C.3       1 ACO801      0.0000 
     42 C6P        59.6980   80.8870  114.0030 C.3       1 ACO801      0.0000 
     43 C5P        59.6230   81.9590  115.0790 C.2       1 ACO801      0.0000 
     44 O5P        60.0050   81.7220  116.2150 O.2       1 ACO801      0.0000 
     45 N4P        59.0870   83.1290  114.7240 N.am      1 ACO801      0.0000 
     46 C3P        58.8220   84.2170  115.6570 C.3       1 ACO801      0.0000 
     47 C2P        57.3200   84.3400  115.9360 C.3       1 ACO801      0.0000 
     48 S1P        57.0020   85.3260  117.3670 S.3       1 ACO801      0.0000 
     49 C          56.6990   86.8970  116.8420 C.2       1 ACO801      0.0000 
     50 O          55.9710   87.6390  117.4920 O.2       1 ACO801      0.0000 
     51 CH3        57.3380   87.4160  115.5980 C.3       1 ACO801      0.0000 
@<TRIPOS>BOND
     1    1    2 ar   
     2    1    6 ar   
     3    2    3 ar   
     4    3    4 ar   
     5    4    5 ar   
     6    4   10 1    
     7    5    6 ar   
     8    5    8 1    
     9    6    7 1    
    10    8    9 2    
    11    9   10 1    
    12   10   11 1    
    13   11   12 1    
    14   11   21 1    
    15   12   13 1    
    16   12   14 1    
    17   14   15 1    
    18   14   20 1    
    19   15   16 1    
    20   16   17 ar   
    21   16   18 ar   
    22   16   19 ar   
    23   20   21 1    
    24   20   22 1    
    25   22   23 1    
    26   23   24 1    
    27   24   25 ar   
    28   24   26 ar   
    29   24   27 1    
    30   27   28 1    
    31   28   29 ar   
    32   28   30 ar   
    33   28   31 1    
    34   31   33 1    
    35   32   33 1    
    36   32   34 1    
    37   32   35 1    
    38   32   36 1    
    39   36   37 1    
    40   36   38 1    
    41   38   39 2    
    42   38   40 am   
    43   40   41 1    
    44   41   42 1    
    45   42   43 1    
    46   43   44 2    
    47   43   45 am   
    48   45   46 1    
    49   46   47 1    
    50   47   48 1    
    51   48   49 1    
    52   49   50 2    
    53   49   51 1    
@<TRIPOS>SUBSTRUCTURE
     1 ACO801      1 GROUP   
@<TRIPOS>SET
ATOM$ORANGE STATIC     ATOMS   COLORGROUP SYSTEM 
46 2 2 4 4 5 5 6 6 9 9 11 11 12 12 14 14 20 \
20 22 22 32 32 33 33 34 34 35 35 36 36 38 38 41 41 42 \
42 43 43 46 46 47 47 49 49 51 51 

