#    Name: 6ee1_3_ACO
#    Modification time : Fri May 22 19:31:15 2020

@<TRIPOS>MOLECULE
6ee1_3_ACO
   51    53     1     0     1
SMALL
NO_CHARGES


@<TRIPOS>ATOM
      1 N1A       -24.2850   80.1480   17.7730 N.ar      1 ACO801      0.0000 
      2 C2A       -25.4490   79.5220   18.0750 C.ar      1 ACO801      0.0000 
      3 N3A       -25.7550   79.0990   19.3190 N.ar      1 ACO801      0.0000 
      4 C4A       -24.8890   79.2860   20.3510 C.ar      1 ACO801      0.0000 
      5 C5A       -23.6040   79.9600   20.0960 C.ar      1 ACO801      0.0000 
      6 C6A       -23.3310   80.3960   18.7090 C.ar      1 ACO801      0.0000 
      7 N6A       -22.1680   81.0210   18.4090 N.pl3     1 ACO801      0.0000 
      8 N7A       -22.9480   80.0150   21.2680 N.2       1 ACO801      0.0000 
      9 C8A       -23.7370   79.4270   22.2010 C.2       1 ACO801      0.0000 
     10 N9A       -24.8920   79.0010   21.6530 N.pl3     1 ACO801      0.0000 
     11 C1B       -25.9860   78.2960   22.3570 C.3       1 ACO801      0.0000 
     12 C2B       -25.5190   76.9070   22.7760 C.3       1 ACO801      0.0000 
     13 O2B       -25.4610   75.9830   21.6790 O.3       1 ACO801      0.0000 
     14 C3B       -26.5190   76.5660   23.8680 C.3       1 ACO801      0.0000 
     15 O3B       -27.7860   76.1040   23.3700 O.3       1 ACO801      0.0000 
     16 P3B       -28.1410   74.6290   22.8010 P.3       1 ACO801      0.0000 
     17 O7A       -27.1430   73.6830   23.4310 O.co2     1 ACO801      0.0000 
     18 O8A       -29.5690   74.4180   23.2470 O.co2     1 ACO801      0.0000 
     19 O9A       -27.9890   74.7850   21.3060 O.co2     1 ACO801      0.0000 
     20 C4B       -26.7260   77.9240   24.5510 C.3       1 ACO801      0.0000 
     21 O4B       -26.4010   78.9280   23.5750 O.3       1 ACO801      0.0000 
     22 C5B       -25.8740   78.1060   25.8090 C.3       1 ACO801      0.0000 
     23 O5B       -24.5350   78.4790   25.4670 O.3       1 ACO801      0.0000 
     24 P1A       -23.2370   77.7600   26.1130 P.3       1 ACO801      0.0000 
     25 O1A       -22.9210   76.5330   25.2910 O.co2     1 ACO801      0.0000 
     26 O2A       -23.5200   77.6200   27.5960 O.co2     1 ACO801      0.0000 
     27 O3A       -22.0440   78.8360   25.9050 O.3       1 ACO801      0.0000 
     28 P2A       -20.5210   78.4780   25.4540 P.3       1 ACO801      0.0000 
     29 O4A       -19.9010   77.4560   26.3840 O.co2     1 ACO801      0.0000 
     30 O5A       -20.4780   78.2510   23.9540 O.co2     1 ACO801      0.0000 
     31 O6A       -19.7770   79.8760   25.7450 O.3       1 ACO801      0.0000 
     32 CBP       -19.2400   82.1440   25.0660 C.3       1 ACO801      0.0000 
     33 CCP       -20.3340   81.1030   25.2700 C.3       1 ACO801      0.0000 
     34 CDP       -18.5750   82.3880   26.4160 C.3       1 ACO801      0.0000 
     35 CEP       -19.9210   83.4280   24.6060 C.3       1 ACO801      0.0000 
     36 CAP       -18.2030   81.5920   24.0410 C.3       1 ACO801      0.0000 
     37 OAP       -18.8020   81.3590   22.7530 O.3       1 ACO801      0.0000 
     38 C9P       -16.9570   82.4410   23.8710 C.2       1 ACO801      0.0000 
     39 O9P       -15.9530   82.1410   24.5030 O.2       1 ACO801      0.0000 
     40 N8P       -16.9880   83.4790   23.0270 N.am      1 ACO801      0.0000 
     41 C7P       -15.8370   84.3450   22.7900 C.3       1 ACO801      0.0000 
     42 C6P       -15.6640   85.4150   23.8670 C.3       1 ACO801      0.0000 
     43 C5P       -16.8720   86.3340   23.9650 C.2       1 ACO801      0.0000 
     44 O5P       -17.4870   86.6550   22.9570 O.2       1 ACO801      0.0000 
     45 N4P       -17.1940   86.7560   25.1970 N.am      1 ACO801      0.0000 
     46 C3P       -18.3070   87.6390   25.5170 C.3       1 ACO801      0.0000 
     47 C2P       -17.8220   88.9660   26.0960 C.3       1 ACO801      0.0000 
     48 S1P       -19.1320   90.1480   26.2270 S.3       1 ACO801      0.0000 
     49 C         -19.7100   89.9760   27.7930 C.2       1 ACO801      0.0000 
     50 O         -19.4740   88.9640   28.4380 O.2       1 ACO801      0.0000 
     51 CH3       -20.5460   91.0810   28.3770 C.3       1 ACO801      0.0000 
@<TRIPOS>BOND
     1    1    2 ar   
     2    1    6 ar   
     3    2    3 ar   
     4    3    4 ar   
     5    4    5 ar   
     6    4   10 1    
     7    5    6 ar   
     8    5    8 1    
     9    6    7 1    
    10    8    9 2    
    11    9   10 1    
    12   10   11 1    
    13   11   12 1    
    14   11   21 1    
    15   12   13 1    
    16   12   14 1    
    17   14   15 1    
    18   14   20 1    
    19   15   16 1    
    20   16   17 ar   
    21   16   18 ar   
    22   16   19 ar   
    23   20   21 1    
    24   20   22 1    
    25   22   23 1    
    26   23   24 1    
    27   24   25 ar   
    28   24   26 ar   
    29   24   27 1    
    30   27   28 1    
    31   28   29 ar   
    32   28   30 ar   
    33   28   31 1    
    34   31   33 1    
    35   32   33 1    
    36   32   34 1    
    37   32   35 1    
    38   32   36 1    
    39   36   37 1    
    40   36   38 1    
    41   38   39 2    
    42   38   40 am   
    43   40   41 1    
    44   41   42 1    
    45   42   43 1    
    46   43   44 2    
    47   43   45 am   
    48   45   46 1    
    49   46   47 1    
    50   47   48 1    
    51   48   49 1    
    52   49   50 2    
    53   49   51 1    
@<TRIPOS>SUBSTRUCTURE
     1 ACO801      1 GROUP   
@<TRIPOS>SET
ATOM$ORANGE STATIC     ATOMS   COLORGROUP SYSTEM 
46 2 2 4 4 5 5 6 6 9 9 11 11 12 12 14 14 20 \
20 22 22 32 32 33 33 34 34 35 35 36 36 38 38 41 41 42 \
42 43 43 46 46 47 47 49 49 51 51 

