#    Name: 5wpk_1_HMG
#    Modification time : Fri May 22 19:12:20 2020

@<TRIPOS>MOLECULE
5wpk_1_HMG
   58    60     1     0     0
SMALL
NO_CHARGES


@<TRIPOS>ATOM
      1 P2A       -16.0500  -39.7990  -21.5260 P.3       1 HMG500      0.0000 
      2 O5A       -16.3530  -41.0790  -20.7820 O.co2     1 HMG500      0.0000 
      3 O4A       -15.6060  -40.1140  -22.9350 O.co2     1 HMG500      0.0000 
      4 O3A       -14.8690  -38.9640  -20.7370 O.3       1 HMG500      0.0000 
      5 O6A       -17.4040  -38.8670  -21.5620 O.3       1 HMG500      0.0000 
      6 P1A       -13.2600  -39.3290  -20.7950 P.3       1 HMG500      0.0000 
      7 O1A       -12.6840  -39.2270  -19.4040 O.co2     1 HMG500      0.0000 
      8 O2A       -13.0610  -40.7270  -21.3220 O.co2     1 HMG500      0.0000 
      9 O5B       -12.5310  -38.2500  -21.8020 O.3       1 HMG500      0.0000 
     10 C5B       -11.4610  -37.5150  -21.2960 C.3       1 HMG500      0.0000 
     11 C4B       -11.5150  -36.0670  -21.8470 C.3       1 HMG500      0.0000 
     12 O4B       -12.7520  -35.6370  -21.8860 O.3       1 HMG500      0.0000 
     13 C3B       -10.7610  -35.1350  -20.8760 C.3       1 HMG500      0.0000 
     14 O3B        -9.5350  -34.8410  -21.3680 O.3       1 HMG500      0.0000 
     15 C2B       -11.6440  -33.8790  -20.8210 C.3       1 HMG500      0.0000 
     16 O2B       -11.3380  -32.9900  -21.9820 O.3       1 HMG500      0.0000 
     17 C1B       -12.8590  -34.3510  -20.9060 C.3       1 HMG500      0.0000 
     18 P3B        -8.2140  -35.5470  -20.6820 P.3       1 HMG500      0.0000 
     19 O7A        -6.9840  -35.1630  -21.4670 O.co2     1 HMG500      0.0000 
     20 O8A        -8.0690  -35.0520  -19.2640 O.co2     1 HMG500      0.0000 
     21 O9A        -8.3690  -37.0480  -20.6930 O.co2     1 HMG500      0.0000 
     22 N9A       -13.3410  -34.7440  -19.6000 N.pl3     1 HMG500      0.0000 
     23 C4A       -13.2930  -34.1800  -18.3830 C.ar      1 HMG500      0.0000 
     24 N3A       -12.7700  -33.0230  -17.9360 N.ar      1 HMG500      0.0000 
     25 C2A       -12.8630  -32.6910  -16.6280 C.ar      1 HMG500      0.0000 
     26 N1A       -13.4890  -33.5220  -15.7600 N.ar      1 HMG500      0.0000 
     27 C6A       -14.0060  -34.6590  -16.1930 C.ar      1 HMG500      0.0000 
     28 C5A       -13.9080  -35.0030  -17.5270 C.ar      1 HMG500      0.0000 
     29 N7A       -14.3370  -36.0710  -18.2170 N.2       1 HMG500      0.0000 
     30 C8A       -13.9850  -35.9090  -19.4970 C.2       1 HMG500      0.0000 
     31 N6A       -14.6140  -35.3690  -15.0840 N.pl3     1 HMG500      0.0000 
     32 CBP       -18.0700  -36.6440  -21.0710 C.3       1 HMG500      0.0000 
     33 CCP       -17.6220  -37.9860  -20.5000 C.3       1 HMG500      0.0000 
     34 CDP       -18.7640  -35.8370  -19.9750 C.3       1 HMG500      0.0000 
     35 CEP       -16.8380  -35.8860  -21.5520 C.3       1 HMG500      0.0000 
     36 CAP       -19.0220  -36.9050  -22.2450 C.3       1 HMG500      0.0000 
     37 OAP       -19.9310  -37.9140  -21.8970 O.3       1 HMG500      0.0000 
     38 C9P       -19.8000  -35.6430  -22.6120 C.2       1 HMG500      0.0000 
     39 O9P       -19.2900  -34.7930  -23.2600 O.2       1 HMG500      0.0000 
     40 N8P       -21.1760  -35.4990  -22.1700 N.am      1 HMG500      0.0000 
     41 C7P       -21.9350  -34.3070  -22.5030 C.3       1 HMG500      0.0000 
     42 C6P       -22.6370  -33.8270  -21.2350 C.3       1 HMG500      0.0000 
     43 C5P       -23.0210  -32.3560  -21.3560 C.2       1 HMG500      0.0000 
     44 O5P       -23.1460  -31.8490  -22.4180 O.2       1 HMG500      0.0000 
     45 N4P       -23.2320  -31.5860  -20.1440 N.am      1 HMG500      0.0000 
     46 C3P       -23.6090  -30.1870  -20.2010 C.3       1 HMG500      0.0000 
     47 C2P       -24.7320  -29.9710  -19.1860 C.3       1 HMG500      0.0000 
     48 S1P       -26.2190  -30.8690  -19.7140 S.3       1 HMG500      0.0000 
     49 C1        -27.1180  -29.8010  -20.8790 C.2       1 HMG500      0.0000 
     50 O2        -26.5380  -28.9130  -21.4080 O.2       1 HMG500      0.0000 
     51 C2        -28.6090  -30.0140  -21.1590 C.3       1 HMG500      0.0000 
     52 C3        -28.8570  -30.5110  -22.5850 C.3       1 HMG500      0.0000 
     53 O7        -30.1420  -31.0560  -22.6530 O.3       1 HMG500      0.0000 
     54 C4        -28.7510  -29.3750  -23.6000 C.3       1 HMG500      0.0000 
     55 C5        -29.0410  -29.9260  -24.9970 C.2       1 HMG500      0.0000 
     56 O3        -30.0410  -30.6690  -25.1780 O.co2     1 HMG500      0.0000 
     57 O4        -28.2870  -29.6420  -25.9680 O.co2     1 HMG500      0.0000 
     58 C6        -27.8300  -31.5840  -22.9320 C.3       1 HMG500      0.0000 
@<TRIPOS>BOND
     1    1    2 ar   
     2    1    3 ar   
     3    1    4 1    
     4    1    5 1    
     5    4    6 1    
     6    5   33 1    
     7    6    7 ar   
     8    6    8 ar   
     9    6    9 1    
    10    9   10 1    
    11   10   11 1    
    12   11   12 1    
    13   11   13 1    
    14   12   17 1    
    15   13   14 1    
    16   13   15 1    
    17   14   18 1    
    18   15   16 1    
    19   15   17 1    
    20   17   22 1    
    21   18   19 ar   
    22   18   20 ar   
    23   18   21 ar   
    24   22   23 1    
    25   22   30 1    
    26   23   24 ar   
    27   23   28 ar   
    28   24   25 ar   
    29   25   26 ar   
    30   26   27 ar   
    31   27   28 ar   
    32   27   31 1    
    33   28   29 1    
    34   29   30 2    
    35   32   33 1    
    36   32   34 1    
    37   32   35 1    
    38   32   36 1    
    39   36   37 1    
    40   36   38 1    
    41   38   39 2    
    42   38   40 am   
    43   40   41 1    
    44   41   42 1    
    45   42   43 1    
    46   43   44 2    
    47   43   45 am   
    48   45   46 1    
    49   46   47 1    
    50   47   48 1    
    51   48   49 1    
    52   49   50 2    
    53   49   51 1    
    54   51   52 1    
    55   52   53 1    
    56   52   54 1    
    57   52   58 1    
    58   54   55 1    
    59   55   56 ar   
    60   55   57 ar   
@<TRIPOS>SUBSTRUCTURE
     1 HMG500      1 GROUP   
@<TRIPOS>SET

