#    Name: 5wpk_2_HMG
#    Modification time : Fri May 22 19:12:32 2020

@<TRIPOS>MOLECULE
5wpk_2_HMG
   58    60     1     0     0
SMALL
NO_CHARGES


@<TRIPOS>ATOM
      1 P2A       -33.9600    7.6120   -6.4360 P.3       1 HMG502      0.0000 
      2 O5A       -32.5080    7.9080   -6.1280 O.co2     1 HMG502      0.0000 
      3 O4A       -34.6930    8.8980   -6.7330 O.co2     1 HMG502      0.0000 
      4 O3A       -34.6560    6.8620   -5.1400 O.3       1 HMG502      0.0000 
      5 O6A       -34.0510    6.6290   -7.7530 O.3       1 HMG502      0.0000 
      6 P1A       -34.4150    7.3490   -3.5810 P.3       1 HMG502      0.0000 
      7 O1A       -34.8320    8.7910   -3.4370 O.co2     1 HMG502      0.0000 
      8 O2A       -32.9500    7.2200   -3.2350 O.co2     1 HMG502      0.0000 
      9 O5B       -35.2970    6.4100   -2.5530 O.3       1 HMG502      0.0000 
     10 C5B       -36.5280    5.9070   -2.9800 C.3       1 HMG502      0.0000 
     11 C4B       -36.5680    4.3800   -2.7090 C.3       1 HMG502      0.0000 
     12 O4B       -35.9770    3.7470   -3.6920 O.3       1 HMG502      0.0000 
     13 C3B       -35.7400    4.0230   -1.4570 C.3       1 HMG502      0.0000 
     14 O3B       -36.4820    4.0840   -0.3210 O.3       1 HMG502      0.0000 
     15 C2B       -35.2850    2.5830   -1.7690 C.3       1 HMG502      0.0000 
     16 O2B       -36.3650    1.5960   -1.4680 O.3       1 HMG502      0.0000 
     17 C1B       -35.0270    2.5980   -3.0520 C.3       1 HMG502      0.0000 
     18 P3B       -35.7190    4.3490    1.1230 P.3       1 HMG502      0.0000 
     19 O7A       -34.8870    5.6090    1.0480 O.co2     1 HMG502      0.0000 
     20 O8A       -34.8260    3.1770    1.4610 O.co2     1 HMG502      0.0000 
     21 O9A       -36.7560    4.5060    2.2110 O.co2     1 HMG502      0.0000 
     22 N9A       -33.6260    2.8950   -3.2420 N.pl3     1 HMG502      0.0000 
     23 C4A       -32.5080    2.2390   -2.9060 C.ar      1 HMG502      0.0000 
     24 N3A       -32.3100    1.0670   -2.2770 N.ar      1 HMG502      0.0000 
     25 C2A       -31.0530    0.6250   -2.0620 C.ar      1 HMG502      0.0000 
     26 N1A       -29.9900    1.3600   -2.4700 N.ar      1 HMG502      0.0000 
     27 C6A       -30.1800    2.5150   -3.0860 C.ar      1 HMG502      0.0000 
     28 C5A       -31.4640    2.9700   -3.3100 C.ar      1 HMG502      0.0000 
     29 N7A       -31.9430    4.0790   -3.8950 N.2       1 HMG502      0.0000 
     30 C8A       -33.2810    4.0320   -3.8510 C.2       1 HMG502      0.0000 
     31 N6A       -28.8960    3.1050   -3.4200 N.pl3     1 HMG502      0.0000 
     32 CBP       -33.6030    4.4780   -8.6340 C.3       1 HMG502      0.0000 
     33 CCP       -33.0090    5.7330   -8.0020 C.3       1 HMG502      0.0000 
     34 CDP       -32.4760    3.5220   -9.0200 C.3       1 HMG502      0.0000 
     35 CEP       -34.5100    3.7940   -7.6150 C.3       1 HMG502      0.0000 
     36 CAP       -34.4230    4.8930   -9.8630 C.3       1 HMG502      0.0000 
     37 OAP       -33.7300    5.8620  -10.6030 O.3       1 HMG502      0.0000 
     38 C9P       -34.7500    3.6910  -10.7500 C.2       1 HMG502      0.0000 
     39 O9P       -35.7030    3.0370  -10.4930 O.2       1 HMG502      0.0000 
     40 N8P       -33.9180    3.3460  -11.8970 N.am      1 HMG502      0.0000 
     41 C7P       -34.2650    2.2000  -12.7210 C.3       1 HMG502      0.0000 
     42 C6P       -33.0730    1.2710  -12.9780 C.3       1 HMG502      0.0000 
     43 C5P       -33.6400   -0.0740  -13.4370 C.2       1 HMG502      0.0000 
     44 O5P       -34.8110   -0.1940  -13.5520 O.2       1 HMG502      0.0000 
     45 N4P       -32.8120   -1.2330  -13.7250 N.am      1 HMG502      0.0000 
     46 C3P       -31.3680   -1.2200  -13.6140 C.3       1 HMG502      0.0000 
     47 C2P       -30.7740   -1.9970  -14.7870 C.3       1 HMG502      0.0000 
     48 S1P       -30.5800   -0.8380  -16.1660 S.3       1 HMG502      0.0000 
     49 C1        -31.0390   -1.6430  -17.7270 C.2       1 HMG502      0.0000 
     50 O2        -30.2860   -1.6260  -18.6440 O.2       1 HMG502      0.0000 
     51 C2        -32.3870   -2.3470  -17.8630 C.3       1 HMG502      0.0000 
     52 C3        -33.2870   -1.5440  -18.8020 C.3       1 HMG502      0.0000 
     53 O7        -32.6350   -1.3460  -20.0260 O.3       1 HMG502      0.0000 
     54 C4        -34.5780   -2.3360  -19.0140 C.3       1 HMG502      0.0000 
     55 C5        -35.4500   -1.7240  -20.1080 C.2       1 HMG502      0.0000 
     56 O3        -36.6760   -2.0030  -20.1410 O.co2     1 HMG502      0.0000 
     57 O4        -34.9570   -0.9520  -20.9760 O.co2     1 HMG502      0.0000 
     58 C6        -33.5980   -0.1860  -18.1680 C.3       1 HMG502      0.0000 
@<TRIPOS>BOND
     1    1    2 ar   
     2    1    3 ar   
     3    1    4 1    
     4    1    5 1    
     5    4    6 1    
     6    5   33 1    
     7    6    7 ar   
     8    6    8 ar   
     9    6    9 1    
    10    9   10 1    
    11   10   11 1    
    12   11   12 1    
    13   11   13 1    
    14   12   17 1    
    15   13   14 1    
    16   13   15 1    
    17   14   18 1    
    18   15   16 1    
    19   15   17 1    
    20   17   22 1    
    21   18   19 ar   
    22   18   20 ar   
    23   18   21 ar   
    24   22   23 1    
    25   22   30 1    
    26   23   24 ar   
    27   23   28 ar   
    28   24   25 ar   
    29   25   26 ar   
    30   26   27 ar   
    31   27   28 ar   
    32   27   31 1    
    33   28   29 1    
    34   29   30 2    
    35   32   33 1    
    36   32   34 1    
    37   32   35 1    
    38   32   36 1    
    39   36   37 1    
    40   36   38 1    
    41   38   39 2    
    42   38   40 am   
    43   40   41 1    
    44   41   42 1    
    45   42   43 1    
    46   43   44 2    
    47   43   45 am   
    48   45   46 1    
    49   46   47 1    
    50   47   48 1    
    51   48   49 1    
    52   49   50 2    
    53   49   51 1    
    54   51   52 1    
    55   52   53 1    
    56   52   54 1    
    57   52   58 1    
    58   54   55 1    
    59   55   56 ar   
    60   55   57 ar   
@<TRIPOS>SUBSTRUCTURE
     1 HMG502      1 GROUP   
@<TRIPOS>SET

