#    Name: 6ajb_3_NAD
#    Modification time : Fri May 22 19:28:50 2020

@<TRIPOS>MOLECULE
6ajb_3_NAD
   44    48     1     0     1
SMALL
NO_CHARGES


@<TRIPOS>ATOM
      1 PA         38.1160   13.7600   -8.4060 P.3       1 NAD501      0.0000 
      2 O1A        37.1790   14.7560   -7.7220 O.co2     1 NAD501      0.0000 
      3 O2A        39.0090   12.7670   -7.6770 O.co2     1 NAD501      0.0000 
      4 O5B        39.0540   14.5340   -9.4610 O.3       1 NAD501      0.0000 
      5 C5B        38.9510   15.8830   -9.9140 C.3       1 NAD501      0.0000 
      6 C4B        40.3530   16.4740   -9.9180 C.3       1 NAD501      0.0000 
      7 O4B        40.2310   17.7500   -9.3230 O.3       1 NAD501      0.0000 
      8 C3B        41.4050   15.6880   -9.0920 C.3       1 NAD501      0.0000 
      9 O3B        42.1220   14.5750   -9.7110 O.3       1 NAD501      0.0000 
     10 C2B        42.2930   16.8060   -8.6000 C.3       1 NAD501      0.0000 
     11 O2B        43.2430   17.2430   -9.5890 O.3       1 NAD501      0.0000 
     12 C1B        41.2180   17.8580   -8.2740 C.3       1 NAD501      0.0000 
     13 N9A        40.7100   17.5890   -6.8650 N.pl3     1 NAD501      0.0000 
     14 C8A        39.5780   16.9170   -6.5460 C.2       1 NAD501      0.0000 
     15 N7A        39.4070   16.8140   -5.2020 N.2       1 NAD501      0.0000 
     16 C5A        40.4500   17.4300   -4.6040 C.ar      1 NAD501      0.0000 
     17 C6A        40.8720   17.6780   -3.1890 C.ar      1 NAD501      0.0000 
     18 N6A        40.0860   17.2230   -2.1760 N.pl3     1 NAD501      0.0000 
     19 N1A        42.0200   18.3770   -2.9860 N.ar      1 NAD501      0.0000 
     20 C2A        42.7560   18.8310   -4.0190 C.ar      1 NAD501      0.0000 
     21 N3A        42.4330   18.6360   -5.3170 N.ar      1 NAD501      0.0000 
     22 C4A        41.3150   17.9500   -5.6920 C.ar      1 NAD501      0.0000 
     23 O3         37.3160   12.8000   -9.4210 O.3       1 NAD501      0.0000 
     24 PN         38.1780   12.0490  -10.5670 P.3       1 NAD501      0.0000 
     25 O1N        39.6880   12.2970  -10.2680 O.co2     1 NAD501      0.0000 
     26 O2N        37.4920   12.4490  -11.8540 O.co2     1 NAD501      0.0000 
     27 O5D        37.8900   10.4940  -10.2150 O.3       1 NAD501      0.0000 
     28 C5D        38.9690    9.5890   -9.9430 C.3       1 NAD501      0.0000 
     29 C4D        38.3700    8.3810   -9.2880 C.3       1 NAD501      0.0000 
     30 O4D        37.4690    8.8490   -8.2830 O.3       1 NAD501      0.0000 
     31 C3D        37.5530    7.5460  -10.2350 C.3       1 NAD501      0.0000 
     32 O3D        37.7180    6.1980   -9.8130 O.3       1 NAD501      0.0000 
     33 C2D        36.1440    8.0040  -10.0080 C.3       1 NAD501      0.0000 
     34 O2D        35.2580    6.9650  -10.3150 O.3       1 NAD501      0.0000 
     35 C1D        36.1600    8.2960   -8.5100 C.3       1 NAD501      0.0000 
     36 N1N        35.0750    9.1550   -7.9550 N.pl3     1 NAD501      0.0000 
     37 C2N        34.4500    8.7260   -6.8480 C.ar      1 NAD501      0.0000 
     38 C3N        33.4260    9.4280   -6.2120 C.ar      1 NAD501      0.0000 
     39 C7N        32.7660    8.9090   -4.9480 C.2       1 NAD501      0.0000 
     40 O7N        31.9390    9.6180   -4.4000 O.2       1 NAD501      0.0000 
     41 N7N        33.0540    7.7290   -4.3790 N.am      1 NAD501      0.0000 
     42 C4N        33.0430   10.6380   -6.7650 C.ar      1 NAD501      0.0000 
     43 C5N        33.6960   11.0850   -7.9150 C.ar      1 NAD501      0.0000 
     44 C6N        34.7200   10.3300   -8.4980 C.ar      1 NAD501      0.0000 
@<TRIPOS>BOND
     1    1    2 ar   
     2    1    3 ar   
     3    1    4 1    
     4    1   23 1    
     5    4    5 1    
     6    5    6 1    
     7    6    7 1    
     8    6    8 1    
     9    7   12 1    
    10    8    9 1    
    11    8   10 1    
    12   10   11 1    
    13   10   12 1    
    14   12   13 1    
    15   13   14 1    
    16   13   22 1    
    17   14   15 2    
    18   15   16 1    
    19   16   17 ar   
    20   16   22 ar   
    21   17   18 1    
    22   17   19 ar   
    23   19   20 ar   
    24   20   21 ar   
    25   21   22 ar   
    26   23   24 1    
    27   24   25 ar   
    28   24   26 ar   
    29   24   27 1    
    30   27   28 1    
    31   28   29 1    
    32   29   30 1    
    33   29   31 1    
    34   30   35 1    
    35   31   32 1    
    36   31   33 1    
    37   33   34 1    
    38   33   35 1    
    39   35   36 1    
    40   36   37 ar   
    41   36   44 ar   
    42   37   38 ar   
    43   38   39 1    
    44   38   42 ar   
    45   39   40 2    
    46   39   41 am   
    47   42   43 ar   
    48   43   44 ar   
@<TRIPOS>SUBSTRUCTURE
     1 NAD501      1 GROUP   
@<TRIPOS>SET
ATOM$ORANGE STATIC     ATOMS   COLORGROUP SYSTEM 
42 5 5 6 6 8 8 10 10 12 12 14 14 16 16 17 17 20 \
20 22 22 28 28 29 29 31 31 33 33 35 35 37 37 38 38 39 \
39 42 42 43 43 44 44 

