#    Name: 6ajb_2_NAD_CAVITY_N1_4
#    Modification time : Fri May 22 19:28:44 2020

@<TRIPOS>MOLECULE
6ajb_2_NAD_CAVITY_N1_4
   63     0     7     0     0
SMALL
NO_CHARGES


@<TRIPOS>ATOM
      1 OG         51.5200  -50.7300   44.7200 O.3       1 SER1        0.0000 
      2 OG         52.0500  -49.7500   45.7100 O.3       1 SER1        0.0000 
      3 OG         53.9800  -50.6300   45.5500 O.3       1 SER1        0.0000 
      4 OG         51.3900  -48.9900   47.5800 O.3       1 SER1        0.0000 
      5 OG         52.5900  -48.7600   46.7100 O.3       1 SER1        0.0000 
      6 OG         54.2600  -47.2000   44.2600 O.3       1 SER1        0.0000 
      7 OG         57.5100  -48.5500   48.3700 O.3       1 SER1        0.0000 
      8 N          53.4400  -51.6100   44.5500 N.am      2 ALA2        0.0000 
      9 O          56.4300  -50.5200   46.3800 O.2       2 ALA2        0.0000 
     10 O          54.0800  -45.1100   44.5500 O.2       2 ALA2        0.0000 
     11 O          54.8000  -46.2100   45.2600 O.2       2 ALA2        0.0000 
     12 O          55.5200  -47.3200   45.9600 O.2       2 ALA2        0.0000 
     13 N          58.1700  -49.3100   46.5100 N.am      2 ALA2        0.0000 
     14 O          55.9300  -44.5900   49.8200 O.2       2 ALA2        0.0000 
     15 OD1        48.8700  -48.7500   44.1700 O.co2     3 ASP3        0.0000 
     16 OD1        49.5900  -49.8500   44.8800 O.co2     3 ASP3        0.0000 
     17 OD1        50.7900  -49.6300   44.0100 O.co2     3 ASP3        0.0000 
     18 OD1        50.6100  -47.5300   44.3000 O.co2     3 ASP3        0.0000 
     19 OD1        51.3300  -48.6400   45.0100 O.co2     3 ASP3        0.0000 
     20 OD1        50.6600  -47.8800   46.8700 O.co2     3 ASP3        0.0000 
     21 OD1        51.2000  -46.9000   47.8700 O.co2     3 ASP3        0.0000 
     22 NZ         54.9900  -48.3100   44.9700 N.4       4 LYS4        0.0000 
     23 NZ         55.7100  -49.4200   45.6800 N.4       4 LYS4        0.0000 
     24 NZ         56.1900  -48.0800   44.1000 N.4       4 LYS4        0.0000 
     25 NZ         56.9100  -49.1900   44.8000 N.4       4 LYS4        0.0000 
     26 CZ         56.7800  -47.4500   47.6700 C.ar      5 PHE5        0.0000 
     27 CA         51.9900  -49.4000   43.1400 C.3       6 GLY6        0.0000 
     28 CA         52.7200  -50.5100   43.8500 C.3       6 GLY6        0.0000 
     29 CA         52.5300  -48.4100   44.1400 C.3       6 GLY6        0.0000 
     30 CA         53.2500  -49.5200   44.8400 C.3       6 GLY6        0.0000 
     31 CA         53.7300  -48.1800   43.2700 C.3       6 GLY6        0.0000 
     32 CA         55.1800  -50.4000   44.6800 C.3       6 GLY6        0.0000 
     33 CA         53.3100  -49.8700   47.4200 C.3       6 GLY6        0.0000 
     34 CA         55.2300  -50.7500   47.2500 C.3       6 GLY6        0.0000 
     35 CA         51.9200  -48.0100   48.5800 C.3       6 GLY6        0.0000 
     36 CA         53.1200  -47.7800   47.7100 C.3       6 GLY6        0.0000 
     37 CA         55.0500  -48.6600   47.5400 C.3       6 GLY6        0.0000 
     38 CA         55.7700  -49.7700   48.2500 C.3       6 GLY6        0.0000 
     39 CA         56.2500  -48.4300   46.6700 C.3       6 GLY6        0.0000 
     40 CA         56.9700  -49.5400   47.3800 C.3       6 GLY6        0.0000 
     41 CA         57.4500  -48.2000   45.8000 C.3       6 GLY6        0.0000 
     42 CA         52.4600  -47.0200   49.5700 C.3       6 GLY6        0.0000 
     43 CA         53.6600  -46.7900   48.7000 C.3       6 GLY6        0.0000 
     44 CA         55.5800  -47.6700   48.5400 C.3       6 GLY6        0.0000 
     45 CA         55.3400  -45.2300   46.2500 C.3       6 GLY6        0.0000 
     46 CA         56.0600  -46.3400   46.9600 C.3       6 GLY6        0.0000 
     47 CA         52.9900  -46.0400   50.5700 C.3       6 GLY6        0.0000 
     48 CA         54.1900  -45.8100   49.7000 C.3       6 GLY6        0.0000 
     49 CA         54.6700  -44.4700   48.1200 C.3       6 GLY6        0.0000 
     50 CA         55.3900  -45.5800   48.8300 C.3       6 GLY6        0.0000 
     51 CA         56.1200  -46.6900   49.5300 C.3       6 GLY6        0.0000 
     52 CA         55.2100  -43.4900   49.1200 C.3       6 GLY6        0.0000 
     53 DU         50.0700  -48.5200   43.3000 H         7 CUB7        0.0000 
     54 DU         51.8100  -47.3100   43.4300 H         7 CUB7        0.0000 
     55 DU         51.8600  -47.6600   46.0000 H         7 CUB7        0.0000 
     56 DU         53.0600  -47.4300   45.1300 H         7 CUB7        0.0000 
     57 DU         53.7900  -48.5400   45.8400 H         7 CUB7        0.0000 
     58 DU         54.5100  -49.6400   46.5500 H         7 CUB7        0.0000 
     59 DU         53.5400  -46.0900   43.5600 H         7 CUB7        0.0000 
     60 DU         52.4000  -46.6700   47.0000 H         7 CUB7        0.0000 
     61 DU         54.3200  -47.5500   46.8400 H         7 CUB7        0.0000 
     62 DU         54.1400  -45.4600   47.1300 H         7 CUB7        0.0000 
     63 DU         54.8600  -46.5700   47.8300 H         7 CUB7        0.0000 
@<TRIPOS>BOND
@<TRIPOS>SUBSTRUCTURE
     1 SER1        1 GROUP   
     2 ALA2        8 GROUP   
     3 ASP3       15 GROUP   
     4 LYS4       22 GROUP   
     5 PHE5       26 GROUP   
     6 GLY6       27 GROUP   
     7 CUB7       53 GROUP   
@<TRIPOS>SET

