#    Name: 6ajb_4_NAD
#    Modification time : Fri May 22 19:29:05 2020

@<TRIPOS>MOLECULE
6ajb_4_NAD
   44    48     1     0     1
SMALL
NO_CHARGES


@<TRIPOS>ATOM
      1 PA         10.2950   37.4540  -13.5590 P.3       1 NAD501      0.0000 
      2 O1A        10.7140   36.2110  -14.3500 O.co2     1 NAD501      0.0000 
      3 O2A        10.3950   38.8100  -14.2350 O.co2     1 NAD501      0.0000 
      4 O5B        11.2290   37.5300  -12.2440 O.3       1 NAD501      0.0000 
      5 C5B        10.7910   38.1290  -11.0120 C.3       1 NAD501      0.0000 
      6 C4B        11.9870   38.3620  -10.0900 C.3       1 NAD501      0.0000 
      7 O4B        13.0880   38.7930  -10.8900 O.3       1 NAD501      0.0000 
      8 C3B        11.7670   39.4210   -9.0080 C.3       1 NAD501      0.0000 
      9 O3B        12.1990   38.9330   -7.7250 O.3       1 NAD501      0.0000 
     10 C2B        12.5850   40.6290   -9.4300 C.3       1 NAD501      0.0000 
     11 O2B        13.4120   41.1510   -8.3730 O.3       1 NAD501      0.0000 
     12 C1B        13.4630   40.1360  -10.5770 C.3       1 NAD501      0.0000 
     13 N9A        13.3120   40.9910  -11.7680 N.pl3     1 NAD501      0.0000 
     14 C8A        12.8660   40.5910  -12.9660 C.2       1 NAD501      0.0000 
     15 N7A        12.8650   41.6170  -13.8330 N.2       1 NAD501      0.0000 
     16 C5A        13.3130   42.6810  -13.1820 C.ar      1 NAD501      0.0000 
     17 C6A        13.5380   44.0820  -13.5370 C.ar      1 NAD501      0.0000 
     18 N6A        13.2470   44.4780  -14.7990 N.pl3     1 NAD501      0.0000 
     19 N1A        14.0340   44.9050  -12.5700 N.ar      1 NAD501      0.0000 
     20 C2A        14.3010   44.4690  -11.3150 C.ar      1 NAD501      0.0000 
     21 N3A        14.0990   43.1870  -10.9410 N.ar      1 NAD501      0.0000 
     22 C4A        13.6170   42.2730  -11.8170 C.ar      1 NAD501      0.0000 
     23 O3          8.8220   37.2790  -12.8720 O.3       1 NAD501      0.0000 
     24 PN          8.2180   35.8970  -12.2380 P.3       1 NAD501      0.0000 
     25 O1N         9.0930   34.6810  -12.5620 O.co2     1 NAD501      0.0000 
     26 O2N         7.6910   36.2760  -10.8530 O.co2     1 NAD501      0.0000 
     27 O5D         6.9330   35.7100  -13.2170 O.3       1 NAD501      0.0000 
     28 C5D         5.7900   36.5750  -13.2150 C.3       1 NAD501      0.0000 
     29 C4D         4.8520   36.2930  -14.3720 C.3       1 NAD501      0.0000 
     30 O4D         5.5910   36.5170  -15.5620 O.3       1 NAD501      0.0000 
     31 C3D         4.3470   34.8570  -14.4090 C.3       1 NAD501      0.0000 
     32 O3D         2.9270   34.8330  -14.5510 O.3       1 NAD501      0.0000 
     33 C2D         5.1020   34.2340  -15.5930 C.3       1 NAD501      0.0000 
     34 O2D         4.4980   33.1210  -16.3060 O.3       1 NAD501      0.0000 
     35 C1D         5.3590   35.4440  -16.4900 C.3       1 NAD501      0.0000 
     36 N1N         6.4680   35.3190  -17.4750 N.pl3     1 NAD501      0.0000 
     37 C2N         6.3560   36.0290  -18.6210 C.ar      1 NAD501      0.0000 
     38 C3N         7.3280   36.0140  -19.6070 C.ar      1 NAD501      0.0000 
     39 C7N         7.1560   36.8410  -20.8470 C.2       1 NAD501      0.0000 
     40 O7N         6.4300   36.4320  -21.7190 O.2       1 NAD501      0.0000 
     41 N7N         7.7720   38.0170  -21.0010 N.am      1 NAD501      0.0000 
     42 C4N         8.4600   35.2600  -19.4130 C.ar      1 NAD501      0.0000 
     43 C5N         8.5830   34.5160  -18.2410 C.ar      1 NAD501      0.0000 
     44 C6N         7.5780   34.5530  -17.2750 C.ar      1 NAD501      0.0000 
@<TRIPOS>BOND
     1    1    2 ar   
     2    1    3 ar   
     3    1    4 1    
     4    1   23 1    
     5    4    5 1    
     6    5    6 1    
     7    6    7 1    
     8    6    8 1    
     9    7   12 1    
    10    8    9 1    
    11    8   10 1    
    12   10   11 1    
    13   10   12 1    
    14   12   13 1    
    15   13   14 1    
    16   13   22 1    
    17   14   15 2    
    18   15   16 1    
    19   16   17 ar   
    20   16   22 ar   
    21   17   18 1    
    22   17   19 ar   
    23   19   20 ar   
    24   20   21 ar   
    25   21   22 ar   
    26   23   24 1    
    27   24   25 ar   
    28   24   26 ar   
    29   24   27 1    
    30   27   28 1    
    31   28   29 1    
    32   29   30 1    
    33   29   31 1    
    34   30   35 1    
    35   31   32 1    
    36   31   33 1    
    37   33   34 1    
    38   33   35 1    
    39   35   36 1    
    40   36   37 ar   
    41   36   44 ar   
    42   37   38 ar   
    43   38   39 1    
    44   38   42 ar   
    45   39   40 2    
    46   39   41 am   
    47   42   43 ar   
    48   43   44 ar   
@<TRIPOS>SUBSTRUCTURE
     1 NAD501      1 GROUP   
@<TRIPOS>SET
ATOM$ORANGE STATIC     ATOMS   COLORGROUP SYSTEM 
42 5 5 6 6 8 8 10 10 12 12 14 14 16 16 17 17 20 \
20 22 22 28 28 29 29 31 31 33 33 35 35 37 37 38 38 39 \
39 42 42 43 43 44 44 

