#    Name: 6ajb_1_NAD
#    Modification time : Fri May 22 19:28:34 2020

@<TRIPOS>MOLECULE
6ajb_1_NAD
   44    48     1     0     1
SMALL
NO_CHARGES


@<TRIPOS>ATOM
      1 PA         57.4650  -13.5900   23.0560 P.3       1 NAD501      0.0000 
      2 O1A        57.4510  -12.3050   22.2250 O.co2     1 NAD501      0.0000 
      3 O2A        56.1870  -14.3040   23.4830 O.co2     1 NAD501      0.0000 
      4 O5B        58.3530  -14.6720   22.2830 O.3       1 NAD501      0.0000 
      5 C5B        59.4400  -15.3100   22.9390 C.3       1 NAD501      0.0000 
      6 C4B        59.7970  -16.5030   22.0890 C.3       1 NAD501      0.0000 
      7 O4B        58.6200  -17.2890   22.0690 O.3       1 NAD501      0.0000 
      8 C3B        60.2060  -16.1360   20.6640 C.3       1 NAD501      0.0000 
      9 O3B        61.4920  -16.7160   20.3880 O.3       1 NAD501      0.0000 
     10 C2B        59.1510  -16.7590   19.8040 C.3       1 NAD501      0.0000 
     11 O2B        59.7390  -17.6560   18.8470 O.3       1 NAD501      0.0000 
     12 C1B        58.2660  -17.5830   20.7360 C.3       1 NAD501      0.0000 
     13 N9A        56.8290  -17.3320   20.4480 N.pl3     1 NAD501      0.0000 
     14 C8A        55.9010  -16.6240   21.1140 C.2       1 NAD501      0.0000 
     15 N7A        54.6950  -16.6770   20.4880 N.2       1 NAD501      0.0000 
     16 C5A        54.8650  -17.4320   19.3940 C.ar      1 NAD501      0.0000 
     17 C6A        54.0570  -17.8950   18.2610 C.ar      1 NAD501      0.0000 
     18 N6A        52.7790  -17.5820   18.1620 N.pl3     1 NAD501      0.0000 
     19 N1A        54.6060  -18.6560   17.3340 N.ar      1 NAD501      0.0000 
     20 C2A        55.8990  -19.0210   17.3820 C.ar      1 NAD501      0.0000 
     21 N3A        56.7400  -18.6390   18.3620 N.ar      1 NAD501      0.0000 
     22 C4A        56.2660  -17.8640   19.3800 C.ar      1 NAD501      0.0000 
     23 O3         58.3200  -13.2950   24.4020 O.3       1 NAD501      0.0000 
     24 PN         59.3690  -12.0710   24.4680 P.3       1 NAD501      0.0000 
     25 O1N        60.2040  -12.1540   23.2150 O.co2     1 NAD501      0.0000 
     26 O2N        59.9590  -12.1090   25.8540 O.co2     1 NAD501      0.0000 
     27 O5D        58.5100  -10.6930   24.3170 O.3       1 NAD501      0.0000 
     28 C5D        58.8170   -9.6360   23.3830 C.3       1 NAD501      0.0000 
     29 C4D        57.9750   -8.3620   23.5690 C.3       1 NAD501      0.0000 
     30 O4D        56.5970   -8.6910   23.7070 O.3       1 NAD501      0.0000 
     31 C3D        58.4110   -7.5870   24.8090 C.3       1 NAD501      0.0000 
     32 O3D        58.8720   -6.2780   24.4550 O.3       1 NAD501      0.0000 
     33 C2D        57.2160   -7.5850   25.7670 C.3       1 NAD501      0.0000 
     34 O2D        56.9380   -6.3150   26.4050 O.3       1 NAD501      0.0000 
     35 C1D        56.0570   -8.0860   24.8920 C.3       1 NAD501      0.0000 
     36 N1N        55.1420   -8.9710   25.6590 N.pl3     1 NAD501      0.0000 
     37 C2N        53.8480   -8.6170   25.7500 C.ar      1 NAD501      0.0000 
     38 C3N        52.8940   -9.3650   26.4400 C.ar      1 NAD501      0.0000 
     39 C7N        51.4300   -8.9290   26.5150 C.2       1 NAD501      0.0000 
     40 O7N        50.6120   -9.6010   27.1340 O.2       1 NAD501      0.0000 
     41 N7N        50.9730   -7.8190   25.9420 N.am      1 NAD501      0.0000 
     42 C4N        53.3390  -10.5370   27.0790 C.ar      1 NAD501      0.0000 
     43 C5N        54.6810  -10.9120   26.9870 C.ar      1 NAD501      0.0000 
     44 C6N        55.5660  -10.1020   26.2650 C.ar      1 NAD501      0.0000 
@<TRIPOS>BOND
     1    1    2 ar   
     2    1    3 ar   
     3    1    4 1    
     4    1   23 1    
     5    4    5 1    
     6    5    6 1    
     7    6    7 1    
     8    6    8 1    
     9    7   12 1    
    10    8    9 1    
    11    8   10 1    
    12   10   11 1    
    13   10   12 1    
    14   12   13 1    
    15   13   14 1    
    16   13   22 1    
    17   14   15 2    
    18   15   16 1    
    19   16   17 ar   
    20   16   22 ar   
    21   17   18 1    
    22   17   19 ar   
    23   19   20 ar   
    24   20   21 ar   
    25   21   22 ar   
    26   23   24 1    
    27   24   25 ar   
    28   24   26 ar   
    29   24   27 1    
    30   27   28 1    
    31   28   29 1    
    32   29   30 1    
    33   29   31 1    
    34   30   35 1    
    35   31   32 1    
    36   31   33 1    
    37   33   34 1    
    38   33   35 1    
    39   35   36 1    
    40   36   37 ar   
    41   36   44 ar   
    42   37   38 ar   
    43   38   39 1    
    44   38   42 ar   
    45   39   40 2    
    46   39   41 am   
    47   42   43 ar   
    48   43   44 ar   
@<TRIPOS>SUBSTRUCTURE
     1 NAD501      1 GROUP   
@<TRIPOS>SET
ATOM$ORANGE STATIC     ATOMS   COLORGROUP SYSTEM 
42 5 5 6 6 8 8 10 10 12 12 14 14 16 16 17 17 20 \
20 22 22 28 28 29 29 31 31 33 33 35 35 37 37 38 38 39 \
39 42 42 43 43 44 44 

