#    Name: 6ajb_2_NAD
#    Modification time : Fri May 22 19:28:42 2020

@<TRIPOS>MOLECULE
6ajb_2_NAD
   44    48     1     0     1
SMALL
NO_CHARGES


@<TRIPOS>ATOM
      1 PA         54.0280  -44.5600   51.1600 P.3       1 NAD501      0.0000 
      2 O1A        54.7020  -45.7830   51.7510 O.co2     1 NAD501      0.0000 
      3 O2A        54.8650  -43.3460   50.8260 O.co2     1 NAD501      0.0000 
      4 O5B        53.3150  -44.9170   49.7700 O.3       1 NAD501      0.0000 
      5 C5B        52.3340  -44.0970   49.1200 C.3       1 NAD501      0.0000 
      6 C4B        51.4680  -44.9390   48.1660 C.3       1 NAD501      0.0000 
      7 O4B        52.2340  -45.1870   46.9820 O.3       1 NAD501      0.0000 
      8 C3B        51.0390  -46.3030   48.7430 C.3       1 NAD501      0.0000 
      9 O3B        49.6140  -46.4650   48.8890 O.3       1 NAD501      0.0000 
     10 C2B        51.6240  -47.3350   47.8000 C.3       1 NAD501      0.0000 
     11 O2B        50.5590  -48.0790   47.1940 O.3       1 NAD501      0.0000 
     12 C1B        52.4980  -46.5810   46.7860 C.3       1 NAD501      0.0000 
     13 N9A        53.9470  -46.9190   46.9930 N.pl3     1 NAD501      0.0000 
     14 C8A        54.9140  -46.1650   47.5580 C.2       1 NAD501      0.0000 
     15 N7A        56.1080  -46.8200   47.5840 N.2       1 NAD501      0.0000 
     16 C5A        55.9210  -48.0200   47.0340 C.ar      1 NAD501      0.0000 
     17 C6A        56.7510  -49.2040   46.7370 C.ar      1 NAD501      0.0000 
     18 N6A        58.0380  -49.1960   47.0680 N.pl3     1 NAD501      0.0000 
     19 N1A        56.2140  -50.2790   46.1440 N.ar      1 NAD501      0.0000 
     20 C2A        54.9150  -50.2570   45.8240 C.ar      1 NAD501      0.0000 
     21 N3A        54.0810  -49.2060   46.0440 N.ar      1 NAD501      0.0000 
     22 C4A        54.5100  -48.0780   46.6430 C.ar      1 NAD501      0.0000 
     23 O3         52.7150  -44.2510   52.0550 O.3       1 NAD501      0.0000 
     24 PN         52.2030  -42.8470   52.7090 P.3       1 NAD501      0.0000 
     25 O1N        50.7060  -42.8390   52.5020 O.co2     1 NAD501      0.0000 
     26 O2N        52.9490  -41.6180   52.2350 O.co2     1 NAD501      0.0000 
     27 O5D        52.5260  -43.0590   54.2910 O.3       1 NAD501      0.0000 
     28 C5D        52.7880  -44.3140   54.9580 C.3       1 NAD501      0.0000 
     29 C4D        53.7250  -44.1000   56.1540 C.3       1 NAD501      0.0000 
     30 O4D        55.0200  -43.7130   55.6780 O.3       1 NAD501      0.0000 
     31 C3D        53.2900  -42.9930   57.1140 C.3       1 NAD501      0.0000 
     32 O3D        53.2010  -43.5190   58.4490 O.3       1 NAD501      0.0000 
     33 C2D        54.3400  -41.8850   56.9750 C.3       1 NAD501      0.0000 
     34 O2D        54.6300  -41.2990   58.2530 O.3       1 NAD501      0.0000 
     35 C1D        55.5780  -42.5750   56.3750 C.3       1 NAD501      0.0000 
     36 N1N        56.5340  -41.8550   55.4690 N.pl3     1 NAD501      0.0000 
     37 C2N        57.8570  -42.1950   55.5120 C.ar      1 NAD501      0.0000 
     38 C3N        58.8470  -41.6060   54.6850 C.ar      1 NAD501      0.0000 
     39 C7N        60.3270  -42.0100   54.7210 C.2       1 NAD501      0.0000 
     40 O7N        60.9490  -41.8880   53.6740 O.2       1 NAD501      0.0000 
     41 N7N        60.9640  -42.5120   55.8030 N.am      1 NAD501      0.0000 
     42 C4N        58.4230  -40.6300   53.7760 C.ar      1 NAD501      0.0000 
     43 C5N        57.0720  -40.2920   53.7390 C.ar      1 NAD501      0.0000 
     44 C6N        56.1460  -40.9190   54.5850 C.ar      1 NAD501      0.0000 
@<TRIPOS>BOND
     1    1    2 ar   
     2    1    3 ar   
     3    1    4 1    
     4    1   23 1    
     5    4    5 1    
     6    5    6 1    
     7    6    7 1    
     8    6    8 1    
     9    7   12 1    
    10    8    9 1    
    11    8   10 1    
    12   10   11 1    
    13   10   12 1    
    14   12   13 1    
    15   13   14 1    
    16   13   22 1    
    17   14   15 2    
    18   15   16 1    
    19   16   17 ar   
    20   16   22 ar   
    21   17   18 1    
    22   17   19 ar   
    23   19   20 ar   
    24   20   21 ar   
    25   21   22 ar   
    26   23   24 1    
    27   24   25 ar   
    28   24   26 ar   
    29   24   27 1    
    30   27   28 1    
    31   28   29 1    
    32   29   30 1    
    33   29   31 1    
    34   30   35 1    
    35   31   32 1    
    36   31   33 1    
    37   33   34 1    
    38   33   35 1    
    39   35   36 1    
    40   36   37 ar   
    41   36   44 ar   
    42   37   38 ar   
    43   38   39 1    
    44   38   42 ar   
    45   39   40 2    
    46   39   41 am   
    47   42   43 ar   
    48   43   44 ar   
@<TRIPOS>SUBSTRUCTURE
     1 NAD501      1 GROUP   
@<TRIPOS>SET
ATOM$ORANGE STATIC     ATOMS   COLORGROUP SYSTEM 
42 5 5 6 6 8 8 10 10 12 12 14 14 16 16 17 17 20 \
20 22 22 28 28 29 29 31 31 33 33 35 35 37 37 38 38 39 \
39 42 42 43 43 44 44 

