#    Name: 6n0u_3_TRH
#    Modification time : Fri May 22 19:37:36 2020

@<TRIPOS>MOLECULE
6n0u_3_TRH
   35    37     1     0     0
SMALL
NO_CHARGES


@<TRIPOS>ATOM
      1 O4P        -9.0690  -22.1390   23.7140 O.co2     1 TRH500      0.0000 
      2 P2         -8.3140  -21.0640   22.9140 P.3       1 TRH500      0.0000 
      3 O3P        -7.6210  -20.0570   23.7400 O.co2     1 TRH500      0.0000 
      4 O1         -7.2420  -21.7480   21.9410 O.3       1 TRH500      0.0000 
      5 C1         -7.4720  -23.0320   21.5330 C.3       1 TRH500      0.0000 
      6 C2         -6.6250  -23.9980   22.3540 C.3       1 TRH500      0.0000 
      7 O2         -5.2930  -23.5120   22.4390 O.3       1 TRH500      0.0000 
      8 C3         -6.6090  -25.3620   21.6780 C.3       1 TRH500      0.0000 
      9 O3         -5.7530  -26.2340   22.4180 O.3       1 TRH500      0.0000 
     10 C4         -6.1440  -25.2270   20.2260 C.3       1 TRH500      0.0000 
     11 O4         -6.1800  -26.4870   19.5570 O.3       1 TRH500      0.0000 
     12 C5         -7.0200  -24.2060   19.5000 C.3       1 TRH500      0.0000 
     13 O5         -6.9770  -22.9510   20.2050 O.3       1 TRH500      0.0000 
     14 C6         -6.6120  -23.9100   18.0750 C.3       1 TRH500      0.0000 
     15 OPP        -9.4280  -20.3760   22.0140 O.3       1 TRH500      0.0000 
     16 P          -9.5420  -18.8840   21.4900 P.3       1 TRH500      0.0000 
     17 O1P        -8.1950  -18.5780   20.8830 O.co2     1 TRH500      0.0000 
     18 O2P        -9.7870  -17.9660   22.6230 O.co2     1 TRH500      0.0000 
     19 O5'       -10.7320  -18.9100   20.4550 O.3       1 TRH500      0.0000 
     20 C5'       -10.7160  -19.6240   19.2070 C.3       1 TRH500      0.0000 
     21 C4'       -11.9110  -19.1760   18.4050 C.3       1 TRH500      0.0000 
     22 O4'       -13.1180  -19.7880   18.9100 O.3       1 TRH500      0.0000 
     23 C3'       -12.1520  -17.6680   18.4030 C.3       1 TRH500      0.0000 
     24 O3'       -12.5360  -17.2710   17.0890 O.3       1 TRH500      0.0000 
     25 C2'       -13.2800  -17.4900   19.4140 C.3       1 TRH500      0.0000 
     26 C1'       -14.0430  -18.8030   19.3400 C.3       1 TRH500      0.0000 
     27 N11       -14.5910  -19.2390   20.6400 N.am      1 TRH500      0.0000 
     28 C21       -15.9240  -19.5800   20.7070 C.2       1 TRH500      0.0000 
     29 O21       -16.6780  -19.4830   19.7560 O.2       1 TRH500      0.0000 
     30 N31       -16.3430  -20.0450   21.9300 N.am      1 TRH500      0.0000 
     31 C41       -15.5750  -20.1980   23.0710 C.2       1 TRH500      0.0000 
     32 O41       -16.0820  -20.6480   24.1000 O.2       1 TRH500      0.0000 
     33 C51       -14.1830  -19.8190   22.9320 C.2       1 TRH500      0.0000 
     34 C5A       -13.2540  -19.9990   24.1090 C.3       1 TRH500      0.0000 
     35 C61       -13.7720  -19.3560   21.7420 C.2       1 TRH500      0.0000 
@<TRIPOS>BOND
     1    1    2 ar   
     2    2    3 ar   
     3    2    4 1    
     4    2   15 1    
     5    4    5 1    
     6    5    6 1    
     7    5   13 1    
     8    6    7 1    
     9    6    8 1    
    10    8    9 1    
    11    8   10 1    
    12   10   11 1    
    13   10   12 1    
    14   12   13 1    
    15   12   14 1    
    16   15   16 1    
    17   16   17 ar   
    18   16   18 ar   
    19   16   19 1    
    20   19   20 1    
    21   20   21 1    
    22   21   22 1    
    23   21   23 1    
    24   22   26 1    
    25   23   24 1    
    26   23   25 1    
    27   25   26 1    
    28   26   27 1    
    29   27   28 1    
    30   27   35 1    
    31   28   29 2    
    32   28   30 1    
    33   30   31 1    
    34   31   32 2    
    35   31   33 1    
    36   33   34 1    
    37   33   35 2    
@<TRIPOS>SUBSTRUCTURE
     1 TRH500      1 GROUP   
@<TRIPOS>SET

