#    Name: 6n0u_2_TRH_CAVITY_N1_8
#    Modification time : Fri May 22 19:37:34 2020

@<TRIPOS>MOLECULE
6n0u_2_TRH_CAVITY_N1_8
   73     0     7     0     0
SMALL
NO_CHARGES


@<TRIPOS>ATOM
      1 OG         18.3700   -5.2000   60.4000 O.3       1 SER1        0.0000 
      2 OG         17.9900   -3.8500   61.9900 O.3       1 SER1        0.0000 
      3 OG         19.2200   -4.4900   61.4100 O.3       1 SER1        0.0000 
      4 N          16.9900   -5.7200   61.9200 N.am      2 ALA2        0.0000 
      5 N          18.2200   -6.3600   61.3400 N.am      2 ALA2        0.0000 
      6 O          17.8400   -5.0100   62.9400 O.2       2 ALA2        0.0000 
      7 N          25.6700    1.7200   60.5300 N.am      2 ALA2        0.0000 
      8 O          24.6000    3.5200   60.1600 O.2       2 ALA2        0.0000 
      9 N          22.6800    3.1900   64.2200 N.am      2 ALA2        0.0000 
     10 N          23.9100    2.5500   63.6400 N.am      2 ALA2        0.0000 
     11 N          25.1400    1.9200   63.0600 N.am      2 ALA2        0.0000 
     12 N          26.3700    1.2800   62.4800 N.am      2 ALA2        0.0000 
     13 N          24.0600    3.7100   62.7000 N.am      2 ALA2        0.0000 
     14 N          25.2900    3.0700   62.1200 N.am      2 ALA2        0.0000 
     15 N          26.5200    2.4400   61.5400 N.am      2 ALA2        0.0000 
     16 N          24.2100    4.8600   61.7500 N.am      2 ALA2        0.0000 
     17 N          24.6000    2.1100   65.5900 N.am      2 ALA2        0.0000 
     18 N          23.5200    3.9000   65.2300 N.am      2 ALA2        0.0000 
     19 N          24.7500    3.2700   64.6500 N.am      2 ALA2        0.0000 
     20 OD1        19.5300   -3.5800   64.9600 O.co2     3 ASP3        0.0000 
     21 OD1        20.7600   -4.2100   64.3800 O.co2     3 ASP3        0.0000 
     22 OD1        18.4500   -1.7900   64.5900 O.co2     3 ASP3        0.0000 
     23 OD1        19.6800   -2.4200   64.0200 O.co2     3 ASP3        0.0000 
     24 OD1        21.6100   -3.5000   65.3900 O.co2     3 ASP3        0.0000 
     25 OD1        20.5300   -1.7100   65.0300 O.co2     3 ASP3        0.0000 
     26 OD1        21.7600   -2.3400   64.4500 O.co2     3 ASP3        0.0000 
     27 OD1        21.3800   -0.9900   66.0400 O.co2     3 ASP3        0.0000 
     28 OD1        22.6100   -1.6300   65.4600 O.co2     3 ASP3        0.0000 
     29 NZ         16.6100   -4.3700   63.5200 N.4       4 LYS4        0.0000 
     30 NZ         18.5300   -5.4500   64.8900 N.4       4 LYS4        0.0000 
     31 NZ         17.4600   -3.6600   64.5300 N.4       4 LYS4        0.0000 
     32 NZ         18.6900   -4.2900   63.9500 N.4       4 LYS4        0.0000 
     33 NZ         17.6100   -2.5000   63.5800 N.4       4 LYS4        0.0000 
     34 NZ         24.5200   -1.3000   61.4000 N.4       4 LYS4        0.0000 
     35 NZ         24.6700   -0.1500   60.4600 N.4       4 LYS4        0.0000 
     36 NZ         21.5300    0.1600   65.0900 N.4       4 LYS4        0.0000 
     37 NZ         26.7500   -0.0700   60.8900 N.4       4 LYS4        0.0000 
     38 NZ         22.5300    2.0300   65.1600 N.4       4 LYS4        0.0000 
     39 CZ         19.0700   -5.6400   62.3600 C.ar      5 PHE5        0.0000 
     40 CZ         19.9100   -4.9300   63.3700 C.ar      5 PHE5        0.0000 
     41 CA         18.8400   -3.1400   63.0000 C.3       6 GLY6        0.0000 
     42 CA         20.2200   -2.6200   61.4800 C.3       6 GLY6        0.0000 
     43 CA         19.8400   -1.2700   63.0700 C.3       6 GLY6        0.0000 
     44 CA         21.0700   -1.9000   62.4900 C.3       6 GLY6        0.0000 
     45 CA         22.2900   -2.5400   61.9100 C.3       6 GLY6        0.0000 
     46 CA         22.4500   -1.3800   60.9700 C.3       6 GLY6        0.0000 
     47 CA         23.6800   -2.0200   60.3900 C.3       6 GLY6        0.0000 
     48 CA         20.6800   -0.5500   64.0800 C.3       6 GLY6        0.0000 
     49 CA         21.9100   -1.1900   63.5000 C.3       6 GLY6        0.0000 
     50 CA         23.2900   -0.6700   61.9800 C.3       6 GLY6        0.0000 
     51 CA         23.4400    0.4900   61.0400 C.3       6 GLY6        0.0000 
     52 CA         22.3700    2.2800   60.6700 C.3       6 GLY6        0.0000 
     53 CA         23.6000    1.6400   60.0900 C.3       6 GLY6        0.0000 
     54 CA         21.6800    1.3200   64.1500 C.3       6 GLY6        0.0000 
     55 CA         22.9100    0.6800   63.5700 C.3       6 GLY6        0.0000 
     56 CA         21.8300    2.4700   63.2100 C.3       6 GLY6        0.0000 
     57 CA         23.0600    1.8400   62.6300 C.3       6 GLY6        0.0000 
     58 CA         21.9800    3.6300   62.2600 C.3       6 GLY6        0.0000 
     59 CA         23.2100    2.9900   61.6800 C.3       6 GLY6        0.0000 
     60 CA         23.3700    4.1500   60.7400 C.3       6 GLY6        0.0000 
     61 CA         22.8300    4.3400   63.2800 C.3       6 GLY6        0.0000 
     62 CA         25.4400    4.2300   61.1700 C.3       6 GLY6        0.0000 
     63 DU         20.0700   -3.7700   62.4200 H         7 CUB7        0.0000 
     64 DU         20.9100   -3.0600   63.4400 H         7 CUB7        0.0000 
     65 DU         22.9900   -2.9800   63.8700 H         7 CUB7        0.0000 
     66 DU         23.1400   -1.8200   62.9200 H         7 CUB7        0.0000 
     67 DU         22.7600   -0.4700   64.5200 H         7 CUB7        0.0000 
     68 DU         24.1400    0.0500   62.9900 H         7 CUB7        0.0000 
     69 DU         25.3700   -0.5900   62.4100 H         7 CUB7        0.0000 
     70 DU         24.2900    1.2000   62.0500 H         7 CUB7        0.0000 
     71 DU         25.5200    0.5700   61.4700 H         7 CUB7        0.0000 
     72 DU         24.4400    2.3600   61.1000 H         7 CUB7        0.0000 
     73 DU         23.7600    1.4000   64.5800 H         7 CUB7        0.0000 
@<TRIPOS>BOND
@<TRIPOS>SUBSTRUCTURE
     1 SER1        1 GROUP   
     2 ALA2        4 GROUP   
     3 ASP3       20 GROUP   
     4 LYS4       29 GROUP   
     5 PHE5       39 GROUP   
     6 GLY6       41 GROUP   
     7 CUB7       63 GROUP   
@<TRIPOS>SET

