#    Name: 6n0u_1_TRH
#    Modification time : Fri May 22 19:37:29 2020

@<TRIPOS>MOLECULE
6n0u_1_TRH
   35    37     1     0     0
SMALL
NO_CHARGES


@<TRIPOS>ATOM
      1 O4P        35.1900  -36.3840   31.9350 O.co2     1 TRH500      0.0000 
      2 P2         35.9210  -35.4030   32.8620 P.3       1 TRH500      0.0000 
      3 O3P        37.2450  -35.0470   32.3090 O.co2     1 TRH500      0.0000 
      4 O1         35.0780  -34.0170   33.0040 O.3       1 TRH500      0.0000 
      5 C1         33.7110  -34.0140   32.8220 C.3       1 TRH500      0.0000 
      6 C2         33.3400  -33.5670   31.4160 C.3       1 TRH500      0.0000 
      7 O2         34.0930  -32.4040   31.0680 O.3       1 TRH500      0.0000 
      8 C3         31.8560  -33.2370   31.3570 C.3       1 TRH500      0.0000 
      9 O3         31.5450  -32.7500   30.0510 O.3       1 TRH500      0.0000 
     10 C4         31.4750  -32.2210   32.4400 C.3       1 TRH500      0.0000 
     11 O4         30.0660  -32.0430   32.4540 O.3       1 TRH500      0.0000 
     12 C5         31.9180  -32.7730   33.7950 C.3       1 TRH500      0.0000 
     13 O5         33.3380  -33.0180   33.7590 O.3       1 TRH500      0.0000 
     14 C6         31.6390  -31.8930   34.9950 C.3       1 TRH500      0.0000 
     15 OPP        36.0800  -36.1830   34.2360 O.3       1 TRH500      0.0000 
     16 P          37.1080  -35.9690   35.4330 P.3       1 TRH500      0.0000 
     17 O1P        37.1950  -34.4250   35.6710 O.co2     1 TRH500      0.0000 
     18 O2P        38.4370  -36.5150   35.0270 O.co2     1 TRH500      0.0000 
     19 O5'        36.5130  -36.6570   36.6680 O.3       1 TRH500      0.0000 
     20 C5'        35.2790  -36.2180   37.2760 C.3       1 TRH500      0.0000 
     21 C4'        35.0560  -36.9620   38.5680 C.3       1 TRH500      0.0000 
     22 O4'        34.5510  -38.2890   38.2890 O.3       1 TRH500      0.0000 
     23 C3'        36.3040  -37.1550   39.4370 C.3       1 TRH500      0.0000 
     24 O3'        35.9480  -37.0910   40.8250 O.3       1 TRH500      0.0000 
     25 C2'        36.7700  -38.5510   39.0370 C.3       1 TRH500      0.0000 
     26 C1'        35.4620  -39.2780   38.7550 C.3       1 TRH500      0.0000 
     27 N11        35.5860  -40.3060   37.7010 N.am      1 TRH500      0.0000 
     28 C21        35.1920  -41.6030   37.9720 C.2       1 TRH500      0.0000 
     29 O21        34.9080  -41.9930   39.0940 O.2       1 TRH500      0.0000 
     30 N31        35.2340  -42.4540   36.9020 N.am      1 TRH500      0.0000 
     31 C41        35.6500  -42.1570   35.6210 C.2       1 TRH500      0.0000 
     32 O41        35.5340  -42.9910   34.7330 O.2       1 TRH500      0.0000 
     33 C51        36.1080  -40.7960   35.4190 C.2       1 TRH500      0.0000 
     34 C5A        36.5610  -40.3840   34.0520 C.3       1 TRH500      0.0000 
     35 C61        36.0460  -39.9510   36.4560 C.2       1 TRH500      0.0000 
@<TRIPOS>BOND
     1    1    2 ar   
     2    2    3 ar   
     3    2    4 1    
     4    2   15 1    
     5    4    5 1    
     6    5    6 1    
     7    5   13 1    
     8    6    7 1    
     9    6    8 1    
    10    8    9 1    
    11    8   10 1    
    12   10   11 1    
    13   10   12 1    
    14   12   13 1    
    15   12   14 1    
    16   15   16 1    
    17   16   17 ar   
    18   16   18 ar   
    19   16   19 1    
    20   19   20 1    
    21   20   21 1    
    22   21   22 1    
    23   21   23 1    
    24   22   26 1    
    25   23   24 1    
    26   23   25 1    
    27   25   26 1    
    28   26   27 1    
    29   27   28 1    
    30   27   35 1    
    31   28   29 2    
    32   28   30 1    
    33   30   31 1    
    34   31   32 2    
    35   31   33 1    
    36   33   34 1    
    37   33   35 2    
@<TRIPOS>SUBSTRUCTURE
     1 TRH500      1 GROUP   
@<TRIPOS>SET

