#    Name: 6n0u_4_TRH
#    Modification time : Fri May 22 19:37:39 2020

@<TRIPOS>MOLECULE
6n0u_4_TRH
   35    37     1     0     0
SMALL
NO_CHARGES


@<TRIPOS>ATOM
      1 O4P       -23.7600    6.8280   -8.8950 O.co2     1 TRH500      0.0000 
      2 P2        -22.7490    5.7050   -8.8980 P.3       1 TRH500      0.0000 
      3 O3P       -23.0500    4.8170  -10.0440 O.co2     1 TRH500      0.0000 
      4 O1        -21.2640    6.3670   -8.9230 O.3       1 TRH500      0.0000 
      5 C1        -21.0580    7.6860   -8.4900 C.3       1 TRH500      0.0000 
      6 C2        -21.1410    8.6790   -9.6420 C.3       1 TRH500      0.0000 
      7 O2        -20.4150    8.1920  -10.7620 O.3       1 TRH500      0.0000 
      8 C3        -20.6000   10.0390   -9.2140 C.3       1 TRH500      0.0000 
      9 O3        -20.5010   10.8880  -10.3530 O.3       1 TRH500      0.0000 
     10 C4        -19.2290    9.9150   -8.5580 C.3       1 TRH500      0.0000 
     11 O4        -18.8430   11.1750   -8.0210 O.3       1 TRH500      0.0000 
     12 C5        -19.2630    8.8670   -7.4510 C.3       1 TRH500      0.0000 
     13 O5        -19.7320    7.6190   -7.9970 O.3       1 TRH500      0.0000 
     14 C6        -17.9130    8.5940   -6.8300 C.3       1 TRH500      0.0000 
     15 OPP       -22.9990    4.9040   -7.5480 O.3       1 TRH500      0.0000 
     16 P         -22.5600    3.4560   -7.0570 P.3       1 TRH500      0.0000 
     17 O1P       -21.1300    3.2620   -7.5280 O.co2     1 TRH500      0.0000 
     18 O2P       -23.4390    2.4180   -7.6420 O.co2     1 TRH500      0.0000 
     19 O5'       -22.6340    3.6000   -5.4610 O.3       1 TRH500      0.0000 
     20 C5'       -21.6380    4.2790   -4.6680 C.3       1 TRH500      0.0000 
     21 C4'       -21.7450    3.8210   -3.2340 C.3       1 TRH500      0.0000 
     22 O4'       -22.9130    4.4110   -2.6270 O.3       1 TRH500      0.0000 
     23 C3'       -21.8800    2.3110   -3.0400 C.3       1 TRH500      0.0000 
     24 O3'       -21.2230    1.8900   -1.8460 O.3       1 TRH500      0.0000 
     25 C2'       -23.3830    2.1140   -2.9120 C.3       1 TRH500      0.0000 
     26 C1'       -23.8480    3.4070   -2.2620 C.3       1 TRH500      0.0000 
     27 N11       -25.1740    3.8440   -2.7150 N.am      1 TRH500      0.0000 
     28 C21       -26.1750    3.9550   -1.7760 C.2       1 TRH500      0.0000 
     29 O21       -26.0170    3.6830   -0.5970 O.2       1 TRH500      0.0000 
     30 N31       -27.3820    4.3770   -2.2710 N.am      1 TRH500      0.0000 
     31 C41       -27.6840    4.6770   -3.5840 C.2       1 TRH500      0.0000 
     32 O41       -28.8180    5.0420   -3.8880 O.2       1 TRH500      0.0000 
     33 C51       -26.5930    4.5270   -4.5200 C.2       1 TRH500      0.0000 
     34 C5A       -26.8480    4.7810   -5.9750 C.3       1 TRH500      0.0000 
     35 C61       -25.4030    4.1310   -4.0420 C.2       1 TRH500      0.0000 
@<TRIPOS>BOND
     1    1    2 ar   
     2    2    3 ar   
     3    2    4 1    
     4    2   15 1    
     5    4    5 1    
     6    5    6 1    
     7    5   13 1    
     8    6    7 1    
     9    6    8 1    
    10    8    9 1    
    11    8   10 1    
    12   10   11 1    
    13   10   12 1    
    14   12   13 1    
    15   12   14 1    
    16   15   16 1    
    17   16   17 ar   
    18   16   18 ar   
    19   16   19 1    
    20   19   20 1    
    21   20   21 1    
    22   21   22 1    
    23   21   23 1    
    24   22   26 1    
    25   23   24 1    
    26   23   25 1    
    27   25   26 1    
    28   26   27 1    
    29   27   28 1    
    30   27   35 1    
    31   28   29 2    
    32   28   30 1    
    33   30   31 1    
    34   31   32 2    
    35   31   33 1    
    36   33   34 1    
    37   33   35 2    
@<TRIPOS>SUBSTRUCTURE
     1 TRH500      1 GROUP   
@<TRIPOS>SET

