#    Name: 6n0u_2_TRH
#    Modification time : Fri May 22 19:37:32 2020

@<TRIPOS>MOLECULE
6n0u_2_TRH
   35    37     1     0     0
SMALL
NO_CHARGES


@<TRIPOS>ATOM
      1 O4P        19.4710   -0.9540   64.8650 O.co2     1 TRH500      0.0000 
      2 P2         20.6370   -2.0110   64.8210 P.3       1 TRH500      0.0000 
      3 O3P        21.1080   -2.3970   66.1430 O.co2     1 TRH500      0.0000 
      4 O1         20.2120   -3.3480   64.0190 O.3       1 TRH500      0.0000 
      5 C1         19.1310   -3.3710   63.1600 C.3       1 TRH500      0.0000 
      6 C2         17.8390   -3.8550   63.8070 C.3       1 TRH500      0.0000 
      7 O2         18.0710   -5.0220   64.6040 O.3       1 TRH500      0.0000 
      8 C3         16.8280   -4.1810   62.7220 C.3       1 TRH500      0.0000 
      9 O3         15.6290   -4.6890   63.3050 O.3       1 TRH500      0.0000 
     10 C4         17.4120   -5.1840   61.7260 C.3       1 TRH500      0.0000 
     11 O4         16.5060   -5.3280   60.6430 O.3       1 TRH500      0.0000 
     12 C5         18.7390   -4.6480   61.1830 C.3       1 TRH500      0.0000 
     13 O5         19.6230   -4.3690   62.2840 O.3       1 TRH500      0.0000 
     14 C6         19.4740   -5.6010   60.2680 C.3       1 TRH500      0.0000 
     15 OPP        21.7940   -1.2660   64.0280 O.3       1 TRH500      0.0000 
     16 P          23.3550   -1.4860   64.2410 P.3       1 TRH500      0.0000 
     17 O1P        23.6000   -3.0310   64.1460 O.co2     1 TRH500      0.0000 
     18 O2P        23.8150   -0.9450   65.5540 O.co2     1 TRH500      0.0000 
     19 O5'        23.9700   -0.7810   63.0010 O.3       1 TRH500      0.0000 
     20 C5'        23.7310   -1.3030   61.6860 C.3       1 TRH500      0.0000 
     21 C4'        24.5860   -0.5570   60.7050 C.3       1 TRH500      0.0000 
     22 O4'        24.0400    0.7640   60.4700 O.3       1 TRH500      0.0000 
     23 C3'        26.0120   -0.3370   61.2030 C.3       1 TRH500      0.0000 
     24 O3'        26.8850   -0.3440   60.0750 O.3       1 TRH500      0.0000 
     25 C2'        25.9370    1.0460   61.8460 C.3       1 TRH500      0.0000 
     26 C1'        24.9260    1.7670   60.9680 C.3       1 TRH500      0.0000 
     27 N11        24.1110    2.7930   61.6790 N.am      1 TRH500      0.0000 
     28 C21        24.0910    4.0770   61.1710 C.2       1 TRH500      0.0000 
     29 O21        24.7600    4.4300   60.1960 O.2       1 TRH500      0.0000 
     30 N31        23.2670    4.9470   61.8440 N.am      1 TRH500      0.0000 
     31 C41        22.4850    4.6700   62.9500 C.2       1 TRH500      0.0000 
     32 O41        21.7380    5.5240   63.3870 O.2       1 TRH500      0.0000 
     33 C51        22.5870    3.3160   63.4550 C.2       1 TRH500      0.0000 
     34 C5A        21.7840    2.9250   64.6620 C.3       1 TRH500      0.0000 
     35 C61        23.3810    2.4540   62.7960 C.2       1 TRH500      0.0000 
@<TRIPOS>BOND
     1    1    2 ar   
     2    2    3 ar   
     3    2    4 1    
     4    2   15 1    
     5    4    5 1    
     6    5    6 1    
     7    5   13 1    
     8    6    7 1    
     9    6    8 1    
    10    8    9 1    
    11    8   10 1    
    12   10   11 1    
    13   10   12 1    
    14   12   13 1    
    15   12   14 1    
    16   15   16 1    
    17   16   17 ar   
    18   16   18 ar   
    19   16   19 1    
    20   19   20 1    
    21   20   21 1    
    22   21   22 1    
    23   21   23 1    
    24   22   26 1    
    25   23   24 1    
    26   23   25 1    
    27   25   26 1    
    28   26   27 1    
    29   27   28 1    
    30   27   35 1    
    31   28   29 2    
    32   28   30 1    
    33   30   31 1    
    34   31   32 2    
    35   31   33 1    
    36   33   34 1    
    37   33   35 2    
@<TRIPOS>SUBSTRUCTURE
     1 TRH500      1 GROUP   
@<TRIPOS>SET

