#    Name: 6n0u_1_TRH_CAVITY_N1_6
#    Modification time : Fri May 22 19:37:30 2020

@<TRIPOS>MOLECULE
6n0u_1_TRH_CAVITY_N1_6
   73     0     7     0     0
SMALL
NO_CHARGES


@<TRIPOS>ATOM
      1 OG         31.5700  -32.9200   33.3500 O.3       1 SER1        0.0000 
      2 OG         32.8000  -33.5500   32.7700 O.3       1 SER1        0.0000 
      3 OG         40.0300  -39.9200   35.6700 O.3       1 SER1        0.0000 
      4 N          37.1100  -40.7200   34.2300 N.am      2 ALA2        0.0000 
      5 N          31.7300  -31.7600   32.4100 N.am      2 ALA2        0.0000 
      6 O          32.9500  -32.4000   31.8300 O.2       2 ALA2        0.0000 
      7 O          35.1900  -41.0400   38.2900 O.2       2 ALA2        0.0000 
      8 O          36.4200  -41.6800   37.7100 O.2       2 ALA2        0.0000 
      9 N          39.1900  -40.6400   34.6600 N.am      2 ALA2        0.0000 
     10 N          34.8100  -39.6900   39.8800 N.am      2 ALA2        0.0000 
     11 N          36.0400  -40.3300   39.3000 N.am      2 ALA2        0.0000 
     12 N          37.0400  -38.4600   39.3700 N.am      2 ALA2        0.0000 
     13 OD1        35.2600  -34.8200   31.6100 O.co2     3 ASP3        0.0000 
     14 OD1        37.1800  -35.9000   32.9900 O.co2     3 ASP3        0.0000 
     15 OD1        34.8800  -33.4700   33.2100 O.co2     3 ASP3        0.0000 
     16 OD1        36.1100  -34.1100   32.6300 O.co2     3 ASP3        0.0000 
     17 OD1        35.0300  -32.3200   32.2600 O.co2     3 ASP3        0.0000 
     18 NZ         33.1900  -34.9000   31.1800 N.4       4 LYS4        0.0000 
     19 NZ         32.1100  -33.1100   30.8200 N.4       4 LYS4        0.0000 
     20 NZ         36.1900  -37.7700   32.9200 N.4       4 LYS4        0.0000 
     21 NZ         34.0300  -34.1900   32.1900 N.4       4 LYS4        0.0000 
     22 NZ         34.1800  -33.0300   31.2500 N.4       4 LYS4        0.0000 
     23 NZ         37.0300  -37.0600   33.9300 N.4       4 LYS4        0.0000 
     24 NZ         35.8100  -37.8200   39.9500 N.4       4 LYS4        0.0000 
     25 NZ         35.9600  -36.6700   39.0000 N.4       4 LYS4        0.0000 
     26 NZ         36.1100  -35.5100   38.0600 N.4       4 LYS4        0.0000 
     27 CZ         32.4200  -32.2000   34.3600 C.ar      5 PHE5        0.0000 
     28 CZ         33.6500  -32.8400   33.7800 C.ar      5 PHE5        0.0000 
     29 CZ         33.8000  -31.6800   32.8400 C.ar      5 PHE5        0.0000 
     30 CA         33.0300  -36.0600   32.1300 C.3       6 GLY6        0.0000 
     31 CA         31.9600  -34.2700   31.7600 C.3       6 GLY6        0.0000 
     32 CA         34.3500  -41.7600   37.2800 C.3       6 GLY6        0.0000 
     33 CA         34.5000  -40.6000   36.3300 C.3       6 GLY6        0.0000 
     34 CA         36.9600  -41.8700   35.1700 C.3       6 GLY6        0.0000 
     35 CA         35.8800  -40.0800   34.8100 C.3       6 GLY6        0.0000 
     36 CA         36.0300  -38.9300   33.8700 C.3       6 GLY6        0.0000 
     37 CA         32.6500  -34.7100   33.7200 C.3       6 GLY6        0.0000 
     38 CA         33.8800  -35.3400   33.1400 C.3       6 GLY6        0.0000 
     39 CA         35.1100  -35.9800   32.5600 C.3       6 GLY6        0.0000 
     40 CA         33.9600  -40.4100   38.8700 C.3       6 GLY6        0.0000 
     41 CA         34.1200  -39.2500   37.9200 C.3       6 GLY6        0.0000 
     42 CA         35.3500  -39.8900   37.3400 C.3       6 GLY6        0.0000 
     43 CA         36.5700  -40.5200   36.7600 C.3       6 GLY6        0.0000 
     44 CA         37.8000  -41.1600   36.1900 C.3       6 GLY6        0.0000 
     45 CA         34.2700  -38.1000   36.9800 C.3       6 GLY6        0.0000 
     46 CA         35.5000  -38.7300   36.4000 C.3       6 GLY6        0.0000 
     47 CA         34.4200  -36.9400   36.0400 C.3       6 GLY6        0.0000 
     48 CA         35.6500  -37.5800   35.4600 C.3       6 GLY6        0.0000 
     49 CA         36.8800  -38.2100   34.8800 C.3       6 GLY6        0.0000 
     50 CA         34.5700  -35.7900   35.0900 C.3       6 GLY6        0.0000 
     51 CA         35.8000  -36.4200   34.5100 C.3       6 GLY6        0.0000 
     52 CA         32.2700  -33.3600   35.3100 C.3       6 GLY6        0.0000 
     53 CA         33.5000  -33.9900   34.7300 C.3       6 GLY6        0.0000 
     54 CA         36.1900  -39.1700   38.3600 C.3       6 GLY6        0.0000 
     55 CA         37.4200  -39.8100   37.7800 C.3       6 GLY6        0.0000 
     56 CA         35.1100  -37.3800   37.9900 C.3       6 GLY6        0.0000 
     57 CA         35.2700  -36.2300   37.0500 C.3       6 GLY6        0.0000 
     58 CA         35.4200  -35.0700   36.1000 C.3       6 GLY6        0.0000 
     59 DU         35.7300  -41.2400   35.7500 H         7 CUB7        0.0000 
     60 DU         36.7300  -39.3700   35.8200 H         7 CUB7        0.0000 
     61 DU         37.9600  -40.0000   35.2400 H         7 CUB7        0.0000 
     62 DU         34.7300  -34.6300   34.1500 H         7 CUB7        0.0000 
     63 DU         35.9500  -35.2600   33.5700 H         7 CUB7        0.0000 
     64 DU         34.9600  -38.5400   38.9400 H         7 CUB7        0.0000 
     65 DU         36.3400  -38.0200   37.4100 H         7 CUB7        0.0000 
     66 DU         37.5700  -38.6500   36.8300 H         7 CUB7        0.0000 
     67 DU         38.8000  -39.2900   36.2500 H         7 CUB7        0.0000 
     68 DU         36.5000  -36.8600   36.4700 H         7 CUB7        0.0000 
     69 DU         36.6500  -35.7100   35.5200 H         7 CUB7        0.0000 
     70 DU         36.8000  -34.5500   34.5800 H         7 CUB7        0.0000 
     71 DU         37.1900  -37.3000   38.4200 H         7 CUB7        0.0000 
     72 DU         38.4200  -37.9400   37.8400 H         7 CUB7        0.0000 
     73 DU         37.3400  -36.1500   37.4800 H         7 CUB7        0.0000 
@<TRIPOS>BOND
@<TRIPOS>SUBSTRUCTURE
     1 SER1        1 GROUP   
     2 ALA2        4 GROUP   
     3 ASP3       13 GROUP   
     4 LYS4       18 GROUP   
     5 PHE5       27 GROUP   
     6 GLY6       30 GROUP   
     7 CUB7       59 GROUP   
@<TRIPOS>SET

