#    Name: 6fjf_2_GDP_CAVITY_N1_6
#    Modification time : Fri May 22 19:25:01 2020

@<TRIPOS>MOLECULE
6fjf_2_GDP_CAVITY_N1_6
   18     0     6     0     0
SMALL
NO_CHARGES


@<TRIPOS>ATOM
      1 OG          6.6500   45.9000   17.7100 O.3       1 SER1        0.0000 
      2 O           9.4400   51.2800   13.0400 O.2       2 ALA2        0.0000 
      3 O          10.2300   49.4900   13.8700 O.2       2 ALA2        0.0000 
      4 N           9.5700   51.9500   14.3700 N.am      2 ALA2        0.0000 
      5 N           8.1900   52.5300   14.2100 N.am      2 ALA2        0.0000 
      6 N           8.3200   53.2000   15.5500 N.am      2 ALA2        0.0000 
      7 NZ         10.3200   45.8200   14.0300 N.4       3 LYS4        0.0000 
      8 NZ          7.9000   44.6500   16.5300 N.4       3 LYS4        0.0000 
      9 CZ          9.5200   47.6100   13.2000 C.ar      4 PHE5        0.0000 
     10 CZ          8.8600   50.0700   13.7100 C.ar      4 PHE5        0.0000 
     11 CZ          7.4800   50.6400   13.5500 C.ar      4 PHE5        0.0000 
     12 CZ          9.6500   48.2800   14.5300 C.ar      4 PHE5        0.0000 
     13 CZ         10.3600   50.1700   15.2000 C.ar      4 PHE5        0.0000 
     14 CA          6.8100   53.1000   14.0500 C.3       5 GLY6        0.0000 
     15 CA          6.2300   51.8900   14.7200 C.3       5 GLY6        0.0000 
     16 CA          6.0700   44.6900   18.3800 C.3       5 GLY6        0.0000 
     17 CA          5.4000   47.1500   18.8800 C.3       5 GLY6        0.0000 
     18 DU          8.0600   51.8500   12.8800 H         6 CUB7        0.0000 
@<TRIPOS>BOND
@<TRIPOS>SUBSTRUCTURE
     1 SER1        1 GROUP   
     2 ALA2        2 GROUP   
     3 LYS4        7 GROUP   
     4 PHE5        9 GROUP   
     5 GLY6       14 GROUP   
     6 CUB7       18 GROUP   
@<TRIPOS>SET

