#    Name: 6fjf_2_GDP_CAVITY_N1_8
#    Modification time : Fri May 22 19:25:01 2020

@<TRIPOS>MOLECULE
6fjf_2_GDP_CAVITY_N1_8
   61     0     6     0     0
SMALL
NO_CHARGES


@<TRIPOS>ATOM
      1 OG          6.5200   45.2200   16.3700 O.3       1 SER1        0.0000 
      2 OG          6.6500   45.9000   17.7100 O.3       1 SER1        0.0000 
      3 N           8.6000   48.7200   11.0400 N.am      2 ALA2        0.0000 
      4 N           8.0200   47.5100   11.7100 N.am      2 ALA2        0.0000 
      5 N           7.6500   43.3000   13.8700 N.am      2 ALA2        0.0000 
      6 O           9.3100   50.6000   11.7000 O.2       2 ALA2        0.0000 
      7 N           7.9400   51.1800   11.5400 N.am      2 ALA2        0.0000 
      8 O           8.7300   49.3900   12.3700 O.2       2 ALA2        0.0000 
      9 N           7.3500   49.9700   12.2100 N.am      2 ALA2        0.0000 
     10 N           7.1900   42.7700   15.8700 N.am      2 ALA2        0.0000 
     11 N           6.6100   41.5600   16.5300 N.am      2 ALA2        0.0000 
     12 O           9.4400   51.2800   13.0400 O.2       2 ALA2        0.0000 
     13 O          10.2300   49.4900   13.8700 O.2       2 ALA2        0.0000 
     14 N           5.9400   44.0100   17.0400 N.am      2 ALA2        0.0000 
     15 N           5.3600   42.8000   17.7100 N.am      2 ALA2        0.0000 
     16 N           9.5700   51.9500   14.3700 N.am      2 ALA2        0.0000 
     17 N           8.1900   52.5300   14.2100 N.am      2 ALA2        0.0000 
     18 O           4.4800   48.2600   16.7200 O.2       2 ALA2        0.0000 
     19 N           3.9000   47.0500   17.3900 N.am      2 ALA2        0.0000 
     20 N           3.3100   45.8400   18.0600 N.am      2 ALA2        0.0000 
     21 N           4.1100   44.0500   18.8800 N.am      2 ALA2        0.0000 
     22 N           4.9000   42.2700   19.7100 N.am      2 ALA2        0.0000 
     23 N           8.3200   53.2000   15.5500 N.am      2 ALA2        0.0000 
     24 N           4.0200   47.7200   18.7200 N.am      2 ALA2        0.0000 
     25 N           3.4400   46.5100   19.3900 N.am      2 ALA2        0.0000 
     26 NZ         10.1900   45.1500   12.6900 N.4       3 LYS4        0.0000 
     27 NZ          9.6100   43.9400   13.3600 N.4       3 LYS4        0.0000 
     28 NZ         10.3200   45.8200   14.0300 N.4       3 LYS4        0.0000 
     29 NZ          8.3600   45.1900   14.5300 N.4       3 LYS4        0.0000 
     30 NZ          7.7700   43.9800   15.2000 N.4       3 LYS4        0.0000 
     31 NZ          7.9000   44.6500   16.5300 N.4       3 LYS4        0.0000 
     32 CZ          9.5200   47.6100   13.2000 C.ar      4 PHE5        0.0000 
     33 CZ          8.1500   48.1800   13.0400 C.ar      4 PHE5        0.0000 
     34 CZ          6.7700   48.7600   12.8800 C.ar      4 PHE5        0.0000 
     35 CZ          8.9400   46.4000   13.8700 C.ar      4 PHE5        0.0000 
     36 CZ          7.5600   46.9700   13.7100 C.ar      4 PHE5        0.0000 
     37 CZ          6.1900   47.5500   13.5500 C.ar      4 PHE5        0.0000 
     38 CZ          6.9800   45.7600   14.3700 C.ar      4 PHE5        0.0000 
     39 CZ          8.8600   50.0700   13.7100 C.ar      4 PHE5        0.0000 
     40 CZ          7.4800   50.6400   13.5500 C.ar      4 PHE5        0.0000 
     41 CZ          6.1000   51.2200   13.3900 C.ar      4 PHE5        0.0000 
     42 CZ          9.6500   48.2800   14.5300 C.ar      4 PHE5        0.0000 
     43 CZ          5.5200   50.0100   14.0500 C.ar      4 PHE5        0.0000 
     44 CZ          5.7300   47.0100   15.5500 C.ar      4 PHE5        0.0000 
     45 CZ          5.1500   45.8000   16.2100 C.ar      4 PHE5        0.0000 
     46 CZ         10.3600   50.1700   15.2000 C.ar      4 PHE5        0.0000 
     47 CZ          5.2700   46.4700   17.5500 C.ar      4 PHE5        0.0000 
     48 CA          8.8100   45.7200   12.5300 C.3       5 GLY6        0.0000 
     49 CA          8.2300   44.5100   13.2000 C.3       5 GLY6        0.0000 
     50 CA          6.8100   53.1000   14.0500 C.3       5 GLY6        0.0000 
     51 CA          6.2300   51.8900   14.7200 C.3       5 GLY6        0.0000 
     52 CA          6.0700   44.6900   18.3800 C.3       5 GLY6        0.0000 
     53 CA          4.6900   45.2600   18.2200 C.3       5 GLY6        0.0000 
     54 CA          5.4800   43.4800   19.0400 C.3       5 GLY6        0.0000 
     55 CA          5.4000   47.1500   18.8800 C.3       5 GLY6        0.0000 
     56 CA          4.2300   44.7300   20.2200 C.3       5 GLY6        0.0000 
     57 DU          9.4000   46.9300   11.8700 H         6 CUB7        0.0000 
     58 DU          6.4000   44.5500   15.0400 H         6 CUB7        0.0000 
     59 DU          5.8100   43.3400   15.7100 H         6 CUB7        0.0000 
     60 DU          8.0600   51.8500   12.8800 H         6 CUB7        0.0000 
     61 DU          4.5600   44.5900   16.8800 H         6 CUB7        0.0000 
@<TRIPOS>BOND
@<TRIPOS>SUBSTRUCTURE
     1 SER1        1 GROUP   
     2 ALA2        3 GROUP   
     3 LYS4       26 GROUP   
     4 PHE5       32 GROUP   
     5 GLY6       48 GROUP   
     6 CUB7       57 GROUP   
@<TRIPOS>SET

