#    Name: 6fjf_2_GDP
#    Modification time : Fri May 22 19:25:00 2020

@<TRIPOS>MOLECULE
6fjf_2_GDP
   28    30     1     0     1
SMALL
NO_CHARGES


@<TRIPOS>ATOM
      1 PB         18.7720   49.1550   15.8920 P.3       1 GDP501      0.0000 
      2 O1B        18.1480   50.1230   14.9130 O.co2     1 GDP501      0.0000 
      3 O2B        19.5210   49.8990   16.9730 O.co2     1 GDP501      0.0000 
      4 O3B        19.7600   48.2600   15.1780 O.co2     1 GDP501      0.0000 
      5 O3A        17.6580   48.2240   16.5870 O.3       1 GDP501      0.0000 
      6 PA         16.1810   48.7370   16.9980 P.3       1 GDP501      0.0000 
      7 O1A        15.1630   48.5010   15.9050 O.co2     1 GDP501      0.0000 
      8 O2A        16.2050   50.1830   17.4340 O.co2     1 GDP501      0.0000 
      9 O5'        15.9260   47.7990   18.2780 O.3       1 GDP501      0.0000 
     10 C5'        15.0060   46.7170   18.3000 C.3       1 GDP501      0.0000 
     11 C4'        14.4430   46.7030   19.7110 C.3       1 GDP501      0.0000 
     12 O4'        13.9860   48.0270   19.9580 O.3       1 GDP501      0.0000 
     13 C3'        13.2340   45.8060   19.8630 C.3       1 GDP501      0.0000 
     14 O3'        13.1930   45.3520   21.2190 O.3       1 GDP501      0.0000 
     15 C2'        12.0480   46.7100   19.6080 C.3       1 GDP501      0.0000 
     16 O2'        10.9360   46.3040   20.4110 O.3       1 GDP501      0.0000 
     17 C1'        12.5640   48.0590   20.0690 C.3       1 GDP501      0.0000 
     18 N9         12.0930   49.2090   19.2700 N.pl3     1 GDP501      0.0000 
     19 C8         12.3720   49.4750   17.9800 C.2       1 GDP501      0.0000 
     20 N7         11.7960   50.6420   17.5900 N.2       1 GDP501      0.0000 
     21 C5         11.1480   51.1430   18.6580 C.2       1 GDP501      0.0000 
     22 C6         10.3340   52.3370   18.9580 C.2       1 GDP501      0.0000 
     23 O6         10.1050   53.1940   18.0840 O.2       1 GDP501      0.0000 
     24 N1          9.8490   52.4800   20.1970 N.am      1 GDP501      0.0000 
     25 C2         10.0720   51.5810   21.1710 C.2       1 GDP501      0.0000 
     26 N2          9.5390   51.8030   22.3990 N.pl3     1 GDP501      0.0000 
     27 N3         10.8080   50.4590   20.9690 N.2       1 GDP501      0.0000 
     28 C4         11.3550   50.1990   19.7610 C.2       1 GDP501      0.0000 
@<TRIPOS>BOND
     1    1    2 ar   
     2    1    3 ar   
     3    1    4 ar   
     4    1    5 1    
     5    5    6 1    
     6    6    7 ar   
     7    6    8 ar   
     8    6    9 1    
     9    9   10 1    
    10   10   11 1    
    11   11   12 1    
    12   11   13 1    
    13   12   17 1    
    14   13   14 1    
    15   13   15 1    
    16   15   16 1    
    17   15   17 1    
    18   17   18 1    
    19   18   19 1    
    20   18   28 1    
    21   19   20 2    
    22   20   21 1    
    23   21   22 1    
    24   21   28 2    
    25   22   23 2    
    26   22   24 am   
    27   24   25 1    
    28   25   26 1    
    29   25   27 2    
    30   27   28 1    
@<TRIPOS>SUBSTRUCTURE
     1 GDP501      1 GROUP   
@<TRIPOS>SET
ATOM$ORANGE STATIC     ATOMS   COLORGROUP SYSTEM 
20 10 10 11 11 13 13 15 15 17 17 19 19 21 21 22 22 25 \
25 28 28 

