#    Name: 6fjf_5_ACP
#    Modification time : Fri May 22 19:25:11 2020

@<TRIPOS>MOLECULE
6fjf_5_ACP
   31    33     1     0     1
SMALL
NO_CHARGES


@<TRIPOS>ATOM
      1 PG          9.2100   48.6550   93.4950 P.3       1 ACP401      0.0000 
      2 O1G         9.4620   47.7710   92.3650 O.co2     1 ACP401      0.0000 
      3 O2G         9.9230   50.0520   93.1970 O.co2     1 ACP401      0.0000 
      4 O3G         7.6310   48.8960   93.6700 O.co2     1 ACP401      0.0000 
      5 PB         11.2480   48.6830   95.7470 P.3       1 ACP401      0.0000 
      6 O1B        11.4420   50.0400   95.2130 O.co2     1 ACP401      0.0000 
      7 O2B        12.5180   47.7800   95.4130 O.co2     1 ACP401      0.0000 
      8 C3B         9.8050   47.8750   95.0200 C.3       1 ACP401      0.0000 
      9 PA         10.4220   50.0760   97.9900 P.3       1 ACP401      0.0000 
     10 O1A         9.1070   50.4400   97.3800 O.co2     1 ACP401      0.0000 
     11 O2A        11.5270   51.0700   98.0570 O.co2     1 ACP401      0.0000 
     12 O3A        11.0350   48.7690   97.3280 O.3       1 ACP401      0.0000 
     13 O5'        10.1660   49.5250   99.4670 O.3       1 ACP401      0.0000 
     14 C5'         9.7870   48.1790   99.6770 C.3       1 ACP401      0.0000 
     15 C4'         8.8860   48.0310  100.8910 C.3       1 ACP401      0.0000 
     16 O4'         9.5580   48.5300  102.0330 O.3       1 ACP401      0.0000 
     17 C3'         7.6430   48.8630  100.8210 C.3       1 ACP401      0.0000 
     18 O3'         6.5950   48.1610  100.1760 O.3       1 ACP401      0.0000 
     19 C2'         7.3330   49.1650  102.2670 C.3       1 ACP401      0.0000 
     20 O2'         6.4590   48.2080  102.8350 O.3       1 ACP401      0.0000 
     21 C1'         8.6240   49.0010  102.9880 C.3       1 ACP401      0.0000 
     22 N9          9.0900   50.2890  103.4720 N.pl3     1 ACP401      0.0000 
     23 C8          9.9460   51.0490  102.8050 C.2       1 ACP401      0.0000 
     24 N7         10.1970   52.1750  103.4970 N.2       1 ACP401      0.0000 
     25 C5          9.4880   52.1190  104.6150 C.ar      1 ACP401      0.0000 
     26 C6          9.3080   52.9820  105.7630 C.ar      1 ACP401      0.0000 
     27 N6          9.9690   54.1380  105.8030 N.pl3     1 ACP401      0.0000 
     28 N1          8.4850   52.5870  106.7400 N.ar      1 ACP401      0.0000 
     29 C2          7.8390   51.4230  106.6680 C.ar      1 ACP401      0.0000 
     30 N3          7.9660   50.5850  105.6310 N.ar      1 ACP401      0.0000 
     31 C4          8.7600   50.8740  104.6000 C.ar      1 ACP401      0.0000 
@<TRIPOS>BOND
     1    1    2 ar   
     2    1    3 ar   
     3    1    4 ar   
     4    1    8 1    
     5    5    6 ar   
     6    5    7 ar   
     7    5    8 1    
     8    5   12 1    
     9    9   10 ar   
    10    9   11 ar   
    11    9   12 1    
    12    9   13 1    
    13   13   14 1    
    14   14   15 1    
    15   15   16 1    
    16   15   17 1    
    17   16   21 1    
    18   17   18 1    
    19   17   19 1    
    20   19   20 1    
    21   19   21 1    
    22   21   22 1    
    23   22   23 1    
    24   22   31 1    
    25   23   24 2    
    26   24   25 1    
    27   25   26 ar   
    28   25   31 ar   
    29   26   27 1    
    30   26   28 ar   
    31   28   29 ar   
    32   29   30 ar   
    33   30   31 ar   
@<TRIPOS>SUBSTRUCTURE
     1 ACP401      1 GROUP   
@<TRIPOS>SET
ATOM$ORANGE STATIC     ATOMS   COLORGROUP SYSTEM 
22 8 8 14 14 15 15 17 17 19 19 21 21 23 23 25 25 26 \
26 29 29 31 31 

