#    Name: 6cfv_1_IMP_CAVITY_N1_4
#    Modification time : Fri May 22 19:26:45 2020

@<TRIPOS>MOLECULE
6cfv_1_IMP_CAVITY_N1_4
   67     0     6     0     0
SMALL
NO_CHARGES


@<TRIPOS>ATOM
      1 OG         23.6200   21.1700   94.0800 O.3       1 SER1        0.0000 
      2 OG         23.6800   21.7900   92.7100 O.3       1 SER1        0.0000 
      3 OG         22.3000   22.3500   92.9100 O.3       1 SER1        0.0000 
      4 OG         22.3600   22.9700   91.5500 O.3       1 SER1        0.0000 
      5 OG         25.5200   26.1400   93.1200 O.3       1 SER1        0.0000 
      6 OG         27.4900   26.8200   93.5100 O.3       1 SER1        0.0000 
      7 OG         26.0600   26.7700   95.0700 O.3       1 SER1        0.0000 
      8 OG         24.7400   27.9500   93.9100 O.3       1 SER1        0.0000 
      9 O          27.8400   25.6400   88.0400 O.2       2 ALA2        0.0000 
     10 O          26.4100   25.5800   89.6000 O.2       2 ALA2        0.0000 
     11 O          29.8100   26.3200   88.4300 O.2       2 ALA2        0.0000 
     12 O          28.3800   26.2600   89.9900 O.2       2 ALA2        0.0000 
     13 O          28.4400   26.8800   88.6300 O.2       2 ALA2        0.0000 
     14 O          27.0000   26.8200   90.1900 O.2       2 ALA2        0.0000 
     15 O          28.9800   27.5000   90.5800 O.2       2 ALA2        0.0000 
     16 OD1        23.8400   23.6500   88.6200 O.co2     3 ASP3        0.0000 
     17 OD1        22.4100   23.5900   90.1800 O.co2     3 ASP3        0.0000 
     18 OD1        25.5400   21.2300   95.8300 O.co2     3 ASP3        0.0000 
     19 OD1        25.5900   21.8500   94.4700 O.co2     3 ASP3        0.0000 
     20 OD1        24.1600   21.7900   96.0300 O.co2     3 ASP3        0.0000 
     21 OD1        26.2400   23.7200   93.6900 O.co2     3 ASP3        0.0000 
     22 OD1        24.7600   23.0400   96.6200 O.co2     3 ASP3        0.0000 
     23 OD1        24.8100   23.6600   95.2600 O.co2     3 ASP3        0.0000 
     24 OD1        23.3800   23.6000   96.8200 O.co2     3 ASP3        0.0000 
     25 OD1        23.4400   24.2200   95.4600 O.co2     3 ASP3        0.0000 
     26 OD1        23.4900   24.8400   94.0900 O.co2     3 ASP3        0.0000 
     27 OD1        26.8400   24.9600   94.2800 O.co2     3 ASP3        0.0000 
     28 OD1        25.4100   24.9000   95.8500 O.co2     3 ASP3        0.0000 
     29 OD1        25.4600   25.5200   94.4800 O.co2     3 ASP3        0.0000 
     30 OD1        24.0900   26.0800   94.6800 O.co2     3 ASP3        0.0000 
     31 OD1        22.7700   27.2700   93.5200 O.co2     3 ASP3        0.0000 
     32 OD1        23.3600   28.5100   94.1100 O.co2     3 ASP3        0.0000 
     33 NZ         24.1100   21.1700   97.3900 N.4       4 LYS4        0.0000 
     34 NZ         29.1600   24.4500   89.2000 N.4       4 LYS4        0.0000 
     35 NZ         27.7300   24.3900   90.7600 N.4       4 LYS4        0.0000 
     36 NZ         27.7900   25.0200   89.4000 N.4       4 LYS4        0.0000 
     37 NZ         28.3300   25.6400   91.3500 N.4       4 LYS4        0.0000 
     38 NZ         26.8900   25.5800   92.9200 N.4       4 LYS4        0.0000 
     39 NZ         28.9200   26.8800   91.9400 N.4       4 LYS4        0.0000 
     40 CA         23.5700   20.5500   95.4400 C.3       5 GLY6        0.0000 
     41 CA         21.5800   24.7800   92.3400 C.3       5 GLY6        0.0000 
     42 CA         27.9000   26.2600   86.6700 C.3       5 GLY6        0.0000 
     43 CA         25.0300   26.1400   89.8000 C.3       5 GLY6        0.0000 
     44 CA         29.7600   25.7000   89.7900 C.3       5 GLY6        0.0000 
     45 CA         26.9500   26.2000   91.5500 C.3       5 GLY6        0.0000 
     46 CA         25.5700   26.7600   91.7500 C.3       5 GLY6        0.0000 
     47 CA         24.2000   27.3300   91.9600 C.3       5 GLY6        0.0000 
     48 CA         27.5400   27.4500   92.1400 C.3       5 GLY6        0.0000 
     49 CA         26.1700   28.0100   92.3500 C.3       5 GLY6        0.0000 
     50 DU         25.2200   23.0900   88.4200 H         6 CUB7        0.0000 
     51 DU         27.1900   23.7700   88.8100 H         6 CUB7        0.0000 
     52 DU         24.2200   22.4100   94.6700 H         6 CUB7        0.0000 
     53 DU         24.2700   23.0300   93.3000 H         6 CUB7        0.0000 
     54 DU         24.3800   24.2800   90.5700 H         6 CUB7        0.0000 
     55 DU         22.7900   22.3500   96.2300 H         6 CUB7        0.0000 
     56 DU         22.8400   22.9800   94.8700 H         6 CUB7        0.0000 
     57 DU         22.9000   23.6000   93.5000 H         6 CUB7        0.0000 
     58 DU         22.9500   24.2200   92.1400 H         6 CUB7        0.0000 
     59 DU         21.5200   24.1600   93.7000 H         6 CUB7        0.0000 
     60 DU         29.2200   25.0700   87.8300 H         6 CUB7        0.0000 
     61 DU         26.3000   24.3400   92.3300 H         6 CUB7        0.0000 
     62 DU         26.3500   24.9600   90.9600 H         6 CUB7        0.0000 
     63 DU         24.8700   24.2800   93.8900 H         6 CUB7        0.0000 
     64 DU         23.5500   25.4600   92.7300 H         6 CUB7        0.0000 
     65 DU         23.6000   26.0800   91.3600 H         6 CUB7        0.0000 
     66 DU         22.1700   26.0200   92.9300 H         6 CUB7        0.0000 
     67 DU         24.1400   26.7100   93.3200 H         6 CUB7        0.0000 
@<TRIPOS>BOND
@<TRIPOS>SUBSTRUCTURE
     1 SER1        1 GROUP   
     2 ALA2        9 GROUP   
     3 ASP3       16 GROUP   
     4 LYS4       33 GROUP   
     5 GLY6       40 GROUP   
     6 CUB7       50 GROUP   
@<TRIPOS>SET

