#    Name: 6cfv_1_IMP
#    Modification time : Fri May 22 19:26:44 2020

@<TRIPOS>MOLECULE
6cfv_1_IMP
   23    25     1     0     0
SMALL
NO_CHARGES


@<TRIPOS>ATOM
      1 P          24.0370   28.8160   93.7700 P.3       1 IMP303      0.0000 
      2 O1P        22.9190   29.4490   92.9750 O.co2     1 IMP303      0.0000 
      3 O2P        23.6900   28.3230   95.1510 O.co2     1 IMP303      0.0000 
      4 O3P        25.2210   29.7470   93.7340 O.co2     1 IMP303      0.0000 
      5 O5'        24.4350   27.5000   92.9790 O.3       1 IMP303      0.0000 
      6 C5'        23.7510   26.2820   93.2340 C.3       1 IMP303      0.0000 
      7 C4'        24.6970   25.1140   93.2320 C.3       1 IMP303      0.0000 
      8 O4'        25.4590   25.1260   92.0030 O.3       1 IMP303      0.0000 
      9 C3'        25.7130   25.1050   94.3830 C.3       1 IMP303      0.0000 
     10 O3'        25.5370   23.9360   95.1840 O.3       1 IMP303      0.0000 
     11 C2'        27.0890   25.0870   93.6880 C.3       1 IMP303      0.0000 
     12 O2'        28.0160   24.2010   94.2760 O.3       1 IMP303      0.0000 
     13 C1'        26.7600   24.6650   92.2550 C.3       1 IMP303      0.0000 
     14 N9         27.6500   25.2630   91.2550 N.pl3     1 IMP303      0.0000 
     15 C8         28.5490   26.2900   91.4400 C.2       1 IMP303      0.0000 
     16 N7         29.1690   26.5340   90.2520 N.2       1 IMP303      0.0000 
     17 C5         28.6700   25.6900   89.3150 C.2       1 IMP303      0.0000 
     18 C6         28.9350   25.5120   87.9580 C.2       1 IMP303      0.0000 
     19 O6         29.8980   26.0730   87.4290 O.2       1 IMP303      0.0000 
     20 N1         28.2430   24.5410   87.2580 N.am      1 IMP303      0.0000 
     21 C2         27.2940   23.7630   87.8910 C.2       1 IMP303      0.0000 
     22 N3         27.0350   23.9450   89.2320 N.2       1 IMP303      0.0000 
     23 C4         27.7110   24.8910   89.9330 C.2       1 IMP303      0.0000 
@<TRIPOS>BOND
     1    1    2 ar   
     2    1    3 ar   
     3    1    4 ar   
     4    1    5 1    
     5    5    6 1    
     6    6    7 1    
     7    7    8 1    
     8    7    9 1    
     9    8   13 1    
    10    9   10 1    
    11    9   11 1    
    12   11   12 1    
    13   11   13 1    
    14   13   14 1    
    15   14   15 1    
    16   14   23 1    
    17   15   16 2    
    18   16   17 1    
    19   17   18 1    
    20   17   23 2    
    21   18   19 2    
    22   18   20 am   
    23   20   21 1    
    24   21   22 2    
    25   22   23 1    
@<TRIPOS>SUBSTRUCTURE
     1 IMP303      1 GROUP   
@<TRIPOS>SET

