#    Name: 5y0t_4_TAT_CAVITY_N1_ALL
#    Modification time : Fri May 22 19:21:37 2020

@<TRIPOS>MOLECULE
5y0t_4_TAT_CAVITY_N1_ALL
  126     0     7     0     0
SMALL
NO_CHARGES


@<TRIPOS>ATOM
      1 OG         62.2200   26.3700  106.3800 O.3       1 SER1        0.0000 
      2 OG         63.6300   26.0000  106.0200 O.3       1 SER1        0.0000 
      3 OG         62.2200   27.4100  105.2900 O.3       1 SER1        0.0000 
      4 OG         59.9200   27.1000  109.1500 O.3       1 SER1        0.0000 
      5 OG         62.7400   27.3900  107.3500 O.3       1 SER1        0.0000 
      6 OG         62.7300   28.4300  106.2600 O.3       1 SER1        0.0000 
      7 OG         63.2400   29.4500  107.2300 O.3       1 SER1        0.0000 
      8 OG         67.5700   39.0200  101.8300 O.3       1 SER1        0.0000 
      9 OG         65.2800   37.6800  106.7800 O.3       1 SER1        0.0000 
     10 OG         66.6900   37.3100  106.4200 O.3       1 SER1        0.0000 
     11 OG         65.2700   38.7100  105.6900 O.3       1 SER1        0.0000 
     12 OG         66.6800   38.3400  105.3300 O.3       1 SER1        0.0000 
     13 OG         65.2700   39.7500  104.6100 O.3       1 SER1        0.0000 
     14 OG         67.2000   37.2900  108.4800 O.3       1 SER1        0.0000 
     15 OG         68.6100   37.9600  107.0300 O.3       1 SER1        0.0000 
     16 N          60.8000   28.8100  104.5600 N.am      2 ALA2        0.0000 
     17 N          62.2100   28.4400  104.2100 N.am      2 ALA2        0.0000 
     18 N          59.9200   28.1300  108.0600 N.am      2 ALA2        0.0000 
     19 N          59.9100   29.1700  106.9800 N.am      2 ALA2        0.0000 
     20 N          61.3200   28.8000  106.6200 N.am      2 ALA2        0.0000 
     21 N          61.3200   29.8300  105.5400 N.am      2 ALA2        0.0000 
     22 N          60.4300   30.1900  107.9500 N.am      2 ALA2        0.0000 
     23 N          61.8400   29.8200  107.5900 N.am      2 ALA2        0.0000 
     24 N          61.8300   30.8500  106.5100 N.am      2 ALA2        0.0000 
     25 N          61.8200   31.8900  105.4200 N.am      2 ALA2        0.0000 
     26 N          60.4100   33.2900  104.6900 N.am      2 ALA2        0.0000 
     27 N          65.1600   32.1700  105.6800 N.am      2 ALA2        0.0000 
     28 N          67.0800   32.8300  106.2900 N.am      2 ALA2        0.0000 
     29 N          65.6600   34.2300  105.5600 N.am      2 ALA2        0.0000 
     30 N          64.2400   37.7000  102.6600 N.am      2 ALA2        0.0000 
     31 N          65.6500   37.3400  102.3100 N.am      2 ALA2        0.0000 
     32 O          67.0600   36.9700  101.9500 O.2       2 ALA2        0.0000 
     33 O          68.4700   36.6000  101.5900 O.2       2 ALA2        0.0000 
     34 O          67.0500   38.0000  100.8600 O.2       2 ALA2        0.0000 
     35 O          68.4600   37.6300  100.5000 O.2       2 ALA2        0.0000 
     36 O          63.3500   38.0600  105.0800 O.2       2 ALA2        0.0000 
     37 N          64.7500   39.7600  102.5500 N.am      2 ALA2        0.0000 
     38 N          66.1600   39.3900  102.1900 N.am      2 ALA2        0.0000 
     39 N          72.3100   37.9100  102.8200 N.am      2 ALA2        0.0000 
     40 O          68.6200   35.8900  109.2000 O.2       2 ALA2        0.0000 
     41 N          72.8300   37.8900  104.8700 N.am      2 ALA2        0.0000 
     42 O          74.2400   37.5200  104.5200 O.2       2 ALA2        0.0000 
     43 OD1        62.3400   31.8800  107.4800 O.co2     3 ASP3        0.0000 
     44 OD1        65.1600   31.1400  106.7600 O.co2     3 ASP3        0.0000 
     45 OD1        62.3400   32.9100  106.3900 O.co2     3 ASP3        0.0000 
     46 OD1        63.7500   32.5400  106.0300 O.co2     3 ASP3        0.0000 
     47 OD1        67.0800   31.7900  107.3800 O.co2     3 ASP3        0.0000 
     48 OD1        64.2600   33.5600  107.0100 O.co2     3 ASP3        0.0000 
     49 OD1        65.6700   33.2000  106.6500 O.co2     3 ASP3        0.0000 
     50 OD1        62.8500   34.9700  106.2800 O.co2     3 ASP3        0.0000 
     51 OD1        64.2600   34.6000  105.9200 O.co2     3 ASP3        0.0000 
     52 OD1        67.6000   32.8100  108.3500 O.co2     3 ASP3        0.0000 
     53 OD1        69.0100   32.4500  107.9900 O.co2     3 ASP3        0.0000 
     54 OD1        66.1800   34.2200  107.6200 O.co2     3 ASP3        0.0000 
     55 OD1        67.5900   33.8500  107.2600 O.co2     3 ASP3        0.0000 
     56 OD1        64.7700   35.6200  106.8900 O.co2     3 ASP3        0.0000 
     57 OD1        66.1800   35.2500  106.5300 O.co2     3 ASP3        0.0000 
     58 OD1        67.5900   34.8800  106.1800 O.co2     3 ASP3        0.0000 
     59 OD1        66.1700   36.2900  105.4500 O.co2     3 ASP3        0.0000 
     60 OD1        67.5800   36.9500  104.0000 O.co2     3 ASP3        0.0000 
     61 OD1        68.9800   37.6200  102.5600 O.co2     3 ASP3        0.0000 
     62 OD1        68.1100   33.8400  109.3200 O.co2     3 ASP3        0.0000 
     63 OD1        69.5200   33.4700  108.9600 O.co2     3 ASP3        0.0000 
     64 OD1        66.7000   35.2400  108.5900 O.co2     3 ASP3        0.0000 
     65 OD1        68.1100   34.8700  108.2300 O.co2     3 ASP3        0.0000 
     66 OD1        68.1000   35.9100  107.1500 O.co2     3 ASP3        0.0000 
     67 OD1        68.1000   36.9400  106.0600 O.co2     3 ASP3        0.0000 
     68 OD1        69.5000   37.6100  104.6200 O.co2     3 ASP3        0.0000 
     69 OD1        70.9100   37.2400  104.2600 O.co2     3 ASP3        0.0000 
     70 OD1        72.8400   36.8600  105.9600 O.co2     3 ASP3        0.0000 
     71 NZ         62.8400   36.0000  105.1900 N.4       4 LYS4        0.0000 
     72 NZ         63.3500   37.0200  106.1600 N.4       4 LYS4        0.0000 
     73 CZ         62.3200   36.0200  103.1400 C.ar      5 PHE5        0.0000 
     74 CZ         66.1600   38.3600  103.2800 C.ar      5 PHE5        0.0000 
     75 CZ         68.9800   38.6600  101.4700 C.ar      5 PHE5        0.0000 
     76 CZ         70.3900   38.2900  101.1200 C.ar      5 PHE5        0.0000 
     77 CZ         68.0900   37.9800  104.9800 C.ar      5 PHE5        0.0000 
     78 CZ         66.6800   39.3800  104.2500 C.ar      5 PHE5        0.0000 
     79 CZ         68.0900   39.0100  103.8900 C.ar      5 PHE5        0.0000 
     80 CZ         69.4900   38.6400  103.5300 C.ar      5 PHE5        0.0000 
     81 CZ         66.6700   40.4100  103.1600 C.ar      5 PHE5        0.0000 
     82 CZ         68.0800   40.0500  102.8000 C.ar      5 PHE5        0.0000 
     83 CZ         70.0100   38.6300  105.5900 C.ar      5 PHE5        0.0000 
     84 CZ         70.0100   39.6600  104.5000 C.ar      5 PHE5        0.0000 
     85 CA         63.1200   23.9500  106.1300 C.3       6 GLY6        0.0000 
     86 CA         63.1200   24.9800  105.0500 C.3       6 GLY6        0.0000 
     87 CA         60.3000   26.7500  104.6800 C.3       6 GLY6        0.0000 
     88 CA         61.7000   26.3900  104.3200 C.3       6 GLY6        0.0000 
     89 CA         63.1100   26.0200  103.9600 C.3       6 GLY6        0.0000 
     90 CA         60.2900   27.7900  103.5900 C.3       6 GLY6        0.0000 
     91 CA         61.7000   27.4200  103.2400 C.3       6 GLY6        0.0000 
     92 CA         63.6300   27.0400  104.9300 C.3       6 GLY6        0.0000 
     93 CA         60.8000   29.8500  103.4800 C.3       6 GLY6        0.0000 
     94 CA         62.2100   29.4800  103.1200 C.3       6 GLY6        0.0000 
     95 CA         62.7300   29.4600  105.1800 C.3       6 GLY6        0.0000 
     96 CA         61.3100   30.8700  104.4500 C.3       6 GLY6        0.0000 
     97 CA         62.7200   30.5000  104.0900 C.3       6 GLY6        0.0000 
     98 CA         63.2400   30.4900  106.1500 C.3       6 GLY6        0.0000 
     99 CA         63.2300   31.5200  105.0600 C.3       6 GLY6        0.0000 
    100 CA         64.6400   31.1500  104.7100 C.3       6 GLY6        0.0000 
    101 CA         66.5700   30.7700  106.4000 C.3       6 GLY6        0.0000 
    102 CA         62.3300   33.9500  105.3100 C.3       6 GLY6        0.0000 
    103 CA         63.7400   33.5800  104.9500 C.3       6 GLY6        0.0000 
    104 CA         62.3300   34.9800  104.2200 C.3       6 GLY6        0.0000 
    105 CA         62.8400   37.0400  104.1100 C.3       6 GLY6        0.0000 
    106 CA         64.7500   38.7200  103.6300 C.3       6 GLY6        0.0000 
    107 CA         70.3900   37.2500  102.2000 C.3       6 GLY6        0.0000 
    108 CA         71.8000   36.8800  101.8500 C.3       6 GLY6        0.0000 
    109 CA         72.3200   36.8700  103.9000 C.3       6 GLY6        0.0000 
    110 CA         73.7300   36.5000  103.5400 C.3       6 GLY6        0.0000 
    111 CA         70.9000   38.2700  103.1700 C.3       6 GLY6        0.0000 
    112 CA         71.4200   38.2600  105.2300 C.3       6 GLY6        0.0000 
    113 DU         61.7100   24.3200  106.4900 H         7 CUB7        0.0000 
    114 DU         61.7100   25.3500  105.4100 H         7 CUB7        0.0000 
    115 DU         62.2300   25.3400  107.4600 H         7 CUB7        0.0000 
    116 DU         59.4000   27.1100  107.0900 H         7 CUB7        0.0000 
    117 DU         60.8100   27.7800  105.6500 H         7 CUB7        0.0000 
    118 DU         61.3300   27.7600  107.7100 H         7 CUB7        0.0000 
    119 DU         61.8400   28.7800  108.6800 H         7 CUB7        0.0000 
    120 DU         64.2500   35.6300  104.8300 H         7 CUB7        0.0000 
    121 DU         64.2400   36.6700  103.7500 H         7 CUB7        0.0000 
    122 DU         64.7600   36.6500  105.8100 H         7 CUB7        0.0000 
    123 DU         64.7600   37.6900  104.7200 H         7 CUB7        0.0000 
    124 DU         66.1700   37.3200  104.3600 H         7 CUB7        0.0000 
    125 DU         67.5700   37.9900  102.9200 H         7 CUB7        0.0000 
    126 DU         66.6900   36.2700  107.5000 H         7 CUB7        0.0000 
@<TRIPOS>BOND
@<TRIPOS>SUBSTRUCTURE
     1 SER1        1 GROUP   
     2 ALA2       16 GROUP   
     3 ASP3       43 GROUP   
     4 LYS4       71 GROUP   
     5 PHE5       73 GROUP   
     6 GLY6       85 GROUP   
     7 CUB7      113 GROUP   
@<TRIPOS>SET

