#    Name: 5y0t_4_TAT
#    Modification time : Fri May 22 19:21:36 2020

@<TRIPOS>MOLECULE
5y0t_4_TAT
   31    33     1     0     0
SMALL
NO_CHARGES


@<TRIPOS>ATOM
      1 N1         74.0940   37.2080  103.8820 N.ar      1 TAT1001     0.0000 
      2 C2         73.5470   37.3100  102.6580 C.ar      1 TAT1001     0.0000 
      3 N3         72.2430   37.5650  102.4370 N.ar      1 TAT1001     0.0000 
      4 C4         71.3920   37.7300  103.4740 C.ar      1 TAT1001     0.0000 
      5 C5         71.9070   37.6290  104.8450 C.ar      1 TAT1001     0.0000 
      6 C6         73.3530   37.3460  105.0050 C.ar      1 TAT1001     0.0000 
      7 N6         73.9140   37.2330  106.2330 N.pl3     1 TAT1001     0.0000 
      8 N7         70.8570   37.8320  105.6660 N.2       1 TAT1001     0.0000 
      9 C8         69.7650   38.0400  104.8860 C.2       1 TAT1001     0.0000 
     10 N9         70.0900   37.9760  103.5790 N.pl3     1 TAT1001     0.0000 
     11 PA         64.8400   38.5430  104.8420 P.3       1 TAT1001     0.0000 
     12 PB         66.1900   36.4200  106.3580 P.3       1 TAT1001     0.0000 
     13 PG         67.5800   35.8700  108.7590 P.3       1 TAT1001     0.0000 
     14 C1'        69.1820   38.1500  102.4230 C.3       1 TAT1001     0.0000 
     15 O1A        66.2940   35.5490  109.4880 O.co2     1 TAT1001     0.0000 
     16 O1B        67.0210   36.0380  105.1570 O.co2     1 TAT1001     0.0000 
     17 S1G        63.6010   37.4480  103.8330 S.3       1 TAT1001     0.0000 
     18 C2'        68.0960   37.0990  102.3780 C.3       1 TAT1001     0.0000 
     19 O2'        68.5470   35.8610  101.8140 O.3       1 TAT1001     0.0000 
     20 O2A        64.3660   39.9000  105.3430 O.2       1 TAT1001     0.0000 
     21 O2B        65.1710   35.4680  106.9140 O.co2     1 TAT1001     0.0000 
     22 O2G        68.2050   34.6950  108.0360 O.co2     1 TAT1001     0.0000 
     23 C3'        67.0440   37.7810  101.5270 C.3       1 TAT1001     0.0000 
     24 O3'        67.3270   37.5470  100.1300 O.3       1 TAT1001     0.0000 
     25 O3A        65.4310   37.8310  106.1610 O.3       1 TAT1001     0.0000 
     26 O3B        67.1630   36.8680  107.5580 O.3       1 TAT1001     0.0000 
     27 O3G        68.5700   36.6970  109.5270 O.co2     1 TAT1001     0.0000 
     28 C4'        67.2060   39.2640  101.8620 C.3       1 TAT1001     0.0000 
     29 O4'        68.4920   39.4050  102.4660 O.3       1 TAT1001     0.0000 
     30 C5'        66.1620   39.7440  102.8670 C.3       1 TAT1001     0.0000 
     31 O5'        66.1580   38.8230  103.9640 O.3       1 TAT1001     0.0000 
@<TRIPOS>BOND
     1    1    2 ar   
     2    1    6 ar   
     3    2    3 ar   
     4    3    4 ar   
     5    4    5 ar   
     6    4   10 1    
     7    5    6 ar   
     8    5    8 1    
     9    6    7 1    
    10    8    9 2    
    11    9   10 1    
    12   10   14 1    
    13   11   17 1    
    14   11   20 2    
    15   11   25 1    
    16   11   31 1    
    17   12   16 ar   
    18   12   21 ar   
    19   12   25 1    
    20   12   26 1    
    21   13   15 ar   
    22   13   22 ar   
    23   13   26 1    
    24   13   27 ar   
    25   14   18 1    
    26   14   29 1    
    27   18   19 1    
    28   18   23 1    
    29   23   24 1    
    30   23   28 1    
    31   28   29 1    
    32   28   30 1    
    33   30   31 1    
@<TRIPOS>SUBSTRUCTURE
     1 TAT1001     1 GROUP   
@<TRIPOS>SET

