#    Name: 5y0t_2_TAT_CAVITY_N1_8
#    Modification time : Fri May 22 19:21:29 2020

@<TRIPOS>MOLECULE
5y0t_2_TAT_CAVITY_N1_8
   98     0     7     0     0
SMALL
NO_CHARGES


@<TRIPOS>ATOM
      1 OG         31.9200   71.3800   72.7500 O.3       1 SER1        0.0000 
      2 OG         30.4800   77.9600   66.5900 O.3       1 SER1        0.0000 
      3 OG         31.0300   70.7000   76.2500 O.3       1 SER1        0.0000 
      4 OG         29.6200   72.1000   75.5200 O.3       1 SER1        0.0000 
      5 OG         31.0300   71.7300   75.1600 O.3       1 SER1        0.0000 
      6 OG         32.4400   71.3600   74.8100 O.3       1 SER1        0.0000 
      7 OG         31.0200   72.7700   74.0800 O.3       1 SER1        0.0000 
      8 OG         32.4300   72.4000   73.7200 O.3       1 SER1        0.0000 
      9 OG         35.2300   74.7700   69.7500 O.3       1 SER1        0.0000 
     10 OG         33.8200   76.1700   69.0200 O.3       1 SER1        0.0000 
     11 OG         32.4000   78.6100   67.2100 O.3       1 SER1        0.0000 
     12 OG         30.1100   77.2600   72.1500 O.3       1 SER1        0.0000 
     13 OG         34.3400   76.1600   71.0800 O.3       1 SER1        0.0000 
     14 OG         35.7500   75.7900   70.7200 O.3       1 SER1        0.0000 
     15 OG         34.3300   77.1900   69.9900 O.3       1 SER1        0.0000 
     16 OG         34.8500   78.2100   70.9600 O.3       1 SER1        0.0000 
     17 OG         34.8400   79.2500   69.8800 O.3       1 SER1        0.0000 
     18 N          36.0000   69.9500   65.1500 N.am      2 ALA2        0.0000 
     19 O          34.5800   72.3800   63.3300 O.2       2 ALA2        0.0000 
     20 N          33.6800   74.8100   63.5800 N.am      2 ALA2        0.0000 
     21 N          34.1900   75.8300   64.5500 N.am      2 ALA2        0.0000 
     22 O          30.4800   76.9200   67.6800 O.2       2 ALA2        0.0000 
     23 O          36.6500   72.3300   71.5600 O.2       2 ALA2        0.0000 
     24 N          31.0000   77.9400   68.6500 N.am      2 ALA2        0.0000 
     25 N          31.5500   71.7200   77.2200 N.am      2 ALA2        0.0000 
     26 N          31.5400   72.7500   76.1300 N.am      2 ALA2        0.0000 
     27 N          31.5300   73.7900   75.0500 N.am      2 ALA2        0.0000 
     28 N          31.5100   77.9300   70.7100 N.am      2 ALA2        0.0000 
     29 N          32.9200   78.6000   69.2600 N.am      2 ALA2        0.0000 
     30 O          33.4400   78.5800   71.3200 O.2       2 ALA2        0.0000 
     31 OD1        34.0800   69.2900   64.5300 O.co2     3 ASP3        0.0000 
     32 OD1        34.5800   71.3500   64.4200 O.co2     3 ASP3        0.0000 
     33 OD1        35.1000   72.3700   65.3900 O.co2     3 ASP3        0.0000 
     34 OD1        32.2700   74.1400   65.0200 O.co2     3 ASP3        0.0000 
     35 OD1        33.6800   73.7700   64.6600 O.co2     3 ASP3        0.0000 
     36 OD1        31.3800   75.5300   66.3500 O.co2     3 ASP3        0.0000 
     37 OD1        32.7900   75.1600   65.9900 O.co2     3 ASP3        0.0000 
     38 OD1        34.2000   74.7900   65.6300 O.co2     3 ASP3        0.0000 
     39 OD1        33.3200   72.0400   71.3100 O.co2     3 ASP3        0.0000 
     40 OD1        34.7300   71.6800   70.9500 O.co2     3 ASP3        0.0000 
     41 OD1        33.3200   73.0800   70.2200 O.co2     3 ASP3        0.0000 
     42 OD1        34.7300   72.7100   69.8600 O.co2     3 ASP3        0.0000 
     43 OD1        36.1400   72.3400   69.5000 O.co2     3 ASP3        0.0000 
     44 OD1        34.7200   73.7500   68.7800 O.co2     3 ASP3        0.0000 
     45 OD1        33.3100   75.1500   68.0500 O.co2     3 ASP3        0.0000 
     46 OD1        34.7200   74.7800   67.6900 O.co2     3 ASP3        0.0000 
     47 OD1        31.8900   76.5500   67.3200 O.co2     3 ASP3        0.0000 
     48 OD1        33.8200   75.1400   70.1100 O.co2     3 ASP3        0.0000 
     49 NZ         32.0500   74.8100   76.0200 N.4       4 LYS4        0.0000 
     50 NZ         30.6300   76.2100   75.2900 N.4       4 LYS4        0.0000 
     51 CZ         31.3700   76.5700   65.2600 C.ar      5 PHE5        0.0000 
     52 CZ         33.3000   76.1800   66.9600 C.ar      5 PHE5        0.0000 
     53 CZ         34.7100   75.8200   66.6000 C.ar      5 PHE5        0.0000 
     54 CZ         31.8900   77.5900   66.2300 C.ar      5 PHE5        0.0000 
     55 CZ         34.7000   76.8500   65.5200 C.ar      5 PHE5        0.0000 
     56 CZ         33.8100   77.2100   67.9300 C.ar      5 PHE5        0.0000 
     57 CZ         33.8100   78.2400   66.8500 C.ar      5 PHE5        0.0000 
     58 CZ         34.3300   78.2300   68.9000 C.ar      5 PHE5        0.0000 
     59 CZ         34.3200   79.2600   67.8200 C.ar      5 PHE5        0.0000 
     60 CZ         30.6300   77.2500   74.2100 C.ar      5 PHE5        0.0000 
     61 CA         33.5600   68.2700   63.5600 C.3       6 GLY6        0.0000 
     62 CA         33.1700   72.7500   63.6900 C.3       6 GLY6        0.0000 
     63 CA         35.0900   73.4100   64.3000 C.3       6 GLY6        0.0000 
     64 CA         32.2700   75.1800   63.9300 C.3       6 GLY6        0.0000 
     65 CA         35.6100   74.4300   65.2800 C.3       6 GLY6        0.0000 
     66 CA         32.7800   76.2000   64.9100 C.3       6 GLY6        0.0000 
     67 CA         33.3000   77.2200   65.8800 C.3       6 GLY6        0.0000 
     68 CA         33.8500   69.9600   75.5300 C.3       6 GLY6        0.0000 
     69 CA         33.8500   71.0000   74.4500 C.3       6 GLY6        0.0000 
     70 CA         35.2500   70.6300   74.0900 C.3       6 GLY6        0.0000 
     71 CA         31.0200   73.8000   72.9900 C.3       6 GLY6        0.0000 
     72 CA         32.9500   72.3900   75.7800 C.3       6 GLY6        0.0000 
     73 CA         34.3600   72.0200   75.4200 C.3       6 GLY6        0.0000 
     74 CA         35.7700   71.6500   75.0600 C.3       6 GLY6        0.0000 
     75 CA         30.1300   74.1600   75.4100 C.3       6 GLY6        0.0000 
     76 CA         34.3500   73.0500   74.3300 C.3       6 GLY6        0.0000 
     77 CA         35.7600   72.6800   73.9800 C.3       6 GLY6        0.0000 
     78 CA         30.1200   75.1900   74.3200 C.3       6 GLY6        0.0000 
     79 CA         31.5300   74.8200   73.9600 C.3       6 GLY6        0.0000 
     80 CA         30.1100   76.2300   73.2400 C.3       6 GLY6        0.0000 
     81 CA         32.9100   79.6300   68.1800 C.3       6 GLY6        0.0000 
     82 CA         32.0300   77.9100   72.7600 C.3       6 GLY6        0.0000 
     83 CA         32.0300   78.9500   71.6800 C.3       6 GLY6        0.0000 
     84 CA         33.4300   79.6200   70.2300 C.3       6 GLY6        0.0000 
     85 DU         33.3300   71.0100   72.3900 H         7 CUB7        0.0000 
     86 DU         33.8400   72.0300   73.3600 H         7 CUB7        0.0000 
     87 DU         35.2500   71.6600   73.0000 H         7 CUB7        0.0000 
     88 DU         32.4300   73.4300   72.6300 H         7 CUB7        0.0000 
     89 DU         33.8400   73.0700   72.2800 H         7 CUB7        0.0000 
     90 DU         35.2400   72.7000   71.9200 H         7 CUB7        0.0000 
     91 DU         33.8300   74.1000   71.1900 H         7 CUB7        0.0000 
     92 DU         35.2400   73.7300   70.8300 H         7 CUB7        0.0000 
     93 DU         32.4000   77.5700   68.2900 H         7 CUB7        0.0000 
     94 DU         32.9400   73.4200   74.6900 H         7 CUB7        0.0000 
     95 DU         31.5200   75.8600   72.8800 H         7 CUB7        0.0000 
     96 DU         31.5200   76.8900   71.7900 H         7 CUB7        0.0000 
     97 DU         32.9300   76.5300   71.4300 H         7 CUB7        0.0000 
     98 DU         32.9200   77.5600   70.3500 H         7 CUB7        0.0000 
@<TRIPOS>BOND
@<TRIPOS>SUBSTRUCTURE
     1 SER1        1 GROUP   
     2 ALA2       18 GROUP   
     3 ASP3       31 GROUP   
     4 LYS4       49 GROUP   
     5 PHE5       51 GROUP   
     6 GLY6       61 GROUP   
     7 CUB7       85 GROUP   
@<TRIPOS>SET

