#    Name: 5y0t_2_TAT
#    Modification time : Fri May 22 19:21:28 2020

@<TRIPOS>MOLECULE
5y0t_2_TAT
   31    33     1     0     0
SMALL
NO_CHARGES


@<TRIPOS>ATOM
      1 N1         34.0280   72.7470   62.6910 N.ar      1 TAT1001     0.0000 
      2 C2         32.9550   73.5630   62.6330 C.ar      1 TAT1001     0.0000 
      3 N3         32.6640   74.4720   63.5790 N.ar      1 TAT1001     0.0000 
      4 C4         33.4740   74.5920   64.6660 C.ar      1 TAT1001     0.0000 
      5 C5         34.6600   73.7460   64.8070 C.ar      1 TAT1001     0.0000 
      6 C6         34.9100   72.7730   63.7210 C.ar      1 TAT1001     0.0000 
      7 N6         35.9880   71.9480   63.7720 N.pl3     1 TAT1001     0.0000 
      8 N7         35.2630   74.0920   65.9670 N.2       1 TAT1001     0.0000 
      9 C8         34.5230   75.0770   66.5310 C.2       1 TAT1001     0.0000 
     10 N9         33.4730   75.3680   65.7400 N.pl3     1 TAT1001     0.0000 
     11 PA         33.8530   77.6920   70.6680 P.3       1 TAT1001     0.0000 
     12 PB         34.2040   74.7680   70.7710 P.3       1 TAT1001     0.0000 
     13 PG         36.2640   72.7650   70.5990 P.3       1 TAT1001     0.0000 
     14 C1'        32.4230   76.3530   65.9900 C.3       1 TAT1001     0.0000 
     15 O1A        35.1930   71.7840   70.2040 O.co2     1 TAT1001     0.0000 
     16 O1B        33.1900   74.4940   69.6920 O.co2     1 TAT1001     0.0000 
     17 S1G        32.1830   77.7140   71.6130 S.3       1 TAT1001     0.0000 
     18 C2'        31.6320   75.9440   67.2150 C.3       1 TAT1001     0.0000 
     19 O2'        30.6220   74.9830   66.9020 O.3       1 TAT1001     0.0000 
     20 O2A        34.8200   78.8330   70.8900 O.2       1 TAT1001     0.0000 
     21 O2B        33.9230   74.2330   72.1500 O.co2     1 TAT1001     0.0000 
     22 O2G        37.5070   72.7320   69.7530 O.co2     1 TAT1001     0.0000 
     23 C3'        31.0850   77.2800   67.6950 C.3       1 TAT1001     0.0000 
     24 O3'        29.8050   77.5490   67.0920 O.3       1 TAT1001     0.0000 
     25 O3A        34.6820   76.3090   70.8600 O.3       1 TAT1001     0.0000 
     26 O3B        35.6320   74.2170   70.2630 O.3       1 TAT1001     0.0000 
     27 O3G        36.5430   72.7970   72.0870 O.co2     1 TAT1001     0.0000 
     28 C4'        32.1240   78.2840   67.2260 C.3       1 TAT1001     0.0000 
     29 O4'        32.9750   77.6240   66.2840 O.3       1 TAT1001     0.0000 
     30 C5'        33.0100   78.7490   68.3810 C.3       1 TAT1001     0.0000 
     31 O5'        33.4960   77.5940   69.0800 O.3       1 TAT1001     0.0000 
@<TRIPOS>BOND
     1    1    2 ar   
     2    1    6 ar   
     3    2    3 ar   
     4    3    4 ar   
     5    4    5 ar   
     6    4   10 1    
     7    5    6 ar   
     8    5    8 1    
     9    6    7 1    
    10    8    9 2    
    11    9   10 1    
    12   10   14 1    
    13   11   17 1    
    14   11   20 2    
    15   11   25 1    
    16   11   31 1    
    17   12   16 ar   
    18   12   21 ar   
    19   12   25 1    
    20   12   26 1    
    21   13   15 ar   
    22   13   22 ar   
    23   13   26 1    
    24   13   27 ar   
    25   14   18 1    
    26   14   29 1    
    27   18   19 1    
    28   18   23 1    
    29   23   24 1    
    30   23   28 1    
    31   28   29 1    
    32   28   30 1    
    33   30   31 1    
@<TRIPOS>SUBSTRUCTURE
     1 TAT1001     1 GROUP   
@<TRIPOS>SET

