#    Name: 5y0t_3_TAT_CAVITY_N1_6
#    Modification time : Fri May 22 19:21:33 2020

@<TRIPOS>MOLECULE
5y0t_3_TAT_CAVITY_N1_6
   95     0     7     0     0
SMALL
NO_CHARGES


@<TRIPOS>ATOM
      1 OG         22.9400   44.5400  140.4700 O.3       1 SER1        0.0000 
      2 OG         23.4800   40.3900  146.8700 O.3       1 SER1        0.0000 
      3 OG         23.4800   41.4200  145.7800 O.3       1 SER1        0.0000 
      4 OG         23.4500   45.5600  141.4400 O.3       1 SER1        0.0000 
      5 OG         23.4500   46.6000  140.3500 O.3       1 SER1        0.0000 
      6 OG         23.9900   42.4400  146.7500 O.3       1 SER1        0.0000 
      7 OG         25.3900   43.1100  145.3100 O.3       1 SER1        0.0000 
      8 OG         22.5600   46.9500  142.7700 O.3       1 SER1        0.0000 
      9 OG         24.5000   43.4700  147.7200 O.3       1 SER1        0.0000 
     10 OG         25.9100   44.1300  146.2800 O.3       1 SER1        0.0000 
     11 N          20.1500   39.0700  147.7000 N.am      2 ALA2        0.0000 
     12 N          21.5600   38.7000  147.3400 N.am      2 ALA2        0.0000 
     13 N          20.1500   40.1000  146.6100 N.am      2 ALA2        0.0000 
     14 N          21.5600   39.7300  146.2500 N.am      2 ALA2        0.0000 
     15 O          22.9700   39.3700  145.9000 O.2       2 ALA2        0.0000 
     16 O          22.9600   40.4000  144.8100 O.2       2 ALA2        0.0000 
     17 O          19.2500   41.4900  147.9400 O.2       2 ALA2        0.0000 
     18 N          20.6600   41.1200  147.5800 N.am      2 ALA2        0.0000 
     19 N          20.6600   42.1600  146.5000 N.am      2 ALA2        0.0000 
     20 O          22.0600   43.8600  143.9700 O.2       2 ALA2        0.0000 
     21 O          22.0500   44.9000  142.8800 O.2       2 ALA2        0.0000 
     22 O          22.5700   44.8800  144.9400 O.2       2 ALA2        0.0000 
     23 O          22.5600   45.9200  143.8500 O.2       2 ALA2        0.0000 
     24 N          21.6900   42.1300  150.6100 N.am      2 ALA2        0.0000 
     25 N          20.8000   42.4900  153.0200 N.am      2 ALA2        0.0000 
     26 N          20.8000   43.5200  151.9400 N.am      2 ALA2        0.0000 
     27 N          22.2100   43.1500  151.5800 N.am      2 ALA2        0.0000 
     28 N          21.3200   43.5100  154.0000 N.am      2 ALA2        0.0000 
     29 N          21.3100   44.5400  152.9100 N.am      2 ALA2        0.0000 
     30 O          21.3100   45.5800  151.8200 O.2       2 ALA2        0.0000 
     31 O          21.8200   45.5600  153.8800 O.2       2 ALA2        0.0000 
     32 O          21.8100   47.6300  151.7100 O.2       2 ALA2        0.0000 
     33 OD1        22.0700   41.7900  146.1400 O.co2     3 ASP3        0.0000 
     34 OD1        21.1700   42.1500  148.5500 O.co2     3 ASP3        0.0000 
     35 OD1        22.5800   42.8100  147.1100 O.co2     3 ASP3        0.0000 
     36 OD1        22.5700   43.8500  146.0200 O.co2     3 ASP3        0.0000 
     37 OD1        23.9800   43.4800  145.6700 O.co2     3 ASP3        0.0000 
     38 OD1        20.2800   43.5400  149.8800 O.co2     3 ASP3        0.0000 
     39 OD1        21.6900   43.1700  149.5200 O.co2     3 ASP3        0.0000 
     40 OD1        24.5000   44.5000  146.6400 O.co2     3 ASP3        0.0000 
     41 OD1        24.4900   45.5400  145.5500 O.co2     3 ASP3        0.0000 
     42 OD1        23.0800   46.9400  144.8200 O.co2     3 ASP3        0.0000 
     43 OD1        22.2000   44.1900  150.5000 O.co2     3 ASP3        0.0000 
     44 OD1        25.0000   46.5600  146.5200 O.co2     3 ASP3        0.0000 
     45 OD1        22.7100   45.2100  151.4700 O.co2     3 ASP3        0.0000 
     46 OD1        23.2200   47.2700  151.3500 O.co2     3 ASP3        0.0000 
     47 NZ         22.9500   42.4700  142.6400 N.4       4 LYS4        0.0000 
     48 NZ         24.3600   42.1000  142.2800 N.4       4 LYS4        0.0000 
     49 NZ         24.3600   43.1400  141.1900 N.4       4 LYS4        0.0000 
     50 NZ         26.2800   42.7600  142.8900 N.4       4 LYS4        0.0000 
     51 CZ         19.2600   40.4600  149.0300 C.ar      5 PHE5        0.0000 
     52 CZ         20.6700   40.0900  148.6700 C.ar      5 PHE5        0.0000 
     53 CZ         22.0800   39.7200  148.3100 C.ar      5 PHE5        0.0000 
     54 CZ         22.0700   40.7600  147.2200 C.ar      5 PHE5        0.0000 
     55 CZ         19.7700   41.4800  150.0000 C.ar      5 PHE5        0.0000 
     56 CZ         22.5900   40.7400  149.2800 C.ar      5 PHE5        0.0000 
     57 CZ         22.5800   41.7800  148.2000 C.ar      5 PHE5        0.0000 
     58 CZ         23.1000   42.8000  149.1700 C.ar      5 PHE5        0.0000 
     59 CZ         23.6100   43.8200  150.1400 C.ar      5 PHE5        0.0000 
     60 CA         22.9700   38.3300  146.9800 C.3       6 GLY6        0.0000 
     61 CA         24.3700   41.0700  143.3700 C.3       6 GLY6        0.0000 
     62 CA         26.2800   43.7900  141.8100 C.3       6 GLY6        0.0000 
     63 CA         24.8600   45.1900  141.0800 C.3       6 GLY6        0.0000 
     64 CA         21.1800   41.1100  149.6400 C.3       6 GLY6        0.0000 
     65 CA         19.7700   42.5100  148.9100 C.3       6 GLY6        0.0000 
     66 CA         26.8000   43.7800  143.8700 C.3       6 GLY6        0.0000 
     67 CA         26.7900   44.8100  142.7800 C.3       6 GLY6        0.0000 
     68 CA         25.3800   46.2200  142.0500 C.3       6 GLY6        0.0000 
     69 CA         26.7900   45.8500  141.6900 C.3       6 GLY6        0.0000 
     70 CA         25.3700   47.2500  140.9700 C.3       6 GLY6        0.0000 
     71 CA         18.8700   42.8700  151.3300 C.3       6 GLY6        0.0000 
     72 CA         20.2800   42.5000  150.9700 C.3       6 GLY6        0.0000 
     73 CA         18.8700   43.9000  150.2400 C.3       6 GLY6        0.0000 
     74 CA         25.9000   45.1700  145.1900 C.3       6 GLY6        0.0000 
     75 CA         19.3900   43.8900  152.3000 C.3       6 GLY6        0.0000 
     76 CA         20.7900   44.5600  150.8500 C.3       6 GLY6        0.0000 
     77 CA         19.9000   44.9100  153.2700 C.3       6 GLY6        0.0000 
     78 CA         22.7200   44.1700  152.5500 C.3       6 GLY6        0.0000 
     79 CA         23.2300   45.2000  153.5200 C.3       6 GLY6        0.0000 
     80 CA         23.2300   46.2300  152.4400 C.3       6 GLY6        0.0000 
     81 DU         22.9600   41.4400  143.7200 H         7 CUB7        0.0000 
     82 DU         22.9500   43.5100  141.5500 H         7 CUB7        0.0000 
     83 DU         23.4700   42.4600  144.7000 H         7 CUB7        0.0000 
     84 DU         24.8800   42.0900  144.3400 H         7 CUB7        0.0000 
     85 DU         23.4600   43.4900  143.6100 H         7 CUB7        0.0000 
     86 DU         24.8700   43.1200  143.2500 H         7 CUB7        0.0000 
     87 DU         23.4600   44.5300  142.5200 H         7 CUB7        0.0000 
     88 DU         24.8700   44.1600  142.1700 H         7 CUB7        0.0000 
     89 DU         23.9800   44.5100  144.5800 H         7 CUB7        0.0000 
     90 DU         25.3900   44.1500  144.2200 H         7 CUB7        0.0000 
     91 DU         23.9700   45.5500  143.4900 H         7 CUB7        0.0000 
     92 DU         25.3800   45.1800  143.1400 H         7 CUB7        0.0000 
     93 DU         23.9700   46.5800  142.4100 H         7 CUB7        0.0000 
     94 DU         24.4900   46.5700  144.4700 H         7 CUB7        0.0000 
     95 DU         23.0700   47.9700  143.7400 H         7 CUB7        0.0000 
@<TRIPOS>BOND
@<TRIPOS>SUBSTRUCTURE
     1 SER1        1 GROUP   
     2 ALA2       11 GROUP   
     3 ASP3       33 GROUP   
     4 LYS4       47 GROUP   
     5 PHE5       51 GROUP   
     6 GLY6       60 GROUP   
     7 CUB7       81 GROUP   
@<TRIPOS>SET

