#    Name: 5y0t_4_TAT_CAVITY_N1_4
#    Modification time : Fri May 22 19:21:37 2020

@<TRIPOS>MOLECULE
5y0t_4_TAT_CAVITY_N1_4
   82     0     7     0     0
SMALL
NO_CHARGES


@<TRIPOS>ATOM
      1 OG         67.5700   39.0200  101.8300 O.3       1 SER1        0.0000 
      2 OG         65.2800   37.6800  106.7800 O.3       1 SER1        0.0000 
      3 OG         66.6900   37.3100  106.4200 O.3       1 SER1        0.0000 
      4 OG         65.2700   38.7100  105.6900 O.3       1 SER1        0.0000 
      5 OG         66.6800   38.3400  105.3300 O.3       1 SER1        0.0000 
      6 OG         65.2700   39.7500  104.6100 O.3       1 SER1        0.0000 
      7 OG         67.2000   37.2900  108.4800 O.3       1 SER1        0.0000 
      8 OG         68.6100   37.9600  107.0300 O.3       1 SER1        0.0000 
      9 N          65.1600   32.1700  105.6800 N.am      2 ALA2        0.0000 
     10 N          67.0800   32.8300  106.2900 N.am      2 ALA2        0.0000 
     11 N          65.6600   34.2300  105.5600 N.am      2 ALA2        0.0000 
     12 N          64.2400   37.7000  102.6600 N.am      2 ALA2        0.0000 
     13 N          65.6500   37.3400  102.3100 N.am      2 ALA2        0.0000 
     14 O          67.0600   36.9700  101.9500 O.2       2 ALA2        0.0000 
     15 O          68.4700   36.6000  101.5900 O.2       2 ALA2        0.0000 
     16 O          67.0500   38.0000  100.8600 O.2       2 ALA2        0.0000 
     17 O          68.4600   37.6300  100.5000 O.2       2 ALA2        0.0000 
     18 O          63.3500   38.0600  105.0800 O.2       2 ALA2        0.0000 
     19 N          64.7500   39.7600  102.5500 N.am      2 ALA2        0.0000 
     20 N          66.1600   39.3900  102.1900 N.am      2 ALA2        0.0000 
     21 N          72.3100   37.9100  102.8200 N.am      2 ALA2        0.0000 
     22 O          68.6200   35.8900  109.2000 O.2       2 ALA2        0.0000 
     23 N          72.8300   37.8900  104.8700 N.am      2 ALA2        0.0000 
     24 O          74.2400   37.5200  104.5200 O.2       2 ALA2        0.0000 
     25 OD1        62.3400   32.9100  106.3900 O.co2     3 ASP3        0.0000 
     26 OD1        63.7500   32.5400  106.0300 O.co2     3 ASP3        0.0000 
     27 OD1        67.0800   31.7900  107.3800 O.co2     3 ASP3        0.0000 
     28 OD1        64.2600   33.5600  107.0100 O.co2     3 ASP3        0.0000 
     29 OD1        65.6700   33.2000  106.6500 O.co2     3 ASP3        0.0000 
     30 OD1        62.8500   34.9700  106.2800 O.co2     3 ASP3        0.0000 
     31 OD1        64.2600   34.6000  105.9200 O.co2     3 ASP3        0.0000 
     32 OD1        67.6000   32.8100  108.3500 O.co2     3 ASP3        0.0000 
     33 OD1        69.0100   32.4500  107.9900 O.co2     3 ASP3        0.0000 
     34 OD1        66.1800   34.2200  107.6200 O.co2     3 ASP3        0.0000 
     35 OD1        67.5900   33.8500  107.2600 O.co2     3 ASP3        0.0000 
     36 OD1        64.7700   35.6200  106.8900 O.co2     3 ASP3        0.0000 
     37 OD1        66.1800   35.2500  106.5300 O.co2     3 ASP3        0.0000 
     38 OD1        67.5900   34.8800  106.1800 O.co2     3 ASP3        0.0000 
     39 OD1        66.1700   36.2900  105.4500 O.co2     3 ASP3        0.0000 
     40 OD1        67.5800   36.9500  104.0000 O.co2     3 ASP3        0.0000 
     41 OD1        68.9800   37.6200  102.5600 O.co2     3 ASP3        0.0000 
     42 OD1        68.1100   33.8400  109.3200 O.co2     3 ASP3        0.0000 
     43 OD1        69.5200   33.4700  108.9600 O.co2     3 ASP3        0.0000 
     44 OD1        66.7000   35.2400  108.5900 O.co2     3 ASP3        0.0000 
     45 OD1        68.1100   34.8700  108.2300 O.co2     3 ASP3        0.0000 
     46 OD1        68.1000   35.9100  107.1500 O.co2     3 ASP3        0.0000 
     47 OD1        68.1000   36.9400  106.0600 O.co2     3 ASP3        0.0000 
     48 OD1        69.5000   37.6100  104.6200 O.co2     3 ASP3        0.0000 
     49 OD1        70.9100   37.2400  104.2600 O.co2     3 ASP3        0.0000 
     50 OD1        72.8400   36.8600  105.9600 O.co2     3 ASP3        0.0000 
     51 NZ         62.8400   36.0000  105.1900 N.4       4 LYS4        0.0000 
     52 NZ         63.3500   37.0200  106.1600 N.4       4 LYS4        0.0000 
     53 CZ         62.3200   36.0200  103.1400 C.ar      5 PHE5        0.0000 
     54 CZ         66.1600   38.3600  103.2800 C.ar      5 PHE5        0.0000 
     55 CZ         68.9800   38.6600  101.4700 C.ar      5 PHE5        0.0000 
     56 CZ         70.3900   38.2900  101.1200 C.ar      5 PHE5        0.0000 
     57 CZ         68.0900   37.9800  104.9800 C.ar      5 PHE5        0.0000 
     58 CZ         66.6800   39.3800  104.2500 C.ar      5 PHE5        0.0000 
     59 CZ         68.0900   39.0100  103.8900 C.ar      5 PHE5        0.0000 
     60 CZ         69.4900   38.6400  103.5300 C.ar      5 PHE5        0.0000 
     61 CZ         66.6700   40.4100  103.1600 C.ar      5 PHE5        0.0000 
     62 CZ         68.0800   40.0500  102.8000 C.ar      5 PHE5        0.0000 
     63 CZ         70.0100   38.6300  105.5900 C.ar      5 PHE5        0.0000 
     64 CZ         70.0100   39.6600  104.5000 C.ar      5 PHE5        0.0000 
     65 CA         62.3300   33.9500  105.3100 C.3       6 GLY6        0.0000 
     66 CA         63.7400   33.5800  104.9500 C.3       6 GLY6        0.0000 
     67 CA         62.3300   34.9800  104.2200 C.3       6 GLY6        0.0000 
     68 CA         62.8400   37.0400  104.1100 C.3       6 GLY6        0.0000 
     69 CA         64.7500   38.7200  103.6300 C.3       6 GLY6        0.0000 
     70 CA         70.3900   37.2500  102.2000 C.3       6 GLY6        0.0000 
     71 CA         71.8000   36.8800  101.8500 C.3       6 GLY6        0.0000 
     72 CA         72.3200   36.8700  103.9000 C.3       6 GLY6        0.0000 
     73 CA         73.7300   36.5000  103.5400 C.3       6 GLY6        0.0000 
     74 CA         70.9000   38.2700  103.1700 C.3       6 GLY6        0.0000 
     75 CA         71.4200   38.2600  105.2300 C.3       6 GLY6        0.0000 
     76 DU         64.2500   35.6300  104.8300 H         7 CUB7        0.0000 
     77 DU         64.2400   36.6700  103.7500 H         7 CUB7        0.0000 
     78 DU         64.7600   36.6500  105.8100 H         7 CUB7        0.0000 
     79 DU         64.7600   37.6900  104.7200 H         7 CUB7        0.0000 
     80 DU         66.1700   37.3200  104.3600 H         7 CUB7        0.0000 
     81 DU         67.5700   37.9900  102.9200 H         7 CUB7        0.0000 
     82 DU         66.6900   36.2700  107.5000 H         7 CUB7        0.0000 
@<TRIPOS>BOND
@<TRIPOS>SUBSTRUCTURE
     1 SER1        1 GROUP   
     2 ALA2        9 GROUP   
     3 ASP3       25 GROUP   
     4 LYS4       51 GROUP   
     5 PHE5       53 GROUP   
     6 GLY6       65 GROUP   
     7 CUB7       76 GROUP   
@<TRIPOS>SET

