#    Name: 5y0t_3_TAT
#    Modification time : Fri May 22 19:21:32 2020

@<TRIPOS>MOLECULE
5y0t_3_TAT
   31    33     1     0     0
SMALL
NO_CHARGES


@<TRIPOS>ATOM
      1 N1         21.0210   45.1560  153.0430 N.ar      1 TAT1001     0.0000 
      2 C2         20.0640   44.2180  152.8540 C.ar      1 TAT1001     0.0000 
      3 N3         20.1240   43.3030  151.8720 N.ar      1 TAT1001     0.0000 
      4 C4         21.1870   43.2700  151.0230 C.ar      1 TAT1001     0.0000 
      5 C5         22.2690   44.2520  151.1750 C.ar      1 TAT1001     0.0000 
      6 C6         22.1300   45.2370  152.2690 C.ar      1 TAT1001     0.0000 
      7 N6         23.0800   46.1880  152.4800 N.pl3     1 TAT1001     0.0000 
      8 N7         23.1720   43.9940  150.2070 N.2       1 TAT1001     0.0000 
      9 C8         22.7200   42.9320  149.4860 C.2       1 TAT1001     0.0000 
     10 N9         21.5410   42.5070  149.9950 N.pl3     1 TAT1001     0.0000 
     11 PA         23.5750   40.2780  145.4940 P.3       1 TAT1001     0.0000 
     12 PB         23.6600   43.2440  145.3900 P.3       1 TAT1001     0.0000 
     13 PG         25.5190   45.3540  146.0590 P.3       1 TAT1001     0.0000 
     14 C1'        20.7210   41.4100  149.4740 C.3       1 TAT1001     0.0000 
     15 O1A        26.3800   45.4830  147.2790 O.co2     1 TAT1001     0.0000 
     16 O1B        23.6440   43.6310  143.9460 O.co2     1 TAT1001     0.0000 
     17 S1G        22.3370   39.9840  144.0320 S.3       1 TAT1001     0.0000 
     18 C2'        20.2830   41.7690  148.0600 C.3       1 TAT1001     0.0000 
     19 O2'        19.1540   42.6510  148.0610 O.3       1 TAT1001     0.0000 
     20 O2A        24.6840   39.2560  145.5740 O.2       1 TAT1001     0.0000 
     21 O2B        22.4140   43.3770  146.2150 O.co2     1 TAT1001     0.0000 
     22 O2G        26.2630   45.4140  144.7480 O.co2     1 TAT1001     0.0000 
     23 C3'        19.9840   40.4010  147.4780 C.3       1 TAT1001     0.0000 
     24 O3'        18.6400   40.0300  147.8200 O.3       1 TAT1001     0.0000 
     25 O3A        24.2600   41.7360  145.4510 O.3       1 TAT1001     0.0000 
     26 O3B        24.9570   43.8490  146.1610 O.3       1 TAT1001     0.0000 
     27 O3G        24.2980   46.2400  146.1310 O.co2     1 TAT1001     0.0000 
     28 C4'        20.9580   39.4740  148.2110 C.3       1 TAT1001     0.0000 
     29 O4'        21.4480   40.1930  149.3550 O.3       1 TAT1001     0.0000 
     30 C5'        22.1350   39.0930  147.3350 C.3       1 TAT1001     0.0000 
     31 O5'        22.7630   40.2980  146.8860 O.3       1 TAT1001     0.0000 
@<TRIPOS>BOND
     1    1    2 ar   
     2    1    6 ar   
     3    2    3 ar   
     4    3    4 ar   
     5    4    5 ar   
     6    4   10 1    
     7    5    6 ar   
     8    5    8 1    
     9    6    7 1    
    10    8    9 2    
    11    9   10 1    
    12   10   14 1    
    13   11   17 1    
    14   11   20 2    
    15   11   25 1    
    16   11   31 1    
    17   12   16 ar   
    18   12   21 ar   
    19   12   25 1    
    20   12   26 1    
    21   13   15 ar   
    22   13   22 ar   
    23   13   26 1    
    24   13   27 ar   
    25   14   18 1    
    26   14   29 1    
    27   18   19 1    
    28   18   23 1    
    29   23   24 1    
    30   23   28 1    
    31   28   29 1    
    32   28   30 1    
    33   30   31 1    
@<TRIPOS>SUBSTRUCTURE
     1 TAT1001     1 GROUP   
@<TRIPOS>SET

