#    Name: 6s5t_1_ANP_CAVITY_N1_ALL
#    Modification time : Fri May 22 19:29:52 2020

@<TRIPOS>MOLECULE
6s5t_1_ANP_CAVITY_N1_ALL
   80     0     7     0     0
SMALL
NO_CHARGES


@<TRIPOS>ATOM
      1 OG         63.3300   91.3300   63.9200 O.3       1 SER1        0.0000 
      2 OG         63.1800   92.1400   62.6700 O.3       1 SER1        0.0000 
      3 OG         63.0200   92.9600   61.4200 O.3       1 SER1        0.0000 
      4 OG         63.9700   92.5000   64.6000 O.3       1 SER1        0.0000 
      5 OG         65.1600   92.8500   62.8900 O.3       1 SER1        0.0000 
      6 OG         65.0100   93.6700   61.6400 O.3       1 SER1        0.0000 
      7 O          57.5800   85.5900   62.6800 O.2       2 ALA2        0.0000 
      8 O          58.2300   86.7600   63.3600 O.2       2 ALA2        0.0000 
      9 N          59.0200   87.1100   65.3000 N.am      2 ALA2        0.0000 
     10 N          65.2900   87.2500   59.2000 N.am      2 ALA2        0.0000 
     11 N          63.7900   88.5300   58.4200 N.am      2 ALA2        0.0000 
     12 O          59.6600   88.2800   65.9800 O.2       2 ALA2        0.0000 
     13 N          60.7000   89.4500   63.0200 N.am      2 ALA2        0.0000 
     14 N          64.7400   88.0600   61.6100 N.am      2 ALA2        0.0000 
     15 N          66.0900   87.6000   61.1400 N.am      2 ALA2        0.0000 
     16 N          61.8900   89.8000   61.3000 N.am      2 ALA2        0.0000 
     17 N          64.5900   88.8800   60.3600 N.am      2 ALA2        0.0000 
     18 N          65.9300   88.4200   59.8900 N.am      2 ALA2        0.0000 
     19 N          63.0900   90.1600   59.5800 N.am      2 ALA2        0.0000 
     20 N          64.4300   89.7000   59.1100 N.am      2 ALA2        0.0000 
     21 N          65.7800   89.2300   58.6400 N.am      2 ALA2        0.0000 
     22 O          61.6500   88.9900   66.2000 O.2       2 ALA2        0.0000 
     23 N          65.5400   88.4100   63.5400 N.am      2 ALA2        0.0000 
     24 N          62.6900   90.1600   63.2300 N.am      2 ALA2        0.0000 
     25 N          64.0400   89.6900   62.7600 N.am      2 ALA2        0.0000 
     26 N          65.3800   89.2300   62.2900 N.am      2 ALA2        0.0000 
     27 N          62.5300   90.9700   61.9800 N.am      2 ALA2        0.0000 
     28 N          63.8800   90.5100   61.5100 N.am      2 ALA2        0.0000 
     29 N          66.5800   89.5900   60.5700 N.am      2 ALA2        0.0000 
     30 N          65.0700   90.8700   59.8000 N.am      2 ALA2        0.0000 
     31 N          64.9200   91.6800   58.5500 N.am      2 ALA2        0.0000 
     32 N          66.1800   89.5800   64.2300 N.am      2 ALA2        0.0000 
     33 N          66.0200   90.4000   62.9800 N.am      2 ALA2        0.0000 
     34 N          67.2200   90.7600   61.2600 N.am      2 ALA2        0.0000 
     35 N          65.7100   92.0400   60.4800 N.am      2 ALA2        0.0000 
     36 OD1        61.3400   90.6200   63.7000 O.co2     3 ASP3        0.0000 
     37 OD1        61.9800   91.7900   64.3900 O.co2     3 ASP3        0.0000 
     38 OD1        61.8300   92.6100   63.1400 O.co2     3 ASP3        0.0000 
     39 NZ         56.3900   85.2300   64.3900 N.4       4 LYS4        0.0000 
     40 NZ         56.2400   86.0500   63.1500 N.4       4 LYS4        0.0000 
     41 NZ         57.0300   86.4000   65.0800 N.4       4 LYS4        0.0000 
     42 NZ         58.3800   85.9400   64.6100 N.4       4 LYS4        0.0000 
     43 NZ         55.5300   87.6800   64.3000 N.4       4 LYS4        0.0000 
     44 NZ         56.8800   87.2200   63.8300 N.4       4 LYS4        0.0000 
     45 NZ         57.6800   87.5700   65.7700 N.4       4 LYS4        0.0000 
     46 NZ         57.5200   88.3900   64.5200 N.4       4 LYS4        0.0000 
     47 NZ         58.1600   89.5600   65.2000 N.4       4 LYS4        0.0000 
     48 NZ         60.1500   90.2700   65.4200 N.4       4 LYS4        0.0000 
     49 NZ         61.5000   89.8000   64.9500 N.4       4 LYS4        0.0000 
     50 NZ         62.1400   90.9700   65.6400 N.4       4 LYS4        0.0000 
     51 NZ         62.7800   92.1400   66.3200 N.4       4 LYS4        0.0000 
     52 NZ         63.5800   92.4900   68.2600 N.4       4 LYS4        0.0000 
     53 CZ         64.1300   91.6800   65.8500 C.ar      5 PHE5        0.0000 
     54 CZ         62.6200   92.9600   65.0700 C.ar      5 PHE5        0.0000 
     55 CZ         64.9200   92.0300   67.7900 C.ar      5 PHE5        0.0000 
     56 CZ         66.2700   91.5700   67.3200 C.ar      5 PHE5        0.0000 
     57 CZ         63.4200   93.3100   67.0100 C.ar      5 PHE5        0.0000 
     58 CZ         64.7700   92.8500   66.5400 C.ar      5 PHE5        0.0000 
     59 CA         57.7400   84.7700   63.9200 C.3       6 GLY6        0.0000 
     60 CA         58.8700   87.9300   64.0500 C.3       6 GLY6        0.0000 
     61 CA         60.8600   88.6300   64.2600 C.3       6 GLY6        0.0000 
     62 CA         62.8400   89.3400   64.4800 C.3       6 GLY6        0.0000 
     63 CA         64.1900   88.8800   64.0100 C.3       6 GLY6        0.0000 
     64 CA         67.9200   89.1200   60.1000 C.3       6 GLY6        0.0000 
     65 CA         63.4900   90.5100   65.1700 C.3       6 GLY6        0.0000 
     66 CA         64.8300   90.0500   64.7000 C.3       6 GLY6        0.0000 
     67 CA         65.8700   91.2200   61.7300 C.3       6 GLY6        0.0000 
     68 CA         67.0600   91.5700   60.0100 C.3       6 GLY6        0.0000 
     69 CA         64.2800   90.8600   67.1000 C.3       6 GLY6        0.0000 
     70 CA         65.4700   91.2200   65.3800 C.3       6 GLY6        0.0000 
     71 CA         65.3200   92.0300   64.1300 C.3       6 GLY6        0.0000 
     72 CA         66.5100   92.3900   62.4200 C.3       6 GLY6        0.0000 
     73 CA         66.1200   92.3900   66.0700 C.3       6 GLY6        0.0000 
     74 DU         59.5100   89.1000   64.7300 H         7 CUB7        0.0000 
     75 DU         65.2300   90.0500   61.0400 H         7 CUB7        0.0000 
     76 DU         63.7300   91.3300   60.2700 H         7 CUB7        0.0000 
     77 DU         66.4200   90.4000   59.3200 H         7 CUB7        0.0000 
     78 DU         64.6800   90.8600   63.4500 H         7 CUB7        0.0000 
     79 DU         64.5200   91.6800   62.2000 H         7 CUB7        0.0000 
     80 DU         64.3700   92.5000   60.9500 H         7 CUB7        0.0000 
@<TRIPOS>BOND
@<TRIPOS>SUBSTRUCTURE
     1 SER1        1 GROUP   
     2 ALA2        7 GROUP   
     3 ASP3       36 GROUP   
     4 LYS4       39 GROUP   
     5 PHE5       53 GROUP   
     6 GLY6       59 GROUP   
     7 CUB7       74 GROUP   
@<TRIPOS>SET

