#    Name: 6s5t_1_ANP
#    Modification time : Fri May 22 19:29:51 2020

@<TRIPOS>MOLECULE
6s5t_1_ANP
   31    33     1     0     1
SMALL
NO_CHARGES


@<TRIPOS>ATOM
      1 PG         56.9500   93.9200   60.4520 P.3       1 ANP901      0.0000 
      2 O1G        55.4820   94.2450   60.5670 O.co2     1 ANP901      0.0000 
      3 O2G        57.3180   93.0680   61.6430 O.co2     1 ANP901      0.0000 
      4 O3G        57.7190   95.2160   60.5340 O.co2     1 ANP901      0.0000 
      5 PB         58.6130   92.4120   58.4970 P.3       1 ANP901      0.0000 
      6 O1B        58.2880   91.1670   57.7180 O.co2     1 ANP901      0.0000 
      7 O2B        59.5840   93.3950   57.9010 O.co2     1 ANP901      0.0000 
      8 N3B        57.2460   93.1460   59.0360 N.3       1 ANP901      0.0000 
      9 PA         60.5520   92.4210   60.7190 P.3       1 ANP901      0.0000 
     10 O1A        60.6920   91.5370   61.9140 O.co2     1 ANP901      0.0000 
     11 O2A        60.3980   93.8880   60.9440 O.co2     1 ANP901      0.0000 
     12 O3A        59.3200   91.8880   59.8380 O.3       1 ANP901      0.0000 
     13 O5'        61.7660   92.1680   59.7050 O.3       1 ANP901      0.0000 
     14 C5'        62.3250   90.8370   59.6340 C.3       1 ANP901      0.0000 
     15 C4'        63.7430   90.8750   60.1470 C.3       1 ANP901      0.0000 
     16 O4'        63.7660   91.2340   61.5530 O.3       1 ANP901      0.0000 
     17 C3'        64.5350   89.5590   60.0710 C.3       1 ANP901      0.0000 
     18 O3'        65.3570   89.5030   58.9090 O.3       1 ANP901      0.0000 
     19 C2'        65.3300   89.5150   61.3870 C.3       1 ANP901      0.0000 
     20 O2'        66.7110   89.2880   61.2040 O.3       1 ANP901      0.0000 
     21 C1'        65.0510   90.8860   62.0050 C.3       1 ANP901      0.0000 
     22 N9         65.1670   90.9450   63.4780 N.pl3     1 ANP901      0.0000 
     23 C8         66.2200   90.4270   64.1610 C.2       1 ANP901      0.0000 
     24 N7         66.1380   90.6120   65.4550 N.2       1 ANP901      0.0000 
     25 C5         64.9430   91.2860   65.6350 C.ar      1 ANP901      0.0000 
     26 C6         64.2940   91.7540   66.7940 C.ar      1 ANP901      0.0000 
     27 N6         64.7780   91.6080   68.0230 N.pl3     1 ANP901      0.0000 
     28 N1         63.1110   92.3890   66.6260 N.ar      1 ANP901      0.0000 
     29 C2         62.6330   92.5250   65.3790 C.ar      1 ANP901      0.0000 
     30 N3         63.1600   92.1310   64.2180 N.ar      1 ANP901      0.0000 
     31 C4         64.3320   91.5040   64.4150 C.ar      1 ANP901      0.0000 
@<TRIPOS>BOND
     1    1    2 ar   
     2    1    3 ar   
     3    1    4 ar   
     4    1    8 1    
     5    5    6 ar   
     6    5    7 ar   
     7    5    8 1    
     8    5   12 1    
     9    9   10 ar   
    10    9   11 ar   
    11    9   12 1    
    12    9   13 1    
    13   13   14 1    
    14   14   15 1    
    15   15   16 1    
    16   15   17 1    
    17   16   21 1    
    18   17   18 1    
    19   17   19 1    
    20   19   20 1    
    21   19   21 1    
    22   21   22 1    
    23   22   23 1    
    24   22   31 1    
    25   23   24 2    
    26   24   25 1    
    27   25   26 ar   
    28   25   31 ar   
    29   26   27 1    
    30   26   28 ar   
    31   28   29 ar   
    32   29   30 ar   
    33   30   31 ar   
@<TRIPOS>SUBSTRUCTURE
     1 ANP901      1 GROUP   
@<TRIPOS>SET
ATOM$ORANGE STATIC     ATOMS   COLORGROUP SYSTEM 
20 14 14 15 15 17 17 19 19 21 21 23 23 25 25 26 26 29 \
29 31 31 

