#    Name: 6er5_1_FAD
#    Modification time : Fri May 22 19:34:06 2020

@<TRIPOS>MOLECULE
6er5_1_FAD
   53    58     1     0     1
SMALL
NO_CHARGES


@<TRIPOS>ATOM
      1 PA          4.9640  -31.4350   -7.8600 P.3       1 FAD501      0.0000 
      2 O1A         4.7280  -32.2580   -6.6170 O.co2     1 FAD501      0.0000 
      3 O2A         3.9000  -30.5020   -8.3850 O.co2     1 FAD501      0.0000 
      4 O5B         5.2860  -32.4140   -9.0910 O.3       1 FAD501      0.0000 
      5 C5B         6.2810  -33.4230   -9.0090 C.3       1 FAD501      0.0000 
      6 C4B         6.2220  -34.2780  -10.2670 C.3       1 FAD501      0.0000 
      7 O4B         7.5020  -34.8680  -10.4850 O.3       1 FAD501      0.0000 
      8 C3B         5.2070  -35.4170  -10.1710 C.3       1 FAD501      0.0000 
      9 O3B         4.3020  -35.3900  -11.2820 O.3       1 FAD501      0.0000 
     10 C2B         6.0260  -36.6920  -10.1660 C.3       1 FAD501      0.0000 
     11 O2B         5.3890  -37.7820  -10.8540 O.3       1 FAD501      0.0000 
     12 C1B         7.3130  -36.2320  -10.8470 C.3       1 FAD501      0.0000 
     13 N9A         8.5080  -37.0370  -10.5110 N.pl3     1 FAD501      0.0000 
     14 C8A         8.8400  -37.5990   -9.3400 C.2       1 FAD501      0.0000 
     15 N7A        10.0170  -38.2640   -9.4520 N.2       1 FAD501      0.0000 
     16 C5A        10.4540  -38.1330  -10.7090 C.ar      1 FAD501      0.0000 
     17 C6A        11.6210  -38.5790  -11.5040 C.ar      1 FAD501      0.0000 
     18 N6A        12.6070  -39.3320  -10.9750 N.pl3     1 FAD501      0.0000 
     19 N1A        11.6740  -38.1990  -12.7970 N.ar      1 FAD501      0.0000 
     20 C2A        10.7090  -37.4450  -13.3660 C.ar      1 FAD501      0.0000 
     21 N3A         9.6280  -37.0120  -12.6960 N.ar      1 FAD501      0.0000 
     22 C4A         9.4500  -37.3180  -11.3960 C.ar      1 FAD501      0.0000 
     23 N1         -0.6280  -26.4220   -2.2120 N.2       1 FAD501      0.0000 
     24 C2         -1.3920  -25.2860   -2.2030 C.2       1 FAD501      0.0000 
     25 O2         -0.8750  -24.1830   -2.4970 O.2       1 FAD501      0.0000 
     26 N3         -2.7040  -25.3000   -1.8890 N.am      1 FAD501      0.0000 
     27 C4         -3.3330  -26.4350   -1.5590 C.2       1 FAD501      0.0000 
     28 O4         -4.5430  -26.4030   -1.2670 O.2       1 FAD501      0.0000 
     29 C4X        -2.5720  -27.7150   -1.5370 C.2       1 FAD501      0.0000 
     30 N5         -3.1540  -28.8920   -1.2240 N.2       1 FAD501      0.0000 
     31 C5X        -2.4540  -30.0510   -1.2140 C.ar      1 FAD501      0.0000 
     32 C6         -3.1150  -31.2310   -0.8740 C.ar      1 FAD501      0.0000 
     33 C7         -2.4330  -32.4490   -0.8570 C.ar      1 FAD501      0.0000 
     34 C7M        -3.1520  -33.7220   -0.4840 C.3       1 FAD501      0.0000 
     35 C8         -0.9870  -32.4870   -1.2060 C.ar      1 FAD501      0.0000 
     36 C8M        -0.2350  -33.7920   -1.1840 C.3       1 FAD501      0.0000 
     37 C9         -0.3220  -31.3100   -1.5440 C.ar      1 FAD501      0.0000 
     38 C9A        -0.9940  -30.0730   -1.5690 C.ar      1 FAD501      0.0000 
     39 N10        -0.3610  -28.8370   -1.9140 N.pl3     1 FAD501      0.0000 
     40 C10        -1.1360  -27.6460   -1.9030 C.2       1 FAD501      0.0000 
     41 C1'         1.0720  -28.7420   -2.2500 C.3       1 FAD501      0.0000 
     42 C2'         1.3740  -28.9320   -3.7320 C.3       1 FAD501      0.0000 
     43 O2'         0.8090  -30.1670   -4.1920 O.3       1 FAD501      0.0000 
     44 C3'         2.8860  -28.9200   -3.9960 C.3       1 FAD501      0.0000 
     45 O3'         3.5380  -27.9730   -3.1350 O.3       1 FAD501      0.0000 
     46 C4'         3.2570  -28.5850   -5.4430 C.3       1 FAD501      0.0000 
     47 O4'         2.6580  -29.5430   -6.3210 O.3       1 FAD501      0.0000 
     48 C5'         4.7770  -28.5660   -5.6290 C.3       1 FAD501      0.0000 
     49 O5'         5.1550  -28.4960   -7.0000 O.3       1 FAD501      0.0000 
     50 P           6.5660  -29.0990   -7.5020 P.3       1 FAD501      0.0000 
     51 O1P         6.7900  -28.5480   -8.8980 O.co2     1 FAD501      0.0000 
     52 O2P         7.6230  -28.9730   -6.4240 O.co2     1 FAD501      0.0000 
     53 O3P         6.3660  -30.6890   -7.6350 O.3       1 FAD501      0.0000 
@<TRIPOS>BOND
     1    1    2 ar   
     2    1    3 ar   
     3    1    4 1    
     4    1   53 1    
     5    4    5 1    
     6    5    6 1    
     7    6    7 1    
     8    6    8 1    
     9    7   12 1    
    10    8    9 1    
    11    8   10 1    
    12   10   11 1    
    13   10   12 1    
    14   12   13 1    
    15   13   14 1    
    16   13   22 1    
    17   14   15 2    
    18   15   16 1    
    19   16   17 ar   
    20   16   22 ar   
    21   17   18 1    
    22   17   19 ar   
    23   19   20 ar   
    24   20   21 ar   
    25   21   22 ar   
    26   23   24 1    
    27   23   40 2    
    28   24   25 2    
    29   24   26 am   
    30   26   27 am   
    31   27   28 2    
    32   27   29 1    
    33   29   30 2    
    34   29   40 1    
    35   30   31 1    
    36   31   32 ar   
    37   31   38 ar   
    38   32   33 ar   
    39   33   34 1    
    40   33   35 ar   
    41   35   36 1    
    42   35   37 ar   
    43   37   38 ar   
    44   38   39 1    
    45   39   40 1    
    46   39   41 1    
    47   41   42 1    
    48   42   43 1    
    49   42   44 1    
    50   44   45 1    
    51   44   46 1    
    52   46   47 1    
    53   46   48 1    
    54   48   49 1    
    55   49   50 1    
    56   50   51 ar   
    57   50   52 ar   
    58   50   53 1    
@<TRIPOS>SUBSTRUCTURE
     1 FAD501      1 GROUP   
@<TRIPOS>SET
ATOM$ORANGE STATIC     ATOMS   COLORGROUP SYSTEM 
54 5 5 6 6 8 8 10 10 12 12 14 14 16 16 17 17 20 \
20 22 22 24 24 27 27 29 29 31 31 32 32 33 33 34 34 35 \
35 36 36 37 37 38 38 40 40 41 41 42 42 44 44 46 46 48 \
48 

