#    Name: 6qtn_1_GTP_CAVITY_N1_12
#    Modification time : Fri May 22 19:29:09 2020

@<TRIPOS>MOLECULE
6qtn_1_GTP_CAVITY_N1_12
   68     0     6     0     0
SMALL
NO_CHARGES


@<TRIPOS>ATOM
      1 OG         15.5500   75.3600   47.7300 O.3       1 SER1        0.0000 
      2 O          12.3200   73.9100   42.0400 O.2       2 ALA2        0.0000 
      3 O          13.0900   75.7700   42.7100 O.2       2 ALA2        0.0000 
      4 O          12.4500   74.5900   43.3700 O.2       2 ALA2        0.0000 
      5 N          11.1000   75.2100   43.1900 N.am      2 ALA2        0.0000 
      6 O          10.4600   74.0300   43.8500 O.2       2 ALA2        0.0000 
      7 N          12.5300   71.5900   44.8800 N.am      2 ALA2        0.0000 
      8 N          11.1800   72.2200   44.7000 N.am      2 ALA2        0.0000 
      9 O           9.8300   72.8500   44.5200 O.2       2 ALA2        0.0000 
     10 N          11.3100   72.9000   46.0300 N.am      2 ALA2        0.0000 
     11 N          12.0200   71.0900   46.8800 N.am      2 ALA2        0.0000 
     12 N          10.6700   71.7100   46.7000 N.am      2 ALA2        0.0000 
     13 N          11.5200   70.5800   48.8800 N.am      2 ALA2        0.0000 
     14 N          14.9200   74.1800   48.4000 N.am      2 ALA2        0.0000 
     15 N          13.5600   74.8100   48.2200 N.am      2 ALA2        0.0000 
     16 O          12.9100   80.2900   47.1900 O.2       2 ALA2        0.0000 
     17 O          12.2700   79.1000   47.8500 O.2       2 ALA2        0.0000 
     18 O          13.1200   77.9700   50.0300 O.2       2 ALA2        0.0000 
     19 OD1         9.9600   73.5200   45.8500 O.co2     3 ASP3        0.0000 
     20 OD1         9.3200   72.3400   46.5200 O.co2     3 ASP3        0.0000 
     21 OD1        12.0800   74.7600   46.7000 O.co2     3 ASP3        0.0000 
     22 OD1        10.7300   75.3800   46.5200 O.co2     3 ASP3        0.0000 
     23 OD1        11.4400   73.5700   47.3700 O.co2     3 ASP3        0.0000 
     24 OD1        10.0900   74.2000   47.1800 O.co2     3 ASP3        0.0000 
     25 OD1        12.1500   71.7600   48.2100 O.co2     3 ASP3        0.0000 
     26 OD1        10.1600   71.2100   48.7000 O.co2     3 ASP3        0.0000 
     27 OD1        11.5000   77.2400   47.1800 O.co2     3 ASP3        0.0000 
     28 OD1        12.2100   75.4300   48.0300 O.co2     3 ASP3        0.0000 
     29 OD1        10.8600   76.0600   47.8500 O.co2     3 ASP3        0.0000 
     30 OD1        12.9300   73.6200   48.8800 O.co2     3 ASP3        0.0000 
     31 OD1        12.9900   77.2900   48.7000 O.co2     3 ASP3        0.0000 
     32 OD1        11.6300   77.9200   48.5200 O.co2     3 ASP3        0.0000 
     33 OD1        12.3500   76.1100   49.3600 O.co2     3 ASP3        0.0000 
     34 CZ         14.1300   78.9800   46.0400 C.ar      4 PHE5        0.0000 
     35 CZ         13.6200   78.4800   48.0400 C.ar      4 PHE5        0.0000 
     36 CZ         14.3400   76.6700   48.8800 C.ar      4 PHE5        0.0000 
     37 CA         11.6800   72.7300   42.7000 C.3       5 GLY6        0.0000 
     38 CA         11.7400   76.4000   42.5200 C.3       5 GLY6        0.0000 
     39 CA         13.1700   72.7800   44.2200 C.3       5 GLY6        0.0000 
     40 CA         13.8600   77.6300   43.3700 C.3       5 GLY6        0.0000 
     41 CA         13.2300   76.4500   44.0400 C.3       5 GLY6        0.0000 
     42 CA         12.5900   75.2600   44.7000 C.3       5 GLY6        0.0000 
     43 CA         13.3000   73.4500   45.5500 C.3       5 GLY6        0.0000 
     44 CA         12.6600   72.2700   46.2200 C.3       5 GLY6        0.0000 
     45 CA         14.0000   78.3100   44.7100 C.3       5 GLY6        0.0000 
     46 CA         13.3600   77.1200   45.3700 C.3       5 GLY6        0.0000 
     47 CA         14.0700   75.3100   46.2200 C.3       5 GLY6        0.0000 
     48 CA         12.7200   75.9400   46.0400 C.3       5 GLY6        0.0000 
     49 CA         14.7800   73.5000   47.0700 C.3       5 GLY6        0.0000 
     50 CA         13.4300   74.1300   46.8800 C.3       5 GLY6        0.0000 
     51 CA         12.7900   72.9500   47.5500 C.3       5 GLY6        0.0000 
     52 CA         13.5100   71.1400   48.4000 C.3       5 GLY6        0.0000 
     53 CA         15.4800   78.3600   46.2200 C.3       5 GLY6        0.0000 
     54 CA         14.8400   77.1700   46.8900 C.3       5 GLY6        0.0000 
     55 CA         13.4900   77.8000   46.7000 C.3       5 GLY6        0.0000 
     56 CA         14.2000   75.9900   47.5500 C.3       5 GLY6        0.0000 
     57 CA         13.7000   75.4800   49.5500 C.3       5 GLY6        0.0000 
     58 DU         11.8100   73.4000   44.0400 H         6 CUB7        0.0000 
     59 DU         11.8700   77.0700   43.8600 H         6 CUB7        0.0000 
     60 DU         11.2400   75.8900   44.5200 H         6 CUB7        0.0000 
     61 DU         11.9500   74.0800   45.3700 H         6 CUB7        0.0000 
     62 DU         10.6000   74.7100   45.1900 H         6 CUB7        0.0000 
     63 DU         12.6500   78.9300   44.5200 H         6 CUB7        0.0000 
     64 DU         12.0100   77.7500   45.1900 H         6 CUB7        0.0000 
     65 DU         11.3700   76.5700   45.8500 H         6 CUB7        0.0000 
     66 DU         12.7800   79.6100   45.8600 H         6 CUB7        0.0000 
     67 DU         12.1400   78.4300   46.5200 H         6 CUB7        0.0000 
     68 DU         12.8500   76.6200   47.3700 H         6 CUB7        0.0000 
@<TRIPOS>BOND
@<TRIPOS>SUBSTRUCTURE
     1 SER1        1 GROUP   
     2 ALA2        2 GROUP   
     3 ASP3       19 GROUP   
     4 PHE5       34 GROUP   
     5 GLY6       37 GROUP   
     6 CUB7       58 GROUP   
@<TRIPOS>SET

