#    Name: 6qtn_1_GTP_CAVITY_N1_8
#    Modification time : Fri May 22 19:29:09 2020

@<TRIPOS>MOLECULE
6qtn_1_GTP_CAVITY_N1_8
   25     0     6     0     0
SMALL
NO_CHARGES


@<TRIPOS>ATOM
      1 OG         15.5500   75.3600   47.7300 O.3       1 SER1        0.0000 
      2 N          14.9200   74.1800   48.4000 N.am      2 ALA2        0.0000 
      3 N          13.5600   74.8100   48.2200 N.am      2 ALA2        0.0000 
      4 O          12.9100   80.2900   47.1900 O.2       2 ALA2        0.0000 
      5 O          12.2700   79.1000   47.8500 O.2       2 ALA2        0.0000 
      6 O          13.1200   77.9700   50.0300 O.2       2 ALA2        0.0000 
      7 OD1        12.1500   71.7600   48.2100 O.co2     3 ASP3        0.0000 
      8 OD1        12.2100   75.4300   48.0300 O.co2     3 ASP3        0.0000 
      9 OD1        12.9300   73.6200   48.8800 O.co2     3 ASP3        0.0000 
     10 OD1        12.9900   77.2900   48.7000 O.co2     3 ASP3        0.0000 
     11 OD1        12.3500   76.1100   49.3600 O.co2     3 ASP3        0.0000 
     12 CZ         14.1300   78.9800   46.0400 C.ar      4 PHE5        0.0000 
     13 CZ         13.6200   78.4800   48.0400 C.ar      4 PHE5        0.0000 
     14 CZ         14.3400   76.6700   48.8800 C.ar      4 PHE5        0.0000 
     15 CA         14.0700   75.3100   46.2200 C.3       5 GLY6        0.0000 
     16 CA         14.7800   73.5000   47.0700 C.3       5 GLY6        0.0000 
     17 CA         13.4300   74.1300   46.8800 C.3       5 GLY6        0.0000 
     18 CA         12.7900   72.9500   47.5500 C.3       5 GLY6        0.0000 
     19 CA         13.5100   71.1400   48.4000 C.3       5 GLY6        0.0000 
     20 CA         15.4800   78.3600   46.2200 C.3       5 GLY6        0.0000 
     21 CA         14.8400   77.1700   46.8900 C.3       5 GLY6        0.0000 
     22 CA         13.4900   77.8000   46.7000 C.3       5 GLY6        0.0000 
     23 CA         14.2000   75.9900   47.5500 C.3       5 GLY6        0.0000 
     24 CA         13.7000   75.4800   49.5500 C.3       5 GLY6        0.0000 
     25 DU         12.8500   76.6200   47.3700 H         6 CUB7        0.0000 
@<TRIPOS>BOND
@<TRIPOS>SUBSTRUCTURE
     1 SER1        1 GROUP   
     2 ALA2        2 GROUP   
     3 ASP3        7 GROUP   
     4 PHE5       12 GROUP   
     5 GLY6       15 GROUP   
     6 CUB7       25 GROUP   
@<TRIPOS>SET

