#    Name: 6qtn_1_GTP
#    Modification time : Fri May 22 19:29:06 2020

@<TRIPOS>MOLECULE
6qtn_1_GTP
   32    34     1     0     1
SMALL
NO_CHARGES


@<TRIPOS>ATOM
      1 PG         27.1940   73.8540   45.8970 P.3       1 GTP501      0.0000 
      2 O1G        28.4740   74.2030   45.1820 O.co2     1 GTP501      0.0000 
      3 O2G        27.0320   72.3760   46.0960 O.co2     1 GTP501      0.0000 
      4 O3G        26.0320   74.5020   45.1740 O.co2     1 GTP501      0.0000 
      5 O3B        27.3320   74.4710   47.3920 O.3       1 GTP501      0.0000 
      6 PB         26.4680   75.7340   47.8830 P.3       1 GTP501      0.0000 
      7 O1B        26.2280   76.7360   46.8100 O.co2     1 GTP501      0.0000 
      8 O2B        27.1620   76.3530   49.0890 O.co2     1 GTP501      0.0000 
      9 O3A        25.0780   75.0580   48.3260 O.3       1 GTP501      0.0000 
     10 PA         23.9000   75.8000   49.1460 P.3       1 GTP501      0.0000 
     11 O1A        22.7600   76.1010   48.2110 O.co2     1 GTP501      0.0000 
     12 O2A        24.3930   77.0600   49.8270 O.co2     1 GTP501      0.0000 
     13 O5'        23.5770   74.6430   50.1980 O.3       1 GTP501      0.0000 
     14 C5'        22.3510   73.9690   50.3080 C.3       1 GTP501      0.0000 
     15 C4'        21.8270   74.2130   51.7220 C.3       1 GTP501      0.0000 
     16 O4'        21.7190   75.6150   51.9390 O.3       1 GTP501      0.0000 
     17 C3'        20.4290   73.6440   51.8510 C.3       1 GTP501      0.0000 
     18 O3'        20.2550   73.2220   53.1840 O.3       1 GTP501      0.0000 
     19 C2'        19.5510   74.8380   51.5430 C.3       1 GTP501      0.0000 
     20 O2'        18.2830   74.6930   52.1380 O.3       1 GTP501      0.0000 
     21 C1'        20.3620   75.9930   52.1150 C.3       1 GTP501      0.0000 
     22 N9         20.1840   77.2790   51.4050 N.pl3     1 GTP501      0.0000 
     23 C8         20.5380   77.5960   50.1150 C.2       1 GTP501      0.0000 
     24 N7         20.2340   78.9000   49.8900 N.2       1 GTP501      0.0000 
     25 C5         19.7150   79.4290   51.0250 C.2       1 GTP501      0.0000 
     26 C6         19.2430   80.6980   51.3610 C.2       1 GTP501      0.0000 
     27 O6         19.2450   81.6290   50.5480 O.2       1 GTP501      0.0000 
     28 N1         18.7670   80.9180   52.6360 N.am      1 GTP501      0.0000 
     29 C2         18.7540   79.9000   53.5640 C.2       1 GTP501      0.0000 
     30 N2         18.2890   80.1190   54.7940 N.pl3     1 GTP501      0.0000 
     31 N3         19.2180   78.6480   53.2230 N.2       1 GTP501      0.0000 
     32 C4         19.6920   78.4190   51.9800 C.2       1 GTP501      0.0000 
@<TRIPOS>BOND
     1    1    2 ar   
     2    1    3 ar   
     3    1    4 ar   
     4    1    5 1    
     5    5    6 1    
     6    6    7 ar   
     7    6    8 ar   
     8    6    9 1    
     9    9   10 1    
    10   10   11 ar   
    11   10   12 ar   
    12   10   13 1    
    13   13   14 1    
    14   14   15 1    
    15   15   16 1    
    16   15   17 1    
    17   16   21 1    
    18   17   18 1    
    19   17   19 1    
    20   19   20 1    
    21   19   21 1    
    22   21   22 1    
    23   22   23 1    
    24   22   32 1    
    25   23   24 2    
    26   24   25 1    
    27   25   26 1    
    28   25   32 2    
    29   26   27 2    
    30   26   28 am   
    31   28   29 1    
    32   29   30 1    
    33   29   31 2    
    34   31   32 1    
@<TRIPOS>SUBSTRUCTURE
     1 GTP501      1 GROUP   
@<TRIPOS>SET
ATOM$ORANGE STATIC     ATOMS   COLORGROUP SYSTEM 
20 14 14 15 15 17 17 19 19 21 21 23 23 25 25 26 26 29 \
29 32 32 

