#    Name: 6qtn_5_ACP
#    Modification time : Fri May 22 19:29:15 2020

@<TRIPOS>MOLECULE
6qtn_5_ACP
   45    47     1     0     1
SMALL
NO_CHARGES


@<TRIPOS>ATOM
      1 PG          7.5990   50.0780   94.2600 P.3       1 ACP401      0.0000 
      2 O1G         8.5180   50.4010   93.1460 O.co2     1 ACP401      0.0000 
      3 O2G         7.4730   48.4770   94.4100 O.co2     1 ACP401      0.0000 
      4 O3G         6.1480   50.6950   93.9450 O.co2     1 ACP401      0.0000 
      5 PB          9.9440   50.2360   96.1400 P.3       1 ACP401      0.0000 
      6 O1B        10.6650   50.1670   94.8500 O.co2     1 ACP401      0.0000 
      7 O2B         9.9340   48.7640   96.7870 O.co2     1 ACP401      0.0000 
      8 C3B         8.2380   50.7990   95.8100 C.3       1 ACP401      0.0000 
      9 PA          9.9760   51.6370   98.4750 P.3       1 ACP401      0.0000 
     10 O1A        10.6690   52.8030   99.0630 O.co2     1 ACP401      0.0000 
     11 O2A         8.4550   52.0940   98.2130 O.co2     1 ACP401      0.0000 
     12 O3A        10.7420   51.2680   97.0970 O.3       1 ACP401      0.0000 
     13 O5'        10.0750   50.4360   99.5550 O.3       1 ACP401      0.0000 
     14 C5'         8.9600   49.5560   99.4100 C.3       1 ACP401      0.0000 
     15 C4'         8.3220   49.2720  100.7770 C.3       1 ACP401      0.0000 
     16 O4'         8.9840   49.9740  101.8420 O.3       1 ACP401      0.0000 
     17 C3'         6.9040   49.8660  100.6530 C.3       1 ACP401      0.0000 
     18 O3'         5.8840   48.9250  100.3230 O.3       1 ACP401      0.0000 
     19 C2'         6.6330   50.4550  102.0530 C.3       1 ACP401      0.0000 
     20 O2'         5.6810   49.6640  102.7710 O.3       1 ACP401      0.0000 
     21 C1'         7.9720   50.3480  102.8040 C.3       1 ACP401      0.0000 
     22 N9          8.3810   51.6410  103.3460 N.pl3     1 ACP401      0.0000 
     23 C8          9.2280   52.4840  102.6950 C.2       1 ACP401      0.0000 
     24 N7          9.4180   53.5520  103.4060 N.2       1 ACP401      0.0000 
     25 C5          8.7130   53.4680  104.5560 C.ar      1 ACP401      0.0000 
     26 C6          8.5490   54.3140  105.6660 C.ar      1 ACP401      0.0000 
     27 N6          9.1940   55.5380  105.7320 N.pl3     1 ACP401      0.0000 
     28 N1          7.7610   53.9090  106.6530 N.ar      1 ACP401      0.0000 
     29 C2          7.1440   52.7410  106.5920 C.ar      1 ACP401      0.0000 
     30 N3          7.2650   51.9160  105.5710 N.ar      1 ACP401      0.0000 
     31 C4          8.0350   52.2340  104.5370 C.ar      1 ACP401      0.0000 
     32 H3B1        8.2310   51.7660   95.7360 H         1 ACP401      0.0000 
     33 H3B2        7.6660   50.5270   96.5450 H         1 ACP401      0.0000 
     34 H5'1        8.2990   49.9670   98.8310 H         1 ACP401      0.0000 
     35 H5'2        9.2580   48.7200   99.0190 H         1 ACP401      0.0000 
     36 H4'         8.3360   48.3360  101.0320 H         1 ACP401      0.0000 
     37 H3'         6.9320   50.5420   99.9580 H         1 ACP401      0.0000 
     38 HO3'        5.2730   49.3560   99.9190 H         1 ACP401      0.0000 
     39 H2'         6.3450   51.3750  101.9420 H         1 ACP401      0.0000 
     40 HO2'        5.0160   49.5510  102.2550 H         1 ACP401      0.0000 
     41 H1'         7.8550   49.6690  103.4870 H         1 ACP401      0.0000 
     42 H8          9.6130   52.3180  101.8650 H         1 ACP401      0.0000 
     43 HN61        9.6740   55.8070  105.0710 H         1 ACP401      0.0000 
     44 HN62        9.1140   56.0300  106.4330 H         1 ACP401      0.0000 
     45 H2          6.5990   52.4890  107.3020 H         1 ACP401      0.0000 
@<TRIPOS>BOND
     1    1    2 ar   
     2    1    3 ar   
     3    1    4 ar   
     4    1    8 1    
     5    5    6 ar   
     6    5    7 ar   
     7    5    8 1    
     8    5   12 1    
     9    8   32 1    
    10    8   33 1    
    11    9   10 ar   
    12    9   11 ar   
    13    9   12 1    
    14    9   13 1    
    15   13   14 1    
    16   14   15 1    
    17   14   34 1    
    18   14   35 1    
    19   15   16 1    
    20   15   17 1    
    21   15   36 1    
    22   16   21 1    
    23   17   18 1    
    24   17   19 1    
    25   17   37 1    
    26   18   38 1    
    27   19   20 1    
    28   19   21 1    
    29   19   39 1    
    30   20   40 1    
    31   21   22 1    
    32   21   41 1    
    33   22   23 1    
    34   22   31 1    
    35   23   24 2    
    36   24   25 1    
    37   23   42 1    
    38   25   26 ar   
    39   25   31 ar   
    40   26   27 1    
    41   26   28 ar   
    42   28   29 ar   
    43   27   43 1    
    44   27   44 1    
    45   29   30 ar   
    46   30   31 ar   
    47   29   45 1    
@<TRIPOS>SUBSTRUCTURE
     1 ACP401      1 GROUP   
@<TRIPOS>SET
ATOM$ORANGE STATIC     ATOMS   COLORGROUP SYSTEM 
22 8 8 14 14 15 15 17 17 19 19 21 21 23 23 25 25 26 \
26 29 29 31 31 

