#    Name: 6bih_1_ADP
#    Modification time : Fri May 22 19:25:02 2020

@<TRIPOS>MOLECULE
6bih_1_ADP
   27    29     1     0     1
SMALL
NO_CHARGES


@<TRIPOS>ATOM
      1 PB        197.1140  202.5340  212.6430 P.3       1 ADP401      0.0000 
      2 O1B       196.8250  202.9130  211.2520 O.co2     1 ADP401      0.0000 
      3 O2B       196.4100  203.5010  213.5400 O.co2     1 ADP401      0.0000 
      4 O3B       196.9260  201.0380  212.9940 O.co2     1 ADP401      0.0000 
      5 PA        199.7820  203.5730  211.9900 P.3       1 ADP401      0.0000 
      6 O1A       199.5460  203.5880  210.5360 O.co2     1 ADP401      0.0000 
      7 O2A       199.9680  204.9180  212.6140 O.co2     1 ADP401      0.0000 
      8 O3A       198.6770  202.7760  212.7900 O.3       1 ADP401      0.0000 
      9 O5'       201.1040  202.6840  212.1700 O.3       1 ADP401      0.0000 
     10 C5'       201.6970  202.6270  213.5140 C.3       1 ADP401      0.0000 
     11 C4'       202.0070  201.1470  213.7700 C.3       1 ADP401      0.0000 
     12 O4'       203.4460  201.0240  213.9360 O.3       1 ADP401      0.0000 
     13 C3'       201.3390  200.6340  215.0760 C.3       1 ADP401      0.0000 
     14 O3'       200.9030  199.2790  214.8040 O.3       1 ADP401      0.0000 
     15 C2'       202.5330  200.5830  216.0430 C.3       1 ADP401      0.0000 
     16 O2'       202.3870  199.5940  217.0760 O.3       1 ADP401      0.0000 
     17 C1'       203.7080  200.3640  215.1300 C.3       1 ADP401      0.0000 
     18 N9        204.9990  200.7490  215.6720 N.pl3     1 ADP401      0.0000 
     19 C8        205.3410  201.8930  216.3200 C.2       1 ADP401      0.0000 
     20 N7        206.5730  201.9650  216.7500 N.2       1 ADP401      0.0000 
     21 C5        207.0790  200.8070  216.3340 C.ar      1 ADP401      0.0000 
     22 C6        208.3490  200.2850  216.4950 C.ar      1 ADP401      0.0000 
     23 N6        209.3330  200.9420  217.1250 N.pl3     1 ADP401      0.0000 
     24 N1        208.5480  199.0770  215.9870 N.ar      1 ADP401      0.0000 
     25 C2        207.5480  198.3700  215.3300 C.ar      1 ADP401      0.0000 
     26 N3        206.3050  198.7910  215.1450 N.ar      1 ADP401      0.0000 
     27 C4        206.1650  200.0160  215.6840 C.ar      1 ADP401      0.0000 
@<TRIPOS>BOND
     1    1    2 ar   
     2    1    3 ar   
     3    1    4 ar   
     4    1    8 1    
     5    5    6 ar   
     6    5    7 ar   
     7    5    8 1    
     8    5    9 1    
     9    9   10 1    
    10   10   11 1    
    11   11   12 1    
    12   11   13 1    
    13   12   17 1    
    14   13   14 1    
    15   13   15 1    
    16   15   16 1    
    17   15   17 1    
    18   17   18 1    
    19   18   19 1    
    20   18   27 1    
    21   19   20 2    
    22   20   21 1    
    23   21   22 ar   
    24   21   27 ar   
    25   22   23 1    
    26   22   24 ar   
    27   24   25 ar   
    28   25   26 ar   
    29   26   27 ar   
@<TRIPOS>SUBSTRUCTURE
     1 ADP401      1 GROUP   
@<TRIPOS>SET
ATOM$ORANGE STATIC     ATOMS   COLORGROUP SYSTEM 
20 10 10 11 11 13 13 15 15 17 17 19 19 21 21 22 22 25 \
25 27 27 

