#    Name: 6uc4_8_ADP
#    Modification time : Fri May 22 19:28:59 2020

@<TRIPOS>MOLECULE
6uc4_8_ADP
   27    29     1     0     1
SMALL
NO_CHARGES


@<TRIPOS>ATOM
      1 PB        149.2140  129.7600   88.6880 P.3       1 ADP402      0.0000 
      2 O1B       147.9240  130.3190   88.1380 O.co2     1 ADP402      0.0000 
      3 O2B       149.3350  128.2580   88.6010 O.co2     1 ADP402      0.0000 
      4 O3B       149.6200  130.3380   90.0220 O.co2     1 ADP402      0.0000 
      5 PA        150.4150  129.7300   86.1670 P.3       1 ADP402      0.0000 
      6 O1A       149.0290  129.7860   85.5730 O.co2     1 ADP402      0.0000 
      7 O2A       151.1760  128.4260   86.1930 O.co2     1 ADP402      0.0000 
      8 O3A       150.3380  130.3000   87.6690 O.3       1 ADP402      0.0000 
      9 O5'       151.3200  130.8260   85.4140 O.3       1 ADP402      0.0000 
     10 C5'       151.3900  130.8390   83.9900 C.3       1 ADP402      0.0000 
     11 C4'       152.2060  132.0380   83.5250 C.3       1 ADP402      0.0000 
     12 O4'       153.5790  131.8690   83.8790 O.3       1 ADP402      0.0000 
     13 C3'       152.1540  132.1980   82.0140 C.3       1 ADP402      0.0000 
     14 O3'       151.3530  133.3300   81.6660 O.3       1 ADP402      0.0000 
     15 C2'       153.5850  132.4220   81.5710 C.3       1 ADP402      0.0000 
     16 O2'       153.7120  133.7100   80.9660 O.3       1 ADP402      0.0000 
     17 C1'       154.4260  132.3540   82.8360 C.3       1 ADP402      0.0000 
     18 N9        155.5630  131.4270   82.6270 N.pl3     1 ADP402      0.0000 
     19 C8        155.4900  130.0830   82.6400 C.2       1 ADP402      0.0000 
     20 N7        156.7070  129.5250   82.4130 N.2       1 ADP402      0.0000 
     21 C5        157.5870  130.5270   82.2500 C.ar      1 ADP402      0.0000 
     22 C6        159.0400  130.6370   81.9800 C.ar      1 ADP402      0.0000 
     23 N6        159.8110  129.5320   81.8370 N.pl3     1 ADP402      0.0000 
     24 N1        159.5670  131.8760   81.8800 N.ar      1 ADP402      0.0000 
     25 C2        158.8100  132.9790   82.0200 C.ar      1 ADP402      0.0000 
     26 N3        157.4880  132.9540   82.2660 N.ar      1 ADP402      0.0000 
     27 C4        156.8280  131.7790   82.3880 C.ar      1 ADP402      0.0000 
@<TRIPOS>BOND
     1    1    2 ar   
     2    1    3 ar   
     3    1    4 ar   
     4    1    8 1    
     5    5    6 ar   
     6    5    7 ar   
     7    5    8 1    
     8    5    9 1    
     9    9   10 1    
    10   10   11 1    
    11   11   12 1    
    12   11   13 1    
    13   12   17 1    
    14   13   14 1    
    15   13   15 1    
    16   15   16 1    
    17   15   17 1    
    18   17   18 1    
    19   18   19 1    
    20   18   27 1    
    21   19   20 2    
    22   20   21 1    
    23   21   22 ar   
    24   21   27 ar   
    25   22   23 1    
    26   22   24 ar   
    27   24   25 ar   
    28   25   26 ar   
    29   26   27 ar   
@<TRIPOS>SUBSTRUCTURE
     1 ADP402      1 GROUP   
@<TRIPOS>SET
ATOM$ORANGE STATIC     ATOMS   COLORGROUP SYSTEM 
20 10 10 11 11 13 13 15 15 17 17 19 19 21 21 22 22 25 \
25 27 27 

