#    Name: 6uc4_5_ADP
#    Modification time : Fri May 22 19:28:40 2020

@<TRIPOS>MOLECULE
6uc4_5_ADP
   27    29     1     0     1
SMALL
NO_CHARGES


@<TRIPOS>ATOM
      1 PB        158.8960  133.8390  141.9690 P.3       1 ADP802      0.0000 
      2 O1B       158.8100  132.9410  140.7580 O.co2     1 ADP802      0.0000 
      3 O2B       160.0390  133.5230  142.9030 O.co2     1 ADP802      0.0000 
      4 O3B       157.5750  134.0820  142.6580 O.co2     1 ADP802      0.0000 
      5 PA        160.6630  135.5020  140.5640 P.3       1 ADP802      0.0000 
      6 O1A       160.8360  134.3780  139.5700 O.co2     1 ADP802      0.0000 
      7 O2A       161.7480  135.8040  141.5710 O.co2     1 ADP802      0.0000 
      8 O3A       159.2790  135.2760  141.3540 O.3       1 ADP802      0.0000 
      9 O5'       160.3450  136.8430  139.7380 O.3       1 ADP802      0.0000 
     10 C5'       160.7970  136.9920  138.3950 C.3       1 ADP802      0.0000 
     11 C4'       160.5780  138.4340  137.9640 C.3       1 ADP802      0.0000 
     12 O4'       161.7140  139.2200  138.3290 O.3       1 ADP802      0.0000 
     13 C3'       160.4150  138.5620  136.4580 C.3       1 ADP802      0.0000 
     14 O3'       159.0440  138.7990  136.1290 O.3       1 ADP802      0.0000 
     15 C2'       161.2650  139.7480  136.0540 C.3       1 ADP802      0.0000 
     16 O2'       160.4250  140.8270  135.6340 O.3       1 ADP802      0.0000 
     17 C1'       162.0420  140.1500  137.2950 C.3       1 ADP802      0.0000 
     18 N9        163.4960  140.0830  137.0070 N.pl3     1 ADP802      0.0000 
     19 C8        164.1830  138.9640  136.7120 C.2       1 ADP802      0.0000 
     20 N7        165.4960  139.2360  136.4950 N.2       1 ADP802      0.0000 
     21 C5        165.6630  140.5610  136.6520 C.ar      1 ADP802      0.0000 
     22 C6        166.7980  141.5090  136.5660 C.ar      1 ADP802      0.0000 
     23 N6        168.0470  141.0840  136.2620 N.pl3     1 ADP802      0.0000 
     24 N1        166.5420  142.8140  136.8030 N.ar      1 ADP802      0.0000 
     25 C2        165.3060  143.2500  137.1040 C.ar      1 ADP802      0.0000 
     26 N3        164.2320  142.4470  137.1990 N.ar      1 ADP802      0.0000 
     27 C4        164.3410  141.1160  136.9850 C.ar      1 ADP802      0.0000 
@<TRIPOS>BOND
     1    1    2 ar   
     2    1    3 ar   
     3    1    4 ar   
     4    1    8 1    
     5    5    6 ar   
     6    5    7 ar   
     7    5    8 1    
     8    5    9 1    
     9    9   10 1    
    10   10   11 1    
    11   11   12 1    
    12   11   13 1    
    13   12   17 1    
    14   13   14 1    
    15   13   15 1    
    16   15   16 1    
    17   15   17 1    
    18   17   18 1    
    19   18   19 1    
    20   18   27 1    
    21   19   20 2    
    22   20   21 1    
    23   21   22 ar   
    24   21   27 ar   
    25   22   23 1    
    26   22   24 ar   
    27   24   25 ar   
    28   25   26 ar   
    29   26   27 ar   
@<TRIPOS>SUBSTRUCTURE
     1 ADP802      1 GROUP   
@<TRIPOS>SET
ATOM$ORANGE STATIC     ATOMS   COLORGROUP SYSTEM 
20 10 10 11 11 13 13 15 15 17 17 19 19 21 21 22 22 25 \
25 27 27 

