#    Name: 6uc4_7_ADP
#    Modification time : Fri May 22 19:28:53 2020

@<TRIPOS>MOLECULE
6uc4_7_ADP
   27    29     1     0     1
SMALL
NO_CHARGES


@<TRIPOS>ATOM
      1 PB        148.8390  162.9980   60.9800 P.3       1 ADP402      0.0000 
      2 O1B       149.8770  162.0410   60.4440 O.co2     1 ADP402      0.0000 
      3 O2B       149.2100  164.4560   60.8620 O.co2     1 ADP402      0.0000 
      4 O3B       148.2750  162.6090   62.3250 O.co2     1 ADP402      0.0000 
      5 PA        147.7010  163.3660   58.4570 P.3       1 ADP402      0.0000 
      6 O1A       148.9910  162.8520   57.8670 O.co2     1 ADP402      0.0000 
      7 O2A       147.4020  164.8460   58.4560 O.co2     1 ADP402      0.0000 
      8 O3A       147.5960  162.8310   59.9710 O.3       1 ADP402      0.0000 
      9 O5'       146.4850  162.6070   57.7250 O.3       1 ADP402      0.0000 
     10 C5'       146.4080  162.5900   56.3010 C.3       1 ADP402      0.0000 
     11 C4'       145.2460  161.7110   55.8590 C.3       1 ADP402      0.0000 
     12 O4'       144.0030  162.3220   56.2080 O.3       1 ADP402      0.0000 
     13 C3'       145.2350  161.5130   54.3520 C.3       1 ADP402      0.0000 
     14 O3'       145.6250  160.1750   54.0280 O.3       1 ADP402      0.0000 
     15 C2'       143.8060  161.7560   53.9120 C.3       1 ADP402      0.0000 
     16 O2'       143.2670  160.5660   53.3320 O.3       1 ADP402      0.0000 
     17 C1'       143.0390  162.1160   55.1730 C.3       1 ADP402      0.0000 
     18 N9        142.2620  163.3580   54.9440 N.pl3     1 ADP402      0.0000 
     19 C8        142.7670  164.6060   54.9300 C.2       1 ADP402      0.0000 
     20 N7        141.7950  165.5230   54.6900 N.2       1 ADP402      0.0000 
     21 C5        140.6370  164.8570   54.5450 C.ar      1 ADP402      0.0000 
     22 C6        139.2260  165.2180   54.2750 C.ar      1 ADP402      0.0000 
     23 N6        138.8530  166.5100   54.1090 N.pl3     1 ADP402      0.0000 
     24 N1        138.3250  164.2150   54.2000 N.ar      1 ADP402      0.0000 
     25 C2        138.6850  162.9290   54.3630 C.ar      1 ADP402      0.0000 
     26 N3        139.9450  162.5290   54.6100 N.ar      1 ADP402      0.0000 
     27 C4        140.9500  163.4290   54.7100 C.ar      1 ADP402      0.0000 
@<TRIPOS>BOND
     1    1    2 ar   
     2    1    3 ar   
     3    1    4 ar   
     4    1    8 1    
     5    5    6 ar   
     6    5    7 ar   
     7    5    8 1    
     8    5    9 1    
     9    9   10 1    
    10   10   11 1    
    11   11   12 1    
    12   11   13 1    
    13   12   17 1    
    14   13   14 1    
    15   13   15 1    
    16   15   16 1    
    17   15   17 1    
    18   17   18 1    
    19   18   19 1    
    20   18   27 1    
    21   19   20 2    
    22   20   21 1    
    23   21   22 ar   
    24   21   27 ar   
    25   22   23 1    
    26   22   24 ar   
    27   24   25 ar   
    28   25   26 ar   
    29   26   27 ar   
@<TRIPOS>SUBSTRUCTURE
     1 ADP402      1 GROUP   
@<TRIPOS>SET
ATOM$ORANGE STATIC     ATOMS   COLORGROUP SYSTEM 
20 10 10 11 11 13 13 15 15 17 17 19 19 21 21 22 22 25 \
25 27 27 

