#    Name: 6uc4_6_ADP
#    Modification time : Fri May 22 19:28:47 2020

@<TRIPOS>MOLECULE
6uc4_6_ADP
   27    29     1     0     1
SMALL
NO_CHARGES


@<TRIPOS>ATOM
      1 PB        131.1840  155.4660  168.8560 P.3       1 ADP802      0.0000 
      2 O1B       131.0070  156.3240  167.6260 O.co2     1 ADP802      0.0000 
      3 O2B       130.0120  155.4850  169.8070 O.co2     1 ADP802      0.0000 
      4 O3B       132.5310  155.6060  169.5220 O.co2     1 ADP802      0.0000 
      5 PA        129.9120  153.3540  167.5210 P.3       1 ADP802      0.0000 
      6 O1A       129.4270  154.3650  166.5090 O.co2     1 ADP802      0.0000 
      7 O2A       128.9630  152.7960  168.5560 O.co2     1 ADP802      0.0000 
      8 O3A       131.1950  153.9650  168.2770 O.3       1 ADP802      0.0000 
      9 O5'       130.5680  152.1290  166.7160 O.3       1 ADP802      0.0000 
     10 C5'       130.1540  151.8300  165.3850 C.3       1 ADP802      0.0000 
     11 C4'       130.7470  150.4910  164.9780 C.3       1 ADP802      0.0000 
     12 O4'       129.8710  149.4370  165.3830 O.3       1 ADP802      0.0000 
     13 C3'       130.9170  150.3740  163.4720 C.3       1 ADP802      0.0000 
     14 O3'       132.2960  150.5080  163.1190 O.3       1 ADP802      0.0000 
     15 C2'       130.4130  148.9930  163.1090 C.3       1 ADP802      0.0000 
     16 O2'       131.5070  148.1710  162.6930 O.3       1 ADP802      0.0000 
     17 C1'       129.7920  148.4270  164.3740 C.3       1 ADP802      0.0000 
     18 N9        128.3690  148.0930  164.1150 N.pl3     1 ADP802      0.0000 
     19 C8        127.4020  148.9780  163.8120 C.2       1 ADP802      0.0000 
     20 N7        126.2080  148.3560  163.6280 N.2       1 ADP802      0.0000 
     21 C5        126.4080  147.0390  163.8150 C.ar      1 ADP802      0.0000 
     22 C6        125.5700  145.8180  163.7710 C.ar      1 ADP802      0.0000 
     23 N6        124.2470  145.8840  163.4850 N.pl3     1 ADP802      0.0000 
     24 N1        126.1720  144.6370  164.0280 N.ar      1 ADP802      0.0000 
     25 C2        127.4840  144.5590  164.3120 C.ar      1 ADP802      0.0000 
     26 N3        128.3030  145.6230  164.3690 N.ar      1 ADP802      0.0000 
     27 C4        127.8340  146.8700  164.1310 C.ar      1 ADP802      0.0000 
@<TRIPOS>BOND
     1    1    2 ar   
     2    1    3 ar   
     3    1    4 ar   
     4    1    8 1    
     5    5    6 ar   
     6    5    7 ar   
     7    5    8 1    
     8    5    9 1    
     9    9   10 1    
    10   10   11 1    
    11   11   12 1    
    12   11   13 1    
    13   12   17 1    
    14   13   14 1    
    15   13   15 1    
    16   15   16 1    
    17   15   17 1    
    18   17   18 1    
    19   18   19 1    
    20   18   27 1    
    21   19   20 2    
    22   20   21 1    
    23   21   22 ar   
    24   21   27 ar   
    25   22   23 1    
    26   22   24 ar   
    27   24   25 ar   
    28   25   26 ar   
    29   26   27 ar   
@<TRIPOS>SUBSTRUCTURE
     1 ADP802      1 GROUP   
@<TRIPOS>SET
ATOM$ORANGE STATIC     ATOMS   COLORGROUP SYSTEM 
20 10 10 11 11 13 13 15 15 17 17 19 19 21 21 22 22 25 \
25 27 27 

