#    Name: 6uc4_9_ADP
#    Modification time : Fri May 22 19:29:06 2020

@<TRIPOS>MOLECULE
6uc4_9_ADP
   27    29     1     0     1
SMALL
NO_CHARGES


@<TRIPOS>ATOM
      1 PB        139.0430  161.5450  115.7400 P.3       1 ADP402      0.0000 
      2 O1B       140.4320  161.3680  115.1750 O.co2     1 ADP402      0.0000 
      3 O2B       138.5060  162.9530  115.6560 O.co2     1 ADP402      0.0000 
      4 O3B       138.8280  160.8780  117.0770 O.co2     1 ADP402      0.0000 
      5 PA        137.8550  161.2360  113.2310 P.3       1 ADP402      0.0000 
      6 O1A       139.1950  161.5690  112.6230 O.co2     1 ADP402      0.0000 
      7 O2A       136.7600  162.2750  113.2680 O.co2     1 ADP402      0.0000 
      8 O3A       138.1040  160.7110  114.7310 O.3       1 ADP402      0.0000 
      9 O5'       137.2840  159.9290  112.4860 O.3       1 ADP402      0.0000 
     10 C5'       137.2050  159.8970  111.0620 C.3       1 ADP402      0.0000 
     11 C4'       136.7520  158.5170  110.6030 C.3       1 ADP402      0.0000 
     12 O4'       135.3900  158.2960  110.9720 O.3       1 ADP402      0.0000 
     13 C3'       136.8300  158.3760  109.0910 C.3       1 ADP402      0.0000 
     14 O3'       137.9120  157.5130  108.7330 O.3       1 ADP402      0.0000 
     15 C2'       135.5140  157.7610  108.6640 C.3       1 ADP402      0.0000 
     16 O2'       135.7460  156.4880  108.0570 O.3       1 ADP402      0.0000 
     17 C1'       134.7020  157.5920  109.9370 C.3       1 ADP402      0.0000 
     18 N9        133.3480  158.1650  109.7420 N.pl3     1 ADP402      0.0000 
     19 C8        133.0430  159.4760  109.7570 C.2       1 ADP402      0.0000 
     20 N7        131.7170  159.6720  109.5440 N.2       1 ADP402      0.0000 
     21 C5        131.1500  158.4630  109.3880 C.ar      1 ADP402      0.0000 
     22 C6        129.7830  157.9520  109.1330 C.ar      1 ADP402      0.0000 
     23 N6        128.7320  158.7970  109.0000 N.pl3     1 ADP402      0.0000 
     24 N1        129.6210  156.6150  109.0360 N.ar      1 ADP402      0.0000 
     25 C2        130.6580  155.7670  109.1660 C.ar      1 ADP402      0.0000 
     26 N3        131.9230  156.1600  109.3980 N.ar      1 ADP402      0.0000 
     27 C4        132.2290  157.4730  109.5160 C.ar      1 ADP402      0.0000 
@<TRIPOS>BOND
     1    1    2 ar   
     2    1    3 ar   
     3    1    4 ar   
     4    1    8 1    
     5    5    6 ar   
     6    5    7 ar   
     7    5    8 1    
     8    5    9 1    
     9    9   10 1    
    10   10   11 1    
    11   11   12 1    
    12   11   13 1    
    13   12   17 1    
    14   13   14 1    
    15   13   15 1    
    16   15   16 1    
    17   15   17 1    
    18   17   18 1    
    19   18   19 1    
    20   18   27 1    
    21   19   20 2    
    22   20   21 1    
    23   21   22 ar   
    24   21   27 ar   
    25   22   23 1    
    26   22   24 ar   
    27   24   25 ar   
    28   25   26 ar   
    29   26   27 ar   
@<TRIPOS>SUBSTRUCTURE
     1 ADP402      1 GROUP   
@<TRIPOS>SET
ATOM$ORANGE STATIC     ATOMS   COLORGROUP SYSTEM 
20 10 10 11 11 13 13 15 15 17 17 19 19 21 21 22 22 25 \
25 27 27 

