#    Name: 6uc4_1_ADP
#    Modification time : Fri May 22 19:28:20 2020

@<TRIPOS>MOLECULE
6uc4_1_ADP
   27    29     1     0     1
SMALL
NO_CHARGES


@<TRIPOS>ATOM
      1 PB        163.4770  141.2640  196.4350 P.3       1 ADP802      0.0000 
      2 O1B       163.8420  140.4550  195.2130 O.co2     1 ADP802      0.0000 
      3 O2B       164.6220  141.5090  197.3880 O.co2     1 ADP802      0.0000 
      4 O3B       162.1900  140.8410  197.0980 O.co2     1 ADP802      0.0000 
      5 PA        164.2660  143.5910  195.0820 P.3       1 ADP802      0.0000 
      6 O1A       164.9630  142.7000  194.0810 O.co2     1 ADP802      0.0000 
      7 O2A       165.0660  144.3510  196.1140 O.co2     1 ADP802      0.0000 
      8 O3A       163.1430  142.7220  195.8420 O.3       1 ADP802      0.0000 
      9 O5'       163.3630  144.6370  194.2640 O.3       1 ADP802      0.0000 
     10 C5'       163.7080  145.0060  192.9310 C.3       1 ADP802      0.0000 
     11 C4'       162.8400  146.1810  192.5100 C.3       1 ADP802      0.0000 
     12 O4'       163.4640  147.4050  192.9070 O.3       1 ADP802      0.0000 
     13 C3'       162.6550  146.2450  191.0030 C.3       1 ADP802      0.0000 
     14 O3'       161.3390  145.8120  190.6480 O.3       1 ADP802      0.0000 
     15 C2'       162.8480  147.6990  190.6280 C.3       1 ADP802      0.0000 
     16 O2'       161.6030  148.2600  190.2020 O.3       1 ADP802      0.0000 
     17 C1'       163.3260  148.3980  191.8890 C.3       1 ADP802      0.0000 
     18 N9        164.6430  149.0310  191.6290 N.pl3     1 ADP802      0.0000 
     19 C8        165.7810  148.3750  191.3370 C.2       1 ADP802      0.0000 
     20 N7        166.8120  149.2390  191.1500 N.2       1 ADP802      0.0000 
     21 C5        166.3300  150.4830  191.3240 C.ar      1 ADP802      0.0000 
     22 C6        166.8830  151.8560  191.2700 C.ar      1 ADP802      0.0000 
     23 N6        168.1890  152.0770  190.9870 N.pl3     1 ADP802      0.0000 
     24 N1        166.0380  152.8810  191.5150 N.ar      1 ADP802      0.0000 
     25 C2        164.7390  152.6750  191.7950 C.ar      1 ADP802      0.0000 
     26 N3        164.1710  151.4580  191.8600 N.ar      1 ADP802      0.0000 
     27 C4        164.9000  150.3410  191.6360 C.ar      1 ADP802      0.0000 
@<TRIPOS>BOND
     1    1    2 ar   
     2    1    3 ar   
     3    1    4 ar   
     4    1    8 1    
     5    5    6 ar   
     6    5    7 ar   
     7    5    8 1    
     8    5    9 1    
     9    9   10 1    
    10   10   11 1    
    11   11   12 1    
    12   11   13 1    
    13   12   17 1    
    14   13   14 1    
    15   13   15 1    
    16   15   16 1    
    17   15   17 1    
    18   17   18 1    
    19   18   19 1    
    20   18   27 1    
    21   19   20 2    
    22   20   21 1    
    23   21   22 ar   
    24   21   27 ar   
    25   22   23 1    
    26   22   24 ar   
    27   24   25 ar   
    28   25   26 ar   
    29   26   27 ar   
@<TRIPOS>SUBSTRUCTURE
     1 ADP802      1 GROUP   
@<TRIPOS>SET
ATOM$ORANGE STATIC     ATOMS   COLORGROUP SYSTEM 
20 10 10 11 11 13 13 15 15 17 17 19 19 21 21 22 22 25 \
25 27 27 

