#    Name: 6uc4_4_ADP
#    Modification time : Fri May 22 19:28:33 2020

@<TRIPOS>MOLECULE
6uc4_4_ADP
   27    29     1     0     1
SMALL
NO_CHARGES


@<TRIPOS>ATOM
      1 PB        138.8590  131.1950   34.3340 P.3       1 ADP402      0.0000 
      2 O1B       138.1340  132.4220   33.8350 O.co2     1 ADP402      0.0000 
      3 O2B       138.0810  129.9090   34.1960 O.co2     1 ADP402      0.0000 
      4 O3B       139.5290  131.3730   35.6750 O.co2     1 ADP402      0.0000 
      5 PA        139.8090  130.5730   31.7820 P.3       1 ADP402      0.0000 
      6 O1A       138.7140  131.4500   31.2270 O.co2     1 ADP402      0.0000 
      7 O2A       139.6670  129.0700   31.7490 O.co2     1 ADP402      0.0000 
      8 O3A       140.0830  131.0190   33.3030 O.3       1 ADP402      0.0000 
      9 O5'       141.1810  130.9660   31.0410 O.3       1 ADP402      0.0000 
     10 C5'       141.2410  130.9930   29.6170 C.3       1 ADP402      0.0000 
     11 C4'       142.6020  131.5090   29.1680 C.3       1 ADP402      0.0000 
     12 O4'       143.6200  130.5580   29.4810 O.3       1 ADP402      0.0000 
     13 C3'       142.6490  131.7310   27.6650 C.3       1 ADP402      0.0000 
     14 O3'       142.6570  133.1310   27.3730 O.3       1 ADP402      0.0000 
     15 C2'       143.9410  131.0960   27.1930 C.3       1 ADP402      0.0000 
     16 O2'       144.7930  132.0930   26.6240 O.3       1 ADP402      0.0000 
     17 C1'       144.5880  130.5010   28.4320 C.3       1 ADP402      0.0000 
     18 N9        144.9700  129.0940   28.1650 N.pl3     1 ADP402      0.0000 
     19 C8        144.1270  128.0450   28.1380 C.2       1 ADP402      0.0000 
     20 N7        144.7890  126.8920   27.8620 N.2       1 ADP402      0.0000 
     21 C5        146.0880  127.2000   27.7070 C.ar      1 ADP402      0.0000 
     22 C6        147.3320  126.4530   27.4030 C.ar      1 ADP402      0.0000 
     23 N6        147.3130  125.1130   27.2060 N.pl3     1 ADP402      0.0000 
     24 N1        148.4830  127.1550   27.3290 N.ar      1 ADP402      0.0000 
     25 C2        148.5110  128.4860   27.5230 C.ar      1 ADP402      0.0000 
     26 N3        147.4240  129.2270   27.8010 N.ar      1 ADP402      0.0000 
     27 C4        146.2030  128.6520   27.9040 C.ar      1 ADP402      0.0000 
@<TRIPOS>BOND
     1    1    2 ar   
     2    1    3 ar   
     3    1    4 ar   
     4    1    8 1    
     5    5    6 ar   
     6    5    7 ar   
     7    5    8 1    
     8    5    9 1    
     9    9   10 1    
    10   10   11 1    
    11   11   12 1    
    12   11   13 1    
    13   12   17 1    
    14   13   14 1    
    15   13   15 1    
    16   15   16 1    
    17   15   17 1    
    18   17   18 1    
    19   18   19 1    
    20   18   27 1    
    21   19   20 2    
    22   20   21 1    
    23   21   22 ar   
    24   21   27 ar   
    25   22   23 1    
    26   22   24 ar   
    27   24   25 ar   
    28   25   26 ar   
    29   26   27 ar   
@<TRIPOS>SUBSTRUCTURE
     1 ADP402      1 GROUP   
@<TRIPOS>SET
ATOM$ORANGE STATIC     ATOMS   COLORGROUP SYSTEM 
20 10 10 11 11 13 13 15 15 17 17 19 19 21 21 22 22 25 \
25 27 27 

