#    Name: 6uc4_2_ADP
#    Modification time : Fri May 22 19:28:25 2020

@<TRIPOS>MOLECULE
6uc4_2_ADP
   27    29     1     0     1
SMALL
NO_CHARGES


@<TRIPOS>ATOM
      1 PB        163.5670  149.6400  251.2170 P.3       1 ADP802      0.0000 
      2 O1B       164.2700  149.1200  249.9860 O.co2     1 ADP802      0.0000 
      3 O2B       164.4600  150.3830  252.1810 O.co2     1 ADP802      0.0000 
      4 O3B       162.6350  148.6470  251.8660 O.co2     1 ADP802      0.0000 
      5 PA        163.1560  152.0830  249.9040 P.3       1 ADP802      0.0000 
      6 O1A       164.1910  151.6460  248.8940 O.co2     1 ADP802      0.0000 
      7 O2A       163.5020  153.1160  250.9510 O.co2     1 ADP802      0.0000 
      8 O3A       162.5810  150.7750  250.6430 O.3       1 ADP802      0.0000 
      9 O5'       161.8630  152.5890  249.0950 O.3       1 ADP802      0.0000 
     10 C5'       161.9900  153.0990  247.7710 C.3       1 ADP802      0.0000 
     11 C4'       160.6680  153.7290  247.3610 C.3       1 ADP802      0.0000 
     12 O4'       160.6380  155.0950  247.7800 O.3       1 ADP802      0.0000 
     13 C3'       160.4720  153.7220  245.8540 C.3       1 ADP802      0.0000 
     14 O3'       159.5190  152.7220  245.4850 O.3       1 ADP802      0.0000 
     15 C2'       159.9520  155.0990  245.5020 C.3       1 ADP802      0.0000 
     16 O2'       158.5890  155.0090  245.0760 O.3       1 ADP802      0.0000 
     17 C1'       160.0440  155.9200  246.7760 C.3       1 ADP802      0.0000 
     18 N9        160.9030  157.1060  246.5340 N.pl3     1 ADP802      0.0000 
     19 C8        162.2160  157.0730  246.2390 C.2       1 ADP802      0.0000 
     20 N7        162.7130  158.3250  246.0710 N.2       1 ADP802      0.0000 
     21 C5        161.7000  159.1890  246.2600 C.ar      1 ADP802      0.0000 
     22 C6        161.5350  160.6610  246.2300 C.ar      1 ADP802      0.0000 
     23 N6        162.5800  161.4800  245.9580 N.pl3     1 ADP802      0.0000 
     24 N1        160.3050  161.1580  246.4840 N.ar      1 ADP802      0.0000 
     25 C2        159.2600  160.3570  246.7540 C.ar      1 ADP802      0.0000 
     26 N3        159.3360  159.0150  246.7970 N.ar      1 ADP802      0.0000 
     27 C4        160.5080  158.3810  246.5610 C.ar      1 ADP802      0.0000 
@<TRIPOS>BOND
     1    1    2 ar   
     2    1    3 ar   
     3    1    4 ar   
     4    1    8 1    
     5    5    6 ar   
     6    5    7 ar   
     7    5    8 1    
     8    5    9 1    
     9    9   10 1    
    10   10   11 1    
    11   11   12 1    
    12   11   13 1    
    13   12   17 1    
    14   13   14 1    
    15   13   15 1    
    16   15   16 1    
    17   15   17 1    
    18   17   18 1    
    19   18   19 1    
    20   18   27 1    
    21   19   20 2    
    22   20   21 1    
    23   21   22 ar   
    24   21   27 ar   
    25   22   23 1    
    26   22   24 ar   
    27   24   25 ar   
    28   25   26 ar   
    29   26   27 ar   
@<TRIPOS>SUBSTRUCTURE
     1 ADP802      1 GROUP   
@<TRIPOS>SET
ATOM$ORANGE STATIC     ATOMS   COLORGROUP SYSTEM 
20 10 10 11 11 13 13 15 15 17 17 19 19 21 21 22 22 25 \
25 27 27 

