#    Name: 6uc4_3_ADP
#    Modification time : Fri May 22 19:28:29 2020

@<TRIPOS>MOLECULE
6uc4_3_ADP
   27    29     1     0     1
SMALL
NO_CHARGES


@<TRIPOS>ATOM
      1 PB        128.9140  148.1350  223.5860 P.3       1 ADP802      0.0000 
      2 O1B       128.3820  148.8280  222.3540 O.co2     1 ADP802      0.0000 
      3 O2B       127.8480  147.6420  224.5350 O.co2     1 ADP802      0.0000 
      4 O3B       130.0640  148.8490  224.2520 O.co2     1 ADP802      0.0000 
      5 PA        128.6920  145.6780  222.2530 P.3       1 ADP802      0.0000 
      6 O1A       127.8170  146.3750  221.2390 O.co2     1 ADP802      0.0000 
      7 O2A       128.0800  144.7630  223.2880 O.co2     1 ADP802      0.0000 
      8 O3A       129.5790  146.7880  223.0100 O.3       1 ADP802      0.0000 
      9 O5'       129.8190  144.8600  221.4510 O.3       1 ADP802      0.0000 
     10 C5'       129.5780  144.4090  220.1200 C.3       1 ADP802      0.0000 
     11 C4'       130.6970  143.4620  219.7160 C.3       1 ADP802      0.0000 
     12 O4'       130.3670  142.1320  220.1220 O.3       1 ADP802      0.0000 
     13 C3'       130.9030  143.4290  218.2110 C.3       1 ADP802      0.0000 
     14 O3'       132.0860  144.1510  217.8590 O.3       1 ADP802      0.0000 
     15 C2'       131.0530  141.9660  217.8500 C.3       1 ADP802      0.0000 
     16 O2'       132.3970  141.7030  217.4370 O.3       1 ADP802      0.0000 
     17 C1'       130.7380  141.1880  219.1150 C.3       1 ADP802      0.0000 
     18 N9        129.6040  140.2660  218.8550 N.pl3     1 ADP802      0.0000 
     19 C8        128.3480  140.6400  218.5500 C.2       1 ADP802      0.0000 
     20 N7        127.5450  139.5600  218.3650 N.2       1 ADP802      0.0000 
     21 C5        128.2990  138.4620  218.5550 C.ar      1 ADP802      0.0000 
     22 C6        128.0770  136.9980  218.5120 C.ar      1 ADP802      0.0000 
     23 N6        126.8590  136.4800  218.2250 N.pl3     1 ADP802      0.0000 
     24 N1        129.1340  136.1980  218.7720 N.ar      1 ADP802      0.0000 
     25 C2        130.3480  136.7000  219.0580 C.ar      1 ADP802      0.0000 
     26 N3        130.6210  138.0150  219.1140 N.ar      1 ADP802      0.0000 
     27 C4        129.6560  138.9320  218.8730 C.ar      1 ADP802      0.0000 
@<TRIPOS>BOND
     1    1    2 ar   
     2    1    3 ar   
     3    1    4 ar   
     4    1    8 1    
     5    5    6 ar   
     6    5    7 ar   
     7    5    8 1    
     8    5    9 1    
     9    9   10 1    
    10   10   11 1    
    11   11   12 1    
    12   11   13 1    
    13   12   17 1    
    14   13   14 1    
    15   13   15 1    
    16   15   16 1    
    17   15   17 1    
    18   17   18 1    
    19   18   19 1    
    20   18   27 1    
    21   19   20 2    
    22   20   21 1    
    23   21   22 ar   
    24   21   27 ar   
    25   22   23 1    
    26   22   24 ar   
    27   24   25 ar   
    28   25   26 ar   
    29   26   27 ar   
@<TRIPOS>SUBSTRUCTURE
     1 ADP802      1 GROUP   
@<TRIPOS>SET
ATOM$ORANGE STATIC     ATOMS   COLORGROUP SYSTEM 
20 10 10 11 11 13 13 15 15 17 17 19 19 21 21 22 22 25 \
25 27 27 

