#    Name: 6uc4_3_ADP_CAVITY_N1_4
#    Modification time : Fri May 22 19:28:30 2020

@<TRIPOS>MOLECULE
6uc4_3_ADP_CAVITY_N1_4
   68     0     6     0     0
SMALL
NO_CHARGES


@<TRIPOS>ATOM
      1 OG        133.6300  142.8500  216.7300 O.3       1 SER1        0.0000 
      2 OG        132.7300  142.0900  219.8700 O.3       1 SER1        0.0000 
      3 OG        131.6700  143.1500  219.8300 O.3       1 SER1        0.0000 
      4 N         129.4500  138.8100  218.8600 N.am      2 ALA2        0.0000 
      5 O         131.6600  141.0400  220.0300 O.2       2 ALA2        0.0000 
      6 N         129.5400  141.0700  220.1500 N.am      2 ALA2        0.0000 
      7 O         128.5800  144.3900  221.3900 O.2       2 ALA2        0.0000 
      8 O         129.6500  145.4300  221.2300 O.2       2 ALA2        0.0000 
      9 O         129.6600  147.5400  221.0300 O.2       2 ALA2        0.0000 
     10 O         128.6700  144.5300  222.8800 O.2       2 ALA2        0.0000 
     11 O         129.7400  147.6900  222.5200 O.2       2 ALA2        0.0000 
     12 OD1       132.5600  141.8000  216.8900 O.co2     3 ASP3        0.0000 
     13 OD1       127.2500  138.6900  217.4800 O.co2     3 ASP3        0.0000 
     14 OD1       126.2000  139.7600  217.4400 O.co2     3 ASP3        0.0000 
     15 OD1       125.1400  140.8300  217.3900 O.co2     3 ASP3        0.0000 
     16 OD1       131.5700  138.7900  218.7400 O.co2     3 ASP3        0.0000 
     17 OD1       131.5800  140.9000  218.5400 O.co2     3 ASP3        0.0000 
     18 OD1       132.6400  141.9400  218.3800 O.co2     3 ASP3        0.0000 
     19 OD1       128.4000  139.8800  218.8100 O.co2     3 ASP3        0.0000 
     20 OD1       127.3400  140.9500  218.7700 O.co2     3 ASP3        0.0000 
     21 OD1       126.2900  142.0100  218.7300 O.co2     3 ASP3        0.0000 
     22 OD1       127.5300  145.4500  221.3500 O.co2     3 ASP3        0.0000 
     23 OD1       128.6000  146.5000  221.1900 O.co2     3 ASP3        0.0000 
     24 OD1       127.6100  145.6000  222.8400 O.co2     3 ASP3        0.0000 
     25 OD1       128.6800  146.6400  222.6800 O.co2     3 ASP3        0.0000 
     26 NZ        126.1100  139.6200  215.9500 N.4       4 LYS4        0.0000 
     27 NZ        126.1200  141.7300  215.7400 N.4       4 LYS4        0.0000 
     28 NZ        131.5100  142.8700  216.8500 N.4       4 LYS4        0.0000 
     29 NZ        127.2600  140.8000  217.2800 N.4       4 LYS4        0.0000 
     30 NZ        130.4500  143.9400  216.8000 N.4       4 LYS4        0.0000 
     31 NZ        126.2100  141.8700  217.2400 N.4       4 LYS4        0.0000 
     32 NZ        127.2700  142.9100  217.0800 N.4       4 LYS4        0.0000 
     33 NZ        128.3400  143.9600  216.9200 N.4       4 LYS4        0.0000 
     34 NZ        129.4000  145.0000  216.7600 N.4       4 LYS4        0.0000 
     35 NZ        133.7100  142.9900  218.2200 N.4       4 LYS4        0.0000 
     36 NZ        129.4600  140.9200  218.6500 N.4       4 LYS4        0.0000 
     37 NZ        130.5300  141.9700  218.5000 N.4       4 LYS4        0.0000 
     38 NZ        132.6600  144.0600  218.1800 N.4       4 LYS4        0.0000 
     39 NZ        128.4100  141.9900  218.6100 N.4       4 LYS4        0.0000 
     40 NZ        129.4700  143.0300  218.4500 N.4       4 LYS4        0.0000 
     41 NZ        131.6000  145.1200  218.1300 N.4       4 LYS4        0.0000 
     42 NZ        132.7400  144.2000  219.6700 N.4       4 LYS4        0.0000 
     43 CA        131.5000  140.7600  217.0500 C.3       5 GLY6        0.0000 
     44 CA        132.5700  143.9100  216.6900 C.3       5 GLY6        0.0000 
     45 CA        131.5200  144.9800  216.6400 C.3       5 GLY6        0.0000 
     46 CA        130.5100  139.8600  218.7000 C.3       5 GLY6        0.0000 
     47 CA        127.3500  143.0600  218.5700 C.3       5 GLY6        0.0000 
     48 CA        128.4200  144.1000  218.4100 C.3       5 GLY6        0.0000 
     49 CA        129.4800  145.1500  218.2500 C.3       5 GLY6        0.0000 
     50 CA        130.5500  146.1900  218.0900 C.3       5 GLY6        0.0000 
     51 CA        125.2400  143.0800  218.6800 C.3       5 GLY6        0.0000 
     52 CA        130.6100  142.1100  219.9900 C.3       5 GLY6        0.0000 
     53 CA        128.4900  142.1300  220.1000 C.3       5 GLY6        0.0000 
     54 CA        130.6200  144.2200  219.7800 C.3       5 GLY6        0.0000 
     55 CA        126.3700  142.1600  220.2200 C.3       5 GLY6        0.0000 
     56 CA        127.4400  143.2000  220.0600 C.3       5 GLY6        0.0000 
     57 CA        128.5000  144.2400  219.9000 C.3       5 GLY6        0.0000 
     58 CA        129.5700  145.2900  219.7400 C.3       5 GLY6        0.0000 
     59 CA        130.6300  146.3300  219.5800 C.3       5 GLY6        0.0000 
     60 CA        128.5100  146.3600  219.7000 C.3       5 GLY6        0.0000 
     61 CA        129.6400  143.3200  221.4300 C.3       5 GLY6        0.0000 
     62 CA        130.7000  144.3600  221.2700 C.3       5 GLY6        0.0000 
     63 CA        127.5200  143.3400  221.5500 C.3       5 GLY6        0.0000 
     64 CA        130.7100  146.4800  221.0700 C.3       5 GLY6        0.0000 
     65 CA        126.4700  144.4100  221.5000 C.3       5 GLY6        0.0000 
     66 CA        129.7300  145.5700  222.7200 C.3       5 GLY6        0.0000 
     67 DU        131.5900  143.0100  218.3400 H         6 CUB7        0.0000 
     68 DU        130.5400  144.0800  218.2900 H         6 CUB7        0.0000 
@<TRIPOS>BOND
@<TRIPOS>SUBSTRUCTURE
     1 SER1        1 GROUP   
     2 ALA2        4 GROUP   
     3 ASP3       12 GROUP   
     4 LYS4       26 GROUP   
     5 GLY6       43 GROUP   
     6 CUB7       67 GROUP   
@<TRIPOS>SET

