#    Name: 6pfi_2_MTX
#    Modification time : Fri May 22 19:37:22 2020

@<TRIPOS>MOLECULE
6pfi_2_MTX
   33    35     1     0     0
SMALL
NO_CHARGES


@<TRIPOS>ATOM
      1 N1        -56.9100  -67.2330   83.6310 N.ar      1 MTX604      0.0000 
      2 C2        -55.6280  -67.4200   83.9900 C.ar      1 MTX604      0.0000 
      3 NA2       -54.9020  -66.3180   84.5690 N.pl3     1 MTX604      0.0000 
      4 N3        -55.0040  -68.5970   83.8290 N.ar      1 MTX604      0.0000 
      5 C4        -55.6580  -69.6490   83.2910 C.ar      1 MTX604      0.0000 
      6 NA4       -55.0330  -70.9200   83.1010 N.pl3     1 MTX604      0.0000 
      7 C4A       -57.0020  -69.4970   82.9010 C.ar      1 MTX604      0.0000 
      8 N5        -57.6850  -70.5390   82.3570 N.ar      1 MTX604      0.0000 
      9 C6        -58.9710  -70.3580   82.0040 C.ar      1 MTX604      0.0000 
     10 C7        -59.6210  -69.1280   82.1620 C.ar      1 MTX604      0.0000 
     11 N8        -58.9250  -68.1040   82.7070 N.ar      1 MTX604      0.0000 
     12 C8A       -57.6130  -68.2720   83.0820 C.ar      1 MTX604      0.0000 
     13 C9        -59.6820  -71.5330   81.3930 C.3       1 MTX604      0.0000 
     14 N10       -59.0380  -71.9030   80.1530 N.pl3     1 MTX604      0.0000 
     15 CM        -58.3010  -73.1370   80.0490 C.3       1 MTX604      0.0000 
     16 C11       -59.1930  -69.1620   76.9300 C.ar      1 MTX604      0.0000 
     17 C12       -60.2170  -69.1890   77.8710 C.ar      1 MTX604      0.0000 
     18 C13       -60.1680  -70.0970   78.9250 C.ar      1 MTX604      0.0000 
     19 C14       -59.0930  -70.9700   79.0400 C.ar      1 MTX604      0.0000 
     20 C15       -58.0640  -70.9370   78.1050 C.ar      1 MTX604      0.0000 
     21 C16       -58.1190  -70.0310   77.0500 C.ar      1 MTX604      0.0000 
     22 C         -59.2140  -68.1880   75.7820 C.2       1 MTX604      0.0000 
     23 O         -60.2770  -67.7800   75.3460 O.2       1 MTX604      0.0000 
     24 N         -57.9640  -67.7380   75.2120 N.am      1 MTX604      0.0000 
     25 CA        -57.9180  -66.8070   74.1180 C.3       1 MTX604      0.0000 
     26 CT        -56.5420  -66.8460   73.5800 C.2       1 MTX604      0.0000 
     27 O1        -55.7080  -67.6310   74.0990 O.co2     1 MTX604      0.0000 
     28 O2        -56.2000  -66.1000   72.6100 O.co2     1 MTX604      0.0000 
     29 CB        -58.1570  -65.4450   74.6670 C.3       1 MTX604      0.0000 
     30 CG        -58.6320  -64.3500   73.7630 C.3       1 MTX604      0.0000 
     31 CD        -58.4760  -62.9630   74.2960 C.2       1 MTX604      0.0000 
     32 OE1       -57.5330  -62.2540   73.8750 O.co2     1 MTX604      0.0000 
     33 OE2       -59.4450  -62.4190   74.8880 O.co2     1 MTX604      0.0000 
@<TRIPOS>BOND
     1    1    2 ar   
     2    1   12 ar   
     3    2    3 1    
     4    2    4 ar   
     5    4    5 ar   
     6    5    6 1    
     7    5    7 ar   
     8    7    8 ar   
     9    7   12 ar   
    10    8    9 ar   
    11    9   10 ar   
    12    9   13 1    
    13   10   11 ar   
    14   11   12 ar   
    15   13   14 1    
    16   14   15 1    
    17   14   19 1    
    18   16   17 ar   
    19   16   21 ar   
    20   16   22 1    
    21   17   18 ar   
    22   18   19 ar   
    23   19   20 ar   
    24   20   21 ar   
    25   22   23 2    
    26   22   24 am   
    27   24   25 1    
    28   25   26 1    
    29   25   29 1    
    30   26   27 ar   
    31   26   28 ar   
    32   29   30 1    
    33   30   31 1    
    34   31   32 ar   
    35   31   33 ar   
@<TRIPOS>SUBSTRUCTURE
     1 MTX604      1 GROUP   
@<TRIPOS>SET

