#    Name: 6pfi_1_MTX
#    Modification time : Fri May 22 19:37:17 2020

@<TRIPOS>MOLECULE
6pfi_1_MTX
   33    35     1     0     0
SMALL
NO_CHARGES


@<TRIPOS>ATOM
      1 N1         -4.2260  -44.0050   95.3890 N.ar      1 MTX604      0.0000 
      2 C2         -4.9720  -44.7460   94.5490 C.ar      1 MTX604      0.0000 
      3 NA2        -6.4000  -44.5550   94.5300 N.pl3     1 MTX604      0.0000 
      4 N3         -4.4310  -45.6580   93.7270 N.ar      1 MTX604      0.0000 
      5 C4         -3.0960  -45.8610   93.7200 C.ar      1 MTX604      0.0000 
      6 NA4        -2.4860  -46.8230   92.8600 N.pl3     1 MTX604      0.0000 
      7 C4A        -2.2760  -45.1060   94.5840 C.ar      1 MTX604      0.0000 
      8 N5         -0.9280  -45.2900   94.5980 N.ar      1 MTX604      0.0000 
      9 C6         -0.1760  -44.5470   95.4310 C.ar      1 MTX604      0.0000 
     10 C7         -0.7410  -43.6000   96.2940 C.ar      1 MTX604      0.0000 
     11 N8         -2.0840  -43.4300   96.2660 N.ar      1 MTX604      0.0000 
     12 C8A        -2.8660  -44.1760   95.4160 C.ar      1 MTX604      0.0000 
     13 C9          1.3080  -44.8010   95.4100 C.3       1 MTX604      0.0000 
     14 N10         1.6000  -46.1550   95.8230 N.pl3     1 MTX604      0.0000 
     15 CM          2.0830  -47.1210   94.8720 C.3       1 MTX604      0.0000 
     16 C11         0.8050  -47.2810   99.8240 C.ar      1 MTX604      0.0000 
     17 C12         1.1420  -45.9640   99.5260 C.ar      1 MTX604      0.0000 
     18 C13         1.4110  -45.5960   98.2100 C.ar      1 MTX604      0.0000 
     19 C14         1.3370  -46.5440   97.1970 C.ar      1 MTX604      0.0000 
     20 C15         0.9850  -47.8560   97.4900 C.ar      1 MTX604      0.0000 
     21 C16         0.7200  -48.2200   98.8060 C.ar      1 MTX604      0.0000 
     22 C           0.4960  -47.7070  101.2350 C.2       1 MTX604      0.0000 
     23 O           0.9930  -47.1120  102.1760 O.2       1 MTX604      0.0000 
     24 N          -0.4040  -48.8170  101.4570 N.am      1 MTX604      0.0000 
     25 CA         -0.7560  -49.2710  102.7730 C.3       1 MTX604      0.0000 
     26 CT         -1.4310  -50.5760  102.6120 C.2       1 MTX604      0.0000 
     27 O1         -1.7020  -50.9870  101.4530 O.co2     1 MTX604      0.0000 
     28 O2         -1.7380  -51.2740  103.6270 O.co2     1 MTX604      0.0000 
     29 CB         -1.7630  -48.3160  103.3120 C.3       1 MTX604      0.0000 
     30 CG         -2.0170  -48.2230  104.7840 C.3       1 MTX604      0.0000 
     31 CD         -3.2840  -47.5340  105.1780 C.2       1 MTX604      0.0000 
     32 OE1        -4.2640  -48.2270  105.5330 O.co2     1 MTX604      0.0000 
     33 OE2        -3.2650  -46.3050  105.4520 O.co2     1 MTX604      0.0000 
@<TRIPOS>BOND
     1    1    2 ar   
     2    1   12 ar   
     3    2    3 1    
     4    2    4 ar   
     5    4    5 ar   
     6    5    6 1    
     7    5    7 ar   
     8    7    8 ar   
     9    7   12 ar   
    10    8    9 ar   
    11    9   10 ar   
    12    9   13 1    
    13   10   11 ar   
    14   11   12 ar   
    15   13   14 1    
    16   14   15 1    
    17   14   19 1    
    18   16   17 ar   
    19   16   21 ar   
    20   16   22 1    
    21   17   18 ar   
    22   18   19 ar   
    23   19   20 ar   
    24   20   21 ar   
    25   22   23 2    
    26   22   24 am   
    27   24   25 1    
    28   25   26 1    
    29   25   29 1    
    30   26   27 ar   
    31   26   28 ar   
    32   29   30 1    
    33   30   31 1    
    34   31   32 ar   
    35   31   33 ar   
@<TRIPOS>SUBSTRUCTURE
     1 MTX604      1 GROUP   
@<TRIPOS>SET

