#    Name: 6pfi_5_NDP
#    Modification time : Fri May 22 19:37:36 2020

@<TRIPOS>MOLECULE
6pfi_5_NDP
   48    52     1     0     1
SMALL
NO_CHARGES


@<TRIPOS>ATOM
      1 PA        -72.0580  -85.7620   16.7130 P.3       1 NDP601      0.0000 
      2 O1A       -70.9930  -85.5990   17.7790 O.co2     1 NDP601      0.0000 
      3 O2A       -73.0970  -84.6940   16.8900 O.co2     1 NDP601      0.0000 
      4 O5B       -71.4350  -85.5950   15.3200 O.3       1 NDP601      0.0000 
      5 C5B       -70.4030  -86.4320   14.8650 C.3       1 NDP601      0.0000 
      6 C4B       -69.9610  -86.2280   13.4750 C.3       1 NDP601      0.0000 
      7 O4B       -69.1900  -85.0480   13.3800 O.3       1 NDP601      0.0000 
      8 C3B       -69.0790  -87.2860   12.9730 C.3       1 NDP601      0.0000 
      9 O3B       -69.7840  -88.3820   12.5010 O.3       1 NDP601      0.0000 
     10 C2B       -68.3960  -86.6030   11.9020 C.3       1 NDP601      0.0000 
     11 O2B       -69.2400  -86.4060   10.8020 O.3       1 NDP601      0.0000 
     12 C1B       -68.1230  -85.3020   12.4820 C.3       1 NDP601      0.0000 
     13 N9A       -66.8790  -85.3160   13.1700 N.pl3     1 NDP601      0.0000 
     14 C8A       -66.6920  -85.5960   14.4830 C.2       1 NDP601      0.0000 
     15 N7A       -65.3790  -85.5050   14.7770 N.2       1 NDP601      0.0000 
     16 C5A       -64.7020  -85.1550   13.6310 C.ar      1 NDP601      0.0000 
     17 C6A       -63.3420  -84.9140   13.3110 C.ar      1 NDP601      0.0000 
     18 N6A       -62.3050  -85.0350   14.3670 N.pl3     1 NDP601      0.0000 
     19 N1A       -62.9870  -84.5740   12.0430 N.ar      1 NDP601      0.0000 
     20 C2A       -63.9520  -84.4710   11.0900 C.ar      1 NDP601      0.0000 
     21 N3A       -65.2460  -84.6870   11.3420 N.ar      1 NDP601      0.0000 
     22 C4A       -65.6560  -85.0340   12.6170 C.ar      1 NDP601      0.0000 
     23 O3        -72.7580  -87.1880   16.8430 O.3       1 NDP601      0.0000 
     24 PN        -73.2920  -87.7280   18.2420 P.3       1 NDP601      0.0000 
     25 O1N       -73.9410  -89.1110   18.0790 O.co2     1 NDP601      0.0000 
     26 O2N       -72.1270  -87.8460   19.2000 O.co2     1 NDP601      0.0000 
     27 O5D       -74.4080  -86.7050   18.8240 O.3       1 NDP601      0.0000 
     28 C5D       -75.7550  -86.8830   18.4680 C.3       1 NDP601      0.0000 
     29 C4D       -76.6880  -87.2980   19.5050 C.3       1 NDP601      0.0000 
     30 O4D       -76.5010  -86.4970   20.6690 O.3       1 NDP601      0.0000 
     31 C3D       -78.0800  -87.0850   19.0940 C.3       1 NDP601      0.0000 
     32 O3D       -78.9080  -87.9790   19.7640 O.3       1 NDP601      0.0000 
     33 C2D       -78.3630  -85.7680   19.5470 C.3       1 NDP601      0.0000 
     34 O2D       -79.7390  -85.6070   19.7120 O.3       1 NDP601      0.0000 
     35 C1D       -77.6420  -85.7230   20.8370 C.3       1 NDP601      0.0000 
     36 N1N       -77.3020  -84.3820   21.2010 N.pl3     1 NDP601      0.0000 
     37 C2N       -77.5850  -83.9740   22.4490 C.2       1 NDP601      0.0000 
     38 C3N       -77.2760  -82.6740   22.8720 C.2       1 NDP601      0.0000 
     39 C7N       -77.6220  -82.2670   24.2950 C.2       1 NDP601      0.0000 
     40 O7N       -77.2280  -81.1740   24.7320 O.2       1 NDP601      0.0000 
     41 N7N       -78.3990  -83.1240   25.1460 N.am      1 NDP601      0.0000 
     42 C4N       -76.6550  -81.7810   21.9780 C.3       1 NDP601      0.0000 
     43 C5N       -76.3730  -82.2400   20.6850 C.2       1 NDP601      0.0000 
     44 C6N       -76.6980  -83.5410   20.3060 C.2       1 NDP601      0.0000 
     45 P2B       -68.9210  -87.0150    9.4000 P.3       1 NDP601      0.0000 
     46 O1X       -69.7600  -88.2970    9.2230 O.co2     1 NDP601      0.0000 
     47 O2X       -69.2680  -86.0310    8.3610 O.co2     1 NDP601      0.0000 
     48 O3X       -67.4680  -87.3390    9.2710 O.co2     1 NDP601      0.0000 
@<TRIPOS>BOND
     1    1    2 ar   
     2    1    3 ar   
     3    1    4 1    
     4    1   23 1    
     5    4    5 1    
     6    5    6 1    
     7    6    7 1    
     8    6    8 1    
     9    7   12 1    
    10    8    9 1    
    11    8   10 1    
    12   10   11 1    
    13   10   12 1    
    14   11   45 1    
    15   12   13 1    
    16   13   14 1    
    17   13   22 1    
    18   14   15 2    
    19   15   16 1    
    20   16   17 ar   
    21   16   22 ar   
    22   17   18 1    
    23   17   19 ar   
    24   19   20 ar   
    25   20   21 ar   
    26   21   22 ar   
    27   23   24 1    
    28   24   25 ar   
    29   24   26 ar   
    30   24   27 1    
    31   27   28 1    
    32   28   29 1    
    33   29   30 1    
    34   29   31 1    
    35   30   35 1    
    36   31   32 1    
    37   31   33 1    
    38   33   34 1    
    39   33   35 1    
    40   35   36 1    
    41   36   37 1    
    42   36   44 1    
    43   37   38 2    
    44   38   39 1    
    45   38   42 1    
    46   39   40 2    
    47   39   41 am   
    48   42   43 1    
    49   43   44 2    
    50   45   46 ar   
    51   45   47 ar   
    52   45   48 ar   
@<TRIPOS>SUBSTRUCTURE
     1 NDP601      1 GROUP   
@<TRIPOS>SET
ATOM$ORANGE STATIC     ATOMS   COLORGROUP SYSTEM 
42 5 5 6 6 8 8 10 10 12 12 14 14 16 16 17 17 20 \
20 22 22 28 28 29 29 31 31 33 33 35 35 37 37 38 38 39 \
39 42 42 43 43 44 44 

