#    Name: 6pfi_5_MTX
#    Modification time : Fri May 22 19:37:28 2020

@<TRIPOS>MOLECULE
6pfi_5_MTX
   33    35     1     0     0
SMALL
NO_CHARGES


@<TRIPOS>ATOM
      1 N1       -107.2190  -62.0550   29.4750 N.ar      1 MTX604      0.0000 
      2 C2       -107.6270  -61.4450   28.3470 C.ar      1 MTX604      0.0000 
      3 NA2      -107.6870  -62.2090   27.1280 N.pl3     1 MTX604      0.0000 
      4 N3       -107.9780  -60.1490   28.3220 N.ar      1 MTX604      0.0000 
      5 C4       -107.9300  -59.4070   29.4500 C.ar      1 MTX604      0.0000 
      6 NA4      -108.2980  -58.0280   29.4580 N.pl3     1 MTX604      0.0000 
      7 C4A      -107.5080  -60.0040   30.6560 C.ar      1 MTX604      0.0000 
      8 N5       -107.4490  -59.2850   31.8120 N.ar      1 MTX604      0.0000 
      9 C6       -107.0460  -59.8980   32.9420 C.ar      1 MTX604      0.0000 
     10 C7       -106.6760  -61.2480   32.9570 C.ar      1 MTX604      0.0000 
     11 N8       -106.7420  -61.9470   31.8020 N.ar      1 MTX604      0.0000 
     12 C8A      -107.1550  -61.3400   30.6420 C.ar      1 MTX604      0.0000 
     13 C9       -106.9780  -59.0830   34.2090 C.3       1 MTX604      0.0000 
     14 N10      -106.0230  -58.0010   34.1090 N.pl3     1 MTX604      0.0000 
     15 CM       -106.4700  -56.6320   34.0860 C.3       1 MTX604      0.0000 
     16 C11      -101.9090  -58.9290   33.7300 C.ar      1 MTX604      0.0000 
     17 C12      -102.7530  -59.7880   34.4290 C.ar      1 MTX604      0.0000 
     18 C13      -104.1050  -59.4810   34.5560 C.ar      1 MTX604      0.0000 
     19 C14      -104.6090  -58.3150   33.9890 C.ar      1 MTX604      0.0000 
     20 C15      -103.7680  -57.4600   33.2840 C.ar      1 MTX604      0.0000 
     21 C16      -102.4170  -57.7700   33.1580 C.ar      1 MTX604      0.0000 
     22 C        -100.4420  -59.2350   33.5660 C.2       1 MTX604      0.0000 
     23 O         -99.8510  -59.8830   34.4140 O.2       1 MTX604      0.0000 
     24 N         -99.7460  -58.7520   32.3920 N.am      1 MTX604      0.0000 
     25 CA        -98.3500  -59.0110   32.1680 C.3       1 MTX604      0.0000 
     26 CT        -97.9290  -58.1510   31.0420 C.2       1 MTX604      0.0000 
     27 O1        -98.7710  -57.3760   30.5180 O.co2     1 MTX604      0.0000 
     28 O2        -96.7370  -58.1910   30.6060 O.co2     1 MTX604      0.0000 
     29 CB        -98.2020  -60.4310   31.7400 C.3       1 MTX604      0.0000 
     30 CG        -96.9010  -61.1460   31.9440 C.3       1 MTX604      0.0000 
     31 CD        -96.7190  -62.4080   31.1620 C.2       1 MTX604      0.0000 
     32 OE1       -96.0020  -62.4020   30.1350 O.co2     1 MTX604      0.0000 
     33 OE2       -97.4410  -63.4080   31.4140 O.co2     1 MTX604      0.0000 
@<TRIPOS>BOND
     1    1    2 ar   
     2    1   12 ar   
     3    2    3 1    
     4    2    4 ar   
     5    4    5 ar   
     6    5    6 1    
     7    5    7 ar   
     8    7    8 ar   
     9    7   12 ar   
    10    8    9 ar   
    11    9   10 ar   
    12    9   13 1    
    13   10   11 ar   
    14   11   12 ar   
    15   13   14 1    
    16   14   15 1    
    17   14   19 1    
    18   16   17 ar   
    19   16   21 ar   
    20   16   22 1    
    21   17   18 ar   
    22   18   19 ar   
    23   19   20 ar   
    24   20   21 ar   
    25   22   23 2    
    26   22   24 am   
    27   24   25 1    
    28   25   26 1    
    29   25   29 1    
    30   26   27 ar   
    31   26   28 ar   
    32   29   30 1    
    33   30   31 1    
    34   31   32 ar   
    35   31   33 ar   
@<TRIPOS>SUBSTRUCTURE
     1 MTX604      1 GROUP   
@<TRIPOS>SET

