#    Name: 6pfi_6_NDP
#    Modification time : Fri May 22 19:37:31 2020

@<TRIPOS>MOLECULE
6pfi_6_NDP
   48    52     1     0     1
SMALL
NO_CHARGES


@<TRIPOS>ATOM
      1 PA          7.2630  -45.0150   87.3160 P.3       1 NDP601      0.0000 
      2 O1A         6.2900  -45.2860   86.1890 O.co2     1 NDP601      0.0000 
      3 O2A         6.5910  -45.2920   88.6300 O.co2     1 NDP601      0.0000 
      4 O5B         8.4700  -45.9500   87.1980 O.3       1 NDP601      0.0000 
      5 C5B         9.2620  -45.9220   86.0440 C.3       1 NDP601      0.0000 
      6 C4B        10.4560  -46.7770   86.0380 C.3       1 NDP601      0.0000 
      7 O4B        10.0790  -48.1290   85.8910 O.3       1 NDP601      0.0000 
      8 C3B        11.3280  -46.4990   84.8970 C.3       1 NDP601      0.0000 
      9 O3B        12.2140  -45.4740   85.1740 O.3       1 NDP601      0.0000 
     10 C2B        12.0180  -47.7530   84.7480 C.3       1 NDP601      0.0000 
     11 O2B        12.9680  -47.9020   85.7620 O.3       1 NDP601      0.0000 
     12 C1B        10.9580  -48.7200   84.9510 C.3       1 NDP601      0.0000 
     13 N9A        10.2760  -48.9390   83.7280 N.pl3     1 NDP601      0.0000 
     14 C8A         9.1820  -48.2650   83.2990 C.2       1 NDP601      0.0000 
     15 N7A         8.8070  -48.7400   82.0950 N.2       1 NDP601      0.0000 
     16 C5A         9.6760  -49.7440   81.7420 C.ar      1 NDP601      0.0000 
     17 C6A         9.7930  -50.6000   80.6230 C.ar      1 NDP601      0.0000 
     18 N6A         8.8120  -50.4780   79.5160 N.pl3     1 NDP601      0.0000 
     19 N1A        10.7930  -51.5220   80.5660 N.ar      1 NDP601      0.0000 
     20 C2A        11.6750  -51.6050   81.6000 C.ar      1 NDP601      0.0000 
     21 N3A        11.6040  -50.8210   82.6790 N.ar      1 NDP601      0.0000 
     22 C4A        10.6040  -49.8700   82.7780 C.ar      1 NDP601      0.0000 
     23 O3          7.7430  -43.4940   87.2880 O.3       1 NDP601      0.0000 
     24 PN          6.7110  -42.2890   87.1570 P.3       1 NDP601      0.0000 
     25 O1N         7.4550  -40.9460   87.2130 O.co2     1 NDP601      0.0000 
     26 O2N         5.9910  -42.3740   85.8280 O.co2     1 NDP601      0.0000 
     27 O5D         5.6520  -42.4090   88.3800 O.3       1 NDP601      0.0000 
     28 C5D         5.9760  -41.9510   89.6650 C.3       1 NDP601      0.0000 
     29 C4D         5.2340  -40.8020   90.1560 C.3       1 NDP601      0.0000 
     30 O4D         3.8390  -41.0680   90.0240 O.3       1 NDP601      0.0000 
     31 C3D         5.4810  -40.5710   91.5850 C.3       1 NDP601      0.0000 
     32 O3D         5.3970  -39.2100   91.8670 O.3       1 NDP601      0.0000 
     33 C2D         4.4180  -41.2640   92.2330 C.3       1 NDP601      0.0000 
     34 O2D         4.1330  -40.6950   93.4740 O.3       1 NDP601      0.0000 
     35 C1D         3.2880  -41.0860   91.2980 C.3       1 NDP601      0.0000 
     36 N1N         2.3350  -42.1410   91.4710 N.pl3     1 NDP601      0.0000 
     37 C2N         1.0490  -41.8100   91.6880 C.2       1 NDP601      0.0000 
     38 C3N         0.0690  -42.7980   91.8660 C.2       1 NDP601      0.0000 
     39 C7N        -1.3680  -42.3660   92.1050 C.2       1 NDP601      0.0000 
     40 O7N        -2.2730  -43.2170   92.1210 O.2       1 NDP601      0.0000 
     41 N7N        -1.6980  -40.9850   92.3140 N.am      1 NDP601      0.0000 
     42 C4N         0.4340  -44.1570   91.8200 C.3       1 NDP601      0.0000 
     43 C5N         1.7840  -44.4650   91.5930 C.2       1 NDP601      0.0000 
     44 C6N         2.7260  -43.4530   91.4210 C.2       1 NDP601      0.0000 
     45 P2B        14.4590  -48.1920   85.4200 P.3       1 NDP601      0.0000 
     46 O1X        15.2300  -46.8630   85.5020 O.co2     1 NDP601      0.0000 
     47 O2X        15.0100  -49.1450   86.4000 O.co2     1 NDP601      0.0000 
     48 O3X        14.5820  -48.7800   84.0500 O.co2     1 NDP601      0.0000 
@<TRIPOS>BOND
     1    1    2 ar   
     2    1    3 ar   
     3    1    4 1    
     4    1   23 1    
     5    4    5 1    
     6    5    6 1    
     7    6    7 1    
     8    6    8 1    
     9    7   12 1    
    10    8    9 1    
    11    8   10 1    
    12   10   11 1    
    13   10   12 1    
    14   11   45 1    
    15   12   13 1    
    16   13   14 1    
    17   13   22 1    
    18   14   15 2    
    19   15   16 1    
    20   16   17 ar   
    21   16   22 ar   
    22   17   18 1    
    23   17   19 ar   
    24   19   20 ar   
    25   20   21 ar   
    26   21   22 ar   
    27   23   24 1    
    28   24   25 ar   
    29   24   26 ar   
    30   24   27 1    
    31   27   28 1    
    32   28   29 1    
    33   29   30 1    
    34   29   31 1    
    35   30   35 1    
    36   31   32 1    
    37   31   33 1    
    38   33   34 1    
    39   33   35 1    
    40   35   36 1    
    41   36   37 1    
    42   36   44 1    
    43   37   38 2    
    44   38   39 1    
    45   38   42 1    
    46   39   40 2    
    47   39   41 am   
    48   42   43 1    
    49   43   44 2    
    50   45   46 ar   
    51   45   47 ar   
    52   45   48 ar   
@<TRIPOS>SUBSTRUCTURE
     1 NDP601      1 GROUP   
@<TRIPOS>SET
ATOM$ORANGE STATIC     ATOMS   COLORGROUP SYSTEM 
42 5 5 6 6 8 8 10 10 12 12 14 14 16 16 17 17 20 \
20 22 22 28 28 29 29 31 31 33 33 35 35 37 37 38 38 39 \
39 42 42 43 43 44 44 

