#    Name: 5ooe_4_ANP
#    Modification time : Fri May 22 19:18:22 2020

@<TRIPOS>MOLECULE
5ooe_4_ANP
   31    33     1     0     1
SMALL
NO_CHARGES


@<TRIPOS>ATOM
      1 PG        162.4010  153.6700  174.5400 P.3       1 ANP401      0.0000 
      2 O1G       163.3200  153.4690  173.2620 O.co2     1 ANP401      0.0000 
      3 O2G       161.8270  155.1210  174.5610 O.co2     1 ANP401      0.0000 
      4 O3G       161.2320  152.6160  174.5680 O.co2     1 ANP401      0.0000 
      5 PB        164.7380  153.2580  175.9640 P.3       1 ANP401      0.0000 
      6 O1B       165.5050  153.3260  174.5960 O.co2     1 ANP401      0.0000 
      7 O2B       165.5800  154.1430  176.8780 O.co2     1 ANP401      0.0000 
      8 N3B       163.1760  153.6450  175.9600 N.3       1 ANP401      0.0000 
      9 PA        166.0760  151.1610  176.9970 P.3       1 ANP401      0.0000 
     10 O1A       166.5110  150.4180  175.7230 O.co2     1 ANP401      0.0000 
     11 O2A       167.1280  152.2710  177.2880 O.co2     1 ANP401      0.0000 
     12 O3A       164.7730  151.8430  176.5320 O.3       1 ANP401      0.0000 
     13 O5'       165.7380  150.2910  178.3030 O.3       1 ANP401      0.0000 
     14 C5'       165.5540  148.8930  178.2970 C.3       1 ANP401      0.0000 
     15 C4'       164.2800  148.4320  178.9820 C.3       1 ANP401      0.0000 
     16 O4'       164.2760  146.9960  178.9400 O.3       1 ANP401      0.0000 
     17 C3'       164.1840  148.7480  180.4730 C.3       1 ANP401      0.0000 
     18 O3'       162.8410  148.5710  180.9250 O.3       1 ANP401      0.0000 
     19 C2'       165.0330  147.6460  181.0890 C.3       1 ANP401      0.0000 
     20 O2'       164.4580  147.0930  182.2650 O.3       1 ANP401      0.0000 
     21 C1'       165.0450  146.5320  180.0630 C.3       1 ANP401      0.0000 
     22 N9        166.4120  146.2500  179.7440 N.pl3     1 ANP401      0.0000 
     23 C8        167.3940  147.1380  179.9960 C.2       1 ANP401      0.0000 
     24 N7        168.4960  146.5360  180.3060 N.2       1 ANP401      0.0000 
     25 C5        168.2740  145.2170  180.2760 C.ar      1 ANP401      0.0000 
     26 C6        169.0560  144.1060  180.5240 C.ar      1 ANP401      0.0000 
     27 N6        170.3750  144.2680  180.8970 N.pl3     1 ANP401      0.0000 
     28 N1        168.5140  142.9090  180.4000 N.ar      1 ANP401      0.0000 
     29 C2        167.2610  142.7700  180.0530 C.ar      1 ANP401      0.0000 
     30 N3        166.4860  143.7890  179.8170 N.ar      1 ANP401      0.0000 
     31 C4        166.9500  145.0180  179.9160 C.ar      1 ANP401      0.0000 
@<TRIPOS>BOND
     1    1    2 ar   
     2    1    3 ar   
     3    1    4 ar   
     4    1    8 1    
     5    5    6 ar   
     6    5    7 ar   
     7    5    8 1    
     8    5   12 1    
     9    9   10 ar   
    10    9   11 ar   
    11    9   12 1    
    12    9   13 1    
    13   13   14 1    
    14   14   15 1    
    15   15   16 1    
    16   15   17 1    
    17   16   21 1    
    18   17   18 1    
    19   17   19 1    
    20   19   20 1    
    21   19   21 1    
    22   21   22 1    
    23   22   23 1    
    24   22   31 1    
    25   23   24 2    
    26   24   25 1    
    27   25   26 ar   
    28   25   31 ar   
    29   26   27 1    
    30   26   28 ar   
    31   28   29 ar   
    32   29   30 ar   
    33   30   31 ar   
@<TRIPOS>SUBSTRUCTURE
     1 ANP401      1 GROUP   
@<TRIPOS>SET
ATOM$ORANGE STATIC     ATOMS   COLORGROUP SYSTEM 
20 14 14 15 15 17 17 19 19 21 21 23 23 25 25 26 26 29 \
29 31 31 

