#    Name: 5ooe_1_ANP
#    Modification time : Fri May 22 19:18:07 2020

@<TRIPOS>MOLECULE
5ooe_1_ANP
   31    33     1     0     1
SMALL
NO_CHARGES


@<TRIPOS>ATOM
      1 PG        134.4250  151.9180   92.2460 P.3       1 ANP401      0.0000 
      2 O1G       133.8570  152.6780   90.9740 O.co2     1 ANP401      0.0000 
      3 O2G       133.9310  150.4390   92.2490 O.co2     1 ANP401      0.0000 
      4 O3G       135.9980  151.9740   92.2840 O.co2     1 ANP401      0.0000 
      5 PB        132.8930  153.7210   93.6820 P.3       1 ANP401      0.0000 
      6 O1B       132.2690  154.1770   92.3160 O.co2     1 ANP401      0.0000 
      7 O2B       131.6740  153.5750   94.5880 O.co2     1 ANP401      0.0000 
      8 N3B       133.8400  152.4200   93.6690 N.3       1 ANP401      0.0000 
      9 PA        133.2110  156.1760   94.7450 P.3       1 ANP401      0.0000 
     10 O1A       133.3630  157.0380   93.4800 O.co2     1 ANP401      0.0000 
     11 O2A       131.6900  156.0000   95.0250 O.co2     1 ANP401      0.0000 
     12 O3A       133.7730  154.8210   94.2680 O.3       1 ANP401      0.0000 
     13 O5'       134.0220  156.6100   96.0590 O.3       1 ANP401      0.0000 
     14 C5'       135.0620  157.5620   96.0690 C.3       1 ANP401      0.0000 
     15 C4'       136.3300  157.0880   96.7570 C.3       1 ANP401      0.0000 
     16 O4'       137.2570  158.1860   96.7320 O.3       1 ANP401      0.0000 
     17 C3'       136.1920  156.7680   98.2430 C.3       1 ANP401      0.0000 
     18 O3'       137.3320  156.0360   98.6940 O.3       1 ANP401      0.0000 
     19 C2'       136.2470  158.1520   98.8750 C.3       1 ANP401      0.0000 
     20 O2'       137.0370  158.1920  100.0550 O.3       1 ANP401      0.0000 
     21 C1'       136.9610  159.0230   97.8620 C.3       1 ANP401      0.0000 
     22 N9        136.0960  160.1220   97.5510 N.pl3     1 ANP401      0.0000 
     23 C8        134.7720  160.0700   97.7950 C.2       1 ANP401      0.0000 
     24 N7        134.3130  161.2370   98.1150 N.2       1 ANP401      0.0000 
     25 C5        135.3320  162.1040   98.1000 C.ar      1 ANP401      0.0000 
     26 C6        135.4460  163.4550   98.3640 C.ar      1 ANP401      0.0000 
     27 N6        134.3300  164.1750   98.7390 N.pl3     1 ANP401      0.0000 
     28 N1        136.6310  164.0250   98.2530 N.ar      1 ANP401      0.0000 
     29 C2        137.6830  163.3300   97.9040 C.ar      1 ANP401      0.0000 
     30 N3        137.6210  162.0530   97.6540 N.ar      1 ANP401      0.0000 
     31 C4        136.4760  161.4100   97.7390 C.ar      1 ANP401      0.0000 
@<TRIPOS>BOND
     1    1    2 ar   
     2    1    3 ar   
     3    1    4 ar   
     4    1    8 1    
     5    5    6 ar   
     6    5    7 ar   
     7    5    8 1    
     8    5   12 1    
     9    9   10 ar   
    10    9   11 ar   
    11    9   12 1    
    12    9   13 1    
    13   13   14 1    
    14   14   15 1    
    15   15   16 1    
    16   15   17 1    
    17   16   21 1    
    18   17   18 1    
    19   17   19 1    
    20   19   20 1    
    21   19   21 1    
    22   21   22 1    
    23   22   23 1    
    24   22   31 1    
    25   23   24 2    
    26   24   25 1    
    27   25   26 ar   
    28   25   31 ar   
    29   26   27 1    
    30   26   28 ar   
    31   28   29 ar   
    32   29   30 ar   
    33   30   31 ar   
@<TRIPOS>SUBSTRUCTURE
     1 ANP401      1 GROUP   
@<TRIPOS>SET
ATOM$ORANGE STATIC     ATOMS   COLORGROUP SYSTEM 
20 14 14 15 15 17 17 19 19 21 21 23 23 25 25 26 26 29 \
29 31 31 

