#    Name: 5ooe_5_ANP
#    Modification time : Fri May 22 19:18:27 2020

@<TRIPOS>MOLECULE
5ooe_5_ANP
   31    33     1     0     1
SMALL
NO_CHARGES


@<TRIPOS>ATOM
      1 PG        136.9870  138.0230  201.8400 P.3       1 ANP401      0.0000 
      2 O1G       136.0460  138.0240  200.5620 O.co2     1 ANP401      0.0000 
      3 O2G       137.8800  136.7440  201.8440 O.co2     1 ANP401      0.0000 
      4 O3G       137.8810  139.3190  201.8840 O.co2     1 ANP401      0.0000 
      5 PB        134.6190  137.8670  203.2620 P.3       1 ANP401      0.0000 
      6 O1B       133.8880  137.6420  201.8910 O.co2     1 ANP401      0.0000 
      7 O2B       134.0030  136.8000  204.1620 O.co2     1 ANP401      0.0000 
      8 N3B       136.2280  137.8510  203.2580 N.3       1 ANP401      0.0000 
      9 PA        132.8330  139.5840  204.3180 P.3       1 ANP401      0.0000 
     10 O1A       132.2380  140.2240  203.0520 O.co2     1 ANP401      0.0000 
     11 O2A       132.0650  138.2580  204.5910 O.co2     1 ANP401      0.0000 
     12 O3A       134.2580  139.2280  203.8480 O.3       1 ANP401      0.0000 
     13 O5'       132.9610  140.4920  205.6350 O.3       1 ANP401      0.0000 
     14 C5'       132.8170  141.8940  205.6480 C.3       1 ANP401      0.0000 
     15 C4'       133.9510  142.6280  206.3430 C.3       1 ANP401      0.0000 
     16 O4'       133.6230  144.0270  206.3190 O.3       1 ANP401      0.0000 
     17 C3'       134.1170  142.3230  207.8300 C.3       1 ANP401      0.0000 
     18 O3'       135.3820  142.8000  208.2880 O.3       1 ANP401      0.0000 
     19 C2'       133.0360  143.1920  208.4570 C.3       1 ANP401      0.0000 
     20 O2'       133.4680  143.8480  209.6410 O.3       1 ANP401      0.0000 
     21 C1'       132.7680  144.2870  207.4450 C.3       1 ANP401      0.0000 
     22 N9        131.3720  144.2490  207.1260 N.pl3     1 ANP401      0.0000 
     23 C8        130.6220  143.1550  207.3630 C.2       1 ANP401      0.0000 
     24 N7        129.4110  143.4830  207.6780 N.2       1 ANP401      0.0000 
     25 C5        129.3230  144.8180  207.6650 C.ar      1 ANP401      0.0000 
     26 C6        128.3050  145.7150  207.9250 C.ar      1 ANP401      0.0000 
     27 N6        127.0590  145.2480  208.2920 N.pl3     1 ANP401      0.0000 
     28 N1        128.5560  147.0060  207.8180 N.ar      1 ANP401      0.0000 
     29 C2        129.7430  147.4360  207.4760 C.ar      1 ANP401      0.0000 
     30 N3        130.7320  146.6250  207.2300 N.ar      1 ANP401      0.0000 
     31 C4        130.5650  145.3220  207.3120 C.ar      1 ANP401      0.0000 
@<TRIPOS>BOND
     1    1    2 ar   
     2    1    3 ar   
     3    1    4 ar   
     4    1    8 1    
     5    5    6 ar   
     6    5    7 ar   
     7    5    8 1    
     8    5   12 1    
     9    9   10 ar   
    10    9   11 ar   
    11    9   12 1    
    12    9   13 1    
    13   13   14 1    
    14   14   15 1    
    15   15   16 1    
    16   15   17 1    
    17   16   21 1    
    18   17   18 1    
    19   17   19 1    
    20   19   20 1    
    21   19   21 1    
    22   21   22 1    
    23   22   23 1    
    24   22   31 1    
    25   23   24 2    
    26   24   25 1    
    27   25   26 ar   
    28   25   31 ar   
    29   26   27 1    
    30   26   28 ar   
    31   28   29 ar   
    32   29   30 ar   
    33   30   31 ar   
@<TRIPOS>SUBSTRUCTURE
     1 ANP401      1 GROUP   
@<TRIPOS>SET
ATOM$ORANGE STATIC     ATOMS   COLORGROUP SYSTEM 
20 14 14 15 15 17 17 19 19 21 21 23 23 25 25 26 26 29 \
29 31 31 

