#    Name: 5ooe_3_ANP
#    Modification time : Fri May 22 19:18:17 2020

@<TRIPOS>MOLECULE
5ooe_3_ANP
   31    33     1     0     1
SMALL
NO_CHARGES


@<TRIPOS>ATOM
      1 PG        134.1430  144.6570  147.0400 P.3       1 ANP401      0.0000 
      2 O1G       133.2990  145.0820  145.7650 O.co2     1 ANP401      0.0000 
      3 O2G       134.3670  143.1140  147.0420 O.co2     1 ANP401      0.0000 
      4 O3G       135.5230  145.4130  147.0810 O.co2     1 ANP401      0.0000 
      5 PB        131.9600  145.5800  148.4690 P.3       1 ANP401      0.0000 
      6 O1B       131.2030  145.7080  147.1010 O.co2     1 ANP401      0.0000 
      7 O2B       130.9340  144.9020  149.3720 O.co2     1 ANP401      0.0000 
      8 N3B       133.3910  144.8430  148.4600 N.3       1 ANP401      0.0000 
      9 PA        131.1390  147.9150  149.5300 P.3       1 ANP401      0.0000 
     10 O1A       130.8910  148.7550  148.2650 O.co2     1 ANP401      0.0000 
     11 O2A       129.8580  147.0750  149.8060 O.co2     1 ANP401      0.0000 
     12 O3A       132.2510  146.9570  149.0560 O.3       1 ANP401      0.0000 
     13 O5'       131.6650  148.6670  150.8470 O.3       1 ANP401      0.0000 
     14 C5'       132.1660  149.9850  150.8590 C.3       1 ANP401      0.0000 
     15 C4'       133.5100  150.1310  151.5500 C.3       1 ANP401      0.0000 
     16 O4'       133.8460  151.5280  151.5270 O.3       1 ANP401      0.0000 
     17 C3'       133.5260  149.7820  153.0370 C.3       1 ANP401      0.0000 
     18 O3'       134.8730  149.6390  153.4910 O.3       1 ANP401      0.0000 
     19 C2'       132.9530  151.0430  153.6670 C.3       1 ANP401      0.0000 
     20 O2'       133.6370  151.4340  154.8500 O.3       1 ANP401      0.0000 
     21 C1'       133.2020  152.1430  152.6550 C.3       1 ANP401      0.0000 
     22 N9        131.9370  152.7360  152.3410 N.pl3     1 ANP401      0.0000 
     23 C8        130.7760  152.0950  152.5810 C.2       1 ANP401      0.0000 
     24 N7        129.8420  152.9320  152.8990 N.2       1 ANP401      0.0000 
     25 C5        130.3620  154.1640  152.8860 C.ar      1 ANP401      0.0000 
     26 C6        129.8560  155.4220  153.1490 C.ar      1 ANP401      0.0000 
     27 N6        128.5350  155.5640  153.5200 N.pl3     1 ANP401      0.0000 
     28 N1        130.6610  156.4630  153.0400 N.ar      1 ANP401      0.0000 
     29 C2        131.9130  156.3140  152.6950 C.ar      1 ANP401      0.0000 
     30 N3        132.4320  155.1470  152.4460 N.ar      1 ANP401      0.0000 
     31 C4        131.6980  154.0570  152.5290 C.ar      1 ANP401      0.0000 
@<TRIPOS>BOND
     1    1    2 ar   
     2    1    3 ar   
     3    1    4 ar   
     4    1    8 1    
     5    5    6 ar   
     6    5    7 ar   
     7    5    8 1    
     8    5   12 1    
     9    9   10 ar   
    10    9   11 ar   
    11    9   12 1    
    12    9   13 1    
    13   13   14 1    
    14   14   15 1    
    15   15   16 1    
    16   15   17 1    
    17   16   21 1    
    18   17   18 1    
    19   17   19 1    
    20   19   20 1    
    21   19   21 1    
    22   21   22 1    
    23   22   23 1    
    24   22   31 1    
    25   23   24 2    
    26   24   25 1    
    27   25   26 ar   
    28   25   31 ar   
    29   26   27 1    
    30   26   28 ar   
    31   28   29 ar   
    32   29   30 ar   
    33   30   31 ar   
@<TRIPOS>SUBSTRUCTURE
     1 ANP401      1 GROUP   
@<TRIPOS>SET
ATOM$ORANGE STATIC     ATOMS   COLORGROUP SYSTEM 
20 14 14 15 15 17 17 19 19 21 21 23 23 25 25 26 26 29 \
29 31 31 

