#    Name: 5ooe_2_ANP
#    Modification time : Fri May 22 19:18:12 2020

@<TRIPOS>MOLECULE
5ooe_2_ANP
   31    33     1     0     1
SMALL
NO_CHARGES


@<TRIPOS>ATOM
      1 PG        163.7990  147.2550  119.6580 P.3       1 ANP401      0.0000 
      2 O1G       164.5260  146.6630  118.3780 O.co2     1 ANP401      0.0000 
      3 O2G       163.9380  148.8080  119.6810 O.co2     1 ANP401      0.0000 
      4 O3G       162.2810  146.8370  119.6900 O.co2     1 ANP401      0.0000 
      5 PB        165.7060  145.8360  121.0750 P.3       1 ANP401      0.0000 
      6 O1B       166.4180  145.5530  119.7050 O.co2     1 ANP401      0.0000 
      7 O2B       166.8580  146.2470  121.9860 O.co2     1 ANP401      0.0000 
      8 N3B       164.4840  146.8830  121.0760 N.3       1 ANP401      0.0000 
      9 PA        165.9630  143.3600  122.1060 P.3       1 ANP401      0.0000 
     10 O1A       166.0140  142.5030  120.8300 O.co2     1 ANP401      0.0000 
     11 O2A       167.4020  143.8790  122.3920 O.co2     1 ANP401      0.0000 
     12 O3A       165.1040  144.5550  121.6440 O.3       1 ANP401      0.0000 
     13 O5'       165.2740  142.7330  123.4120 O.3       1 ANP401      0.0000 
     14 C5'       164.4820  141.5670  123.4070 C.3       1 ANP401      0.0000 
     15 C4'       163.1390  141.7270  124.0970 C.3       1 ANP401      0.0000 
     16 O4'       162.4900  140.4450  124.0550 O.3       1 ANP401      0.0000 
     17 C3'       163.1990  142.0500  125.5880 C.3       1 ANP401      0.0000 
     18 O3'       161.9210  142.4940  126.0440 O.3       1 ANP401      0.0000 
     19 C2'       163.4650  140.6830  126.2020 C.3       1 ANP401      0.0000 
     20 O2'       162.7050  140.4460  127.3790 O.3       1 ANP401      0.0000 
     21 C1'       162.9710  139.6840  125.1750 C.3       1 ANP401      0.0000 
     22 N9        164.0660  138.8180  124.8530 N.pl3     1 ANP401      0.0000 
     23 C8        165.3430  139.1710  125.1010 C.2       1 ANP401      0.0000 
     24 N7        166.0580  138.1370  125.4080 N.2       1 ANP401      0.0000 
     25 C5        165.2670  137.0590  125.3790 C.ar      1 ANP401      0.0000 
     26 C6        165.4680  135.7150  125.6260 C.ar      1 ANP401      0.0000 
     27 N6        166.7200  135.2670  125.9950 N.pl3     1 ANP401      0.0000 
     28 N1        164.4460  134.8890  125.5040 N.ar      1 ANP401      0.0000 
     29 C2        163.2630  135.3270  125.1610 C.ar      1 ANP401      0.0000 
     30 N3        163.0280  136.5860  124.9270 N.ar      1 ANP401      0.0000 
     31 C4        163.9940  137.4750  125.0240 C.ar      1 ANP401      0.0000 
@<TRIPOS>BOND
     1    1    2 ar   
     2    1    3 ar   
     3    1    4 ar   
     4    1    8 1    
     5    5    6 ar   
     6    5    7 ar   
     7    5    8 1    
     8    5   12 1    
     9    9   10 ar   
    10    9   11 ar   
    11    9   12 1    
    12    9   13 1    
    13   13   14 1    
    14   14   15 1    
    15   15   16 1    
    16   15   17 1    
    17   16   21 1    
    18   17   18 1    
    19   17   19 1    
    20   19   20 1    
    21   19   21 1    
    22   21   22 1    
    23   22   23 1    
    24   22   31 1    
    25   23   24 2    
    26   24   25 1    
    27   25   26 ar   
    28   25   31 ar   
    29   26   27 1    
    30   26   28 ar   
    31   28   29 ar   
    32   29   30 ar   
    33   30   31 ar   
@<TRIPOS>SUBSTRUCTURE
     1 ANP401      1 GROUP   
@<TRIPOS>SET
ATOM$ORANGE STATIC     ATOMS   COLORGROUP SYSTEM 
20 14 14 15 15 17 17 19 19 21 21 23 23 25 25 26 26 29 \
29 31 31 

