#    Name: 6itl_1_NAD_CAVITY_N1_4
#    Modification time : Fri May 22 19:27:45 2020

@<TRIPOS>MOLECULE
6itl_1_NAD_CAVITY_N1_4
   65     0     5     0     0
SMALL
NO_CHARGES


@<TRIPOS>ATOM
      1 OG         36.3300   24.6400   13.4800 O.3       1 SER1        0.0000 
      2 OG         35.4900   25.8800   13.4100 O.3       1 SER1        0.0000 
      3 OG         36.1600   21.0100   15.6800 O.3       1 SER1        0.0000 
      4 OG         35.3200   22.2500   15.6100 O.3       1 SER1        0.0000 
      5 OG         37.1600   25.2600   14.5700 O.3       1 SER1        0.0000 
      6 OG         36.3200   26.5000   14.5000 O.3       1 SER1        0.0000 
      7 OG         36.1400   22.8700   16.7000 O.3       1 SER1        0.0000 
      8 N          32.4600   28.8300    5.7600 N.am      2 ALA2        0.0000 
      9 N          31.6200   30.0700    5.6900 N.am      2 ALA2        0.0000 
     10 N          31.5300   28.2600    6.7900 N.am      2 ALA2        0.0000 
     11 O          35.8900   27.5500    5.9600 O.2       2 ALA2        0.0000 
     12 O          35.0500   28.7900    5.8900 O.2       2 ALA2        0.0000 
     13 O          34.9700   26.9700    6.9900 O.2       2 ALA2        0.0000 
     14 N          33.2800   29.4500    6.8500 N.am      2 ALA2        0.0000 
     15 N          33.1900   27.6400    7.9500 N.am      2 ALA2        0.0000 
     16 N          32.2700   27.0700    8.9700 N.am      2 ALA2        0.0000 
     17 N          31.3400   26.4900   10.0000 N.am      2 ALA2        0.0000 
     18 N          33.0900   27.6900   10.0600 N.am      2 ALA2        0.0000 
     19 N          32.1600   27.1100   11.0900 N.am      2 ALA2        0.0000 
     20 N          32.9200   24.0600   12.2600 N.am      2 ALA2        0.0000 
     21 N          32.9800   27.7300   12.1800 N.am      2 ALA2        0.0000 
     22 O          34.5800   23.4400   13.4200 O.2       2 ALA2        0.0000 
     23 O          33.7400   24.6800   13.3500 O.2       2 ALA2        0.0000 
     24 O          32.9000   25.9200   13.2800 O.2       2 ALA2        0.0000 
     25 O          32.0600   27.1600   13.2100 O.2       2 ALA2        0.0000 
     26 O          33.6500   22.8700   14.4500 O.2       2 ALA2        0.0000 
     27 N          37.1800   23.4000   13.5500 N.am      2 ALA2        0.0000 
     28 O          36.2500   22.8200   14.5800 O.2       2 ALA2        0.0000 
     29 O          35.4100   24.0600   14.5100 O.2       2 ALA2        0.0000 
     30 O          37.0700   23.4400   15.6700 O.2       2 ALA2        0.0000 
     31 O          36.2300   24.6800   15.6000 O.2       2 ALA2        0.0000 
     32 O          35.3700   27.7800   16.5500 O.2       2 ALA2        0.0000 
     33 OD1        38.8400   22.7800   14.7100 O.co2     3 ASP3        0.0000 
     34 OD1        37.9100   22.2100   15.7400 O.co2     3 ASP3        0.0000 
     35 OD1        36.9800   21.6300   16.7700 O.co2     3 ASP3        0.0000 
     36 CA         33.3900   29.4100    4.7300 C.3       4 GLY6        0.0000 
     37 CA         34.0400   26.4000    8.0200 C.3       4 GLY6        0.0000 
     38 CA         33.1100   25.8300    9.0400 C.3       4 GLY6        0.0000 
     39 CA         32.1800   25.2500   10.0700 C.3       4 GLY6        0.0000 
     40 CA         35.7900   27.5900    8.0800 C.3       4 GLY6        0.0000 
     41 CA         34.9500   28.8300    8.0100 C.3       4 GLY6        0.0000 
     42 CA         34.8600   27.0200    9.1000 C.3       4 GLY6        0.0000 
     43 CA         34.0200   28.2600    9.0300 C.3       4 GLY6        0.0000 
     44 CA         33.9300   26.4500   10.1300 C.3       4 GLY6        0.0000 
     45 CA         33.8400   24.6400   11.2300 C.3       4 GLY6        0.0000 
     46 CA         33.0000   25.8700   11.1600 C.3       4 GLY6        0.0000 
     47 CA         33.7600   22.8200   12.3300 C.3       4 GLY6        0.0000 
     48 CA         32.0700   25.3000   12.1900 C.3       4 GLY6        0.0000 
     49 CA         31.2300   26.5400   12.1200 C.3       4 GLY6        0.0000 
     50 CA         34.7600   27.0700   11.2200 C.3       4 GLY6        0.0000 
     51 CA         36.3500   22.7800   12.4600 C.3       4 GLY6        0.0000 
     52 CA         35.5100   24.0200   12.3900 C.3       4 GLY6        0.0000 
     53 CA         34.6700   25.2600   12.3200 C.3       4 GLY6        0.0000 
     54 CA         33.8300   26.5000   12.2500 C.3       4 GLY6        0.0000 
     55 CA         36.2700   20.9600   13.5600 C.3       4 GLY6        0.0000 
     56 CA         35.4200   22.2000   13.4900 C.3       4 GLY6        0.0000 
     57 CA         34.5000   21.6300   14.5200 C.3       4 GLY6        0.0000 
     58 CA         38.0200   22.1600   13.6200 C.3       4 GLY6        0.0000 
     59 CA         34.6500   27.1200   13.3400 C.3       4 GLY6        0.0000 
     60 CA         38.0000   24.0200   14.6400 C.3       4 GLY6        0.0000 
     61 CA         36.3000   28.3600   15.5200 C.3       4 GLY6        0.0000 
     62 CA         37.9000   24.0700   16.7600 C.3       4 GLY6        0.0000 
     63 DU         34.2100   30.0300    5.8200 H         5 CUB7        0.0000 
     64 DU         34.1200   28.2100    6.9200 H         5 CUB7        0.0000 
     65 DU         35.8800   29.4100    6.9800 H         5 CUB7        0.0000 
@<TRIPOS>BOND
@<TRIPOS>SUBSTRUCTURE
     1 SER1        1 GROUP   
     2 ALA2        8 GROUP   
     3 ASP3       33 GROUP   
     4 GLY6       36 GROUP   
     5 CUB7       63 GROUP   
@<TRIPOS>SET

