#    Name: 6itl_1_NAD
#    Modification time : Fri May 22 19:27:42 2020

@<TRIPOS>MOLECULE
6itl_1_NAD
   44    48     1     0     1
SMALL
NO_CHARGES


@<TRIPOS>ATOM
      1 PA         34.1230   29.4720    6.1090 P.3       1 NAD401      0.0000 
      2 O1A        35.2730   29.0950    5.2460 O.co2     1 NAD401      0.0000 
      3 O2A        33.8930   30.9220    6.4180 O.co2     1 NAD401      0.0000 
      4 O5B        32.8370   28.7930    5.4590 O.3       1 NAD401      0.0000 
      5 C5B        31.5120   29.0600    5.9140 C.3       1 NAD401      0.0000 
      6 C4B        30.5880   29.0730    4.7240 C.3       1 NAD401      0.0000 
      7 O4B        29.2400   29.2480    5.2140 O.3       1 NAD401      0.0000 
      8 C3B        30.7990   30.1890    3.6780 C.3       1 NAD401      0.0000 
      9 O3B        30.9180   29.6060    2.3920 O.3       1 NAD401      0.0000 
     10 C2B        29.5190   31.0400    3.7800 C.3       1 NAD401      0.0000 
     11 O2B        29.1460   31.7050    2.5770 O.3       1 NAD401      0.0000 
     12 C1B        28.5570   29.9270    4.1960 C.3       1 NAD401      0.0000 
     13 N9A        27.2680   30.3870    4.6830 N.pl3     1 NAD401      0.0000 
     14 C8A        27.0270   31.5170    5.4410 C.2       1 NAD401      0.0000 
     15 N7A        25.7450   31.7080    5.6810 N.2       1 NAD401      0.0000 
     16 C5A        25.0990   30.7000    4.9730 C.ar      1 NAD401      0.0000 
     17 C6A        23.7350   30.3820    4.8000 C.ar      1 NAD401      0.0000 
     18 N6A        22.7250   31.0850    5.3170 N.pl3     1 NAD401      0.0000 
     19 N1A        23.4390   29.2970    4.0440 N.ar      1 NAD401      0.0000 
     20 C2A        24.4580   28.6020    3.5060 C.ar      1 NAD401      0.0000 
     21 N3A        25.7750   28.8050    3.5800 N.ar      1 NAD401      0.0000 
     22 C4A        26.0370   29.8770    4.3530 C.ar      1 NAD401      0.0000 
     23 O3         34.1940   28.6640    7.4920 O.3       1 NAD401      0.0000 
     24 PN         34.8400   27.2140    7.8350 P.3       1 NAD401      0.0000 
     25 O1N        34.4740   26.3030    6.7030 O.co2     1 NAD401      0.0000 
     26 O2N        36.2570   27.3740    8.3110 O.co2     1 NAD401      0.0000 
     27 O5D        33.9590   26.9010    9.1090 O.3       1 NAD401      0.0000 
     28 C5D        32.5450   26.6050    8.9950 C.3       1 NAD401      0.0000 
     29 C4D        31.9820   26.4090   10.3800 C.3       1 NAD401      0.0000 
     30 O4D        32.4920   25.1740   10.9720 O.3       1 NAD401      0.0000 
     31 C3D        32.3310   27.5090   11.3950 C.3       1 NAD401      0.0000 
     32 O3D        31.2080   27.7540   12.2290 O.3       1 NAD401      0.0000 
     33 C2D        33.3750   26.8630   12.2890 C.3       1 NAD401      0.0000 
     34 O2D        33.2810   27.4050   13.5900 O.3       1 NAD401      0.0000 
     35 C1D        32.8880   25.4200   12.3180 C.3       1 NAD401      0.0000 
     36 N1N        33.9040   24.4160   12.7800 N.pl3     1 NAD401      0.0000 
     37 C2N        33.4320   23.3010   13.4590 C.ar      1 NAD401      0.0000 
     38 C3N        34.3270   22.3430   13.9540 C.ar      1 NAD401      0.0000 
     39 C7N        33.8220   21.1580   14.7320 C.2       1 NAD401      0.0000 
     40 O7N        34.6750   20.4350   15.2270 O.2       1 NAD401      0.0000 
     41 N7N        32.4990   20.9220   14.8330 N.am      1 NAD401      0.0000 
     42 C4N        35.7120   22.5470   13.7820 C.ar      1 NAD401      0.0000 
     43 C5N        36.1420   23.5580   12.9320 C.ar      1 NAD401      0.0000 
     44 C6N        35.2450   24.5570   12.5690 C.ar      1 NAD401      0.0000 
@<TRIPOS>BOND
     1    1    2 ar   
     2    1    3 ar   
     3    1    4 1    
     4    1   23 1    
     5    4    5 1    
     6    5    6 1    
     7    6    7 1    
     8    6    8 1    
     9    7   12 1    
    10    8    9 1    
    11    8   10 1    
    12   10   11 1    
    13   10   12 1    
    14   12   13 1    
    15   13   14 1    
    16   13   22 1    
    17   14   15 2    
    18   15   16 1    
    19   16   17 ar   
    20   16   22 ar   
    21   17   18 1    
    22   17   19 ar   
    23   19   20 ar   
    24   20   21 ar   
    25   21   22 ar   
    26   23   24 1    
    27   24   25 ar   
    28   24   26 ar   
    29   24   27 1    
    30   27   28 1    
    31   28   29 1    
    32   29   30 1    
    33   29   31 1    
    34   30   35 1    
    35   31   32 1    
    36   31   33 1    
    37   33   34 1    
    38   33   35 1    
    39   35   36 1    
    40   36   37 ar   
    41   36   44 ar   
    42   37   38 ar   
    43   38   39 1    
    44   38   42 ar   
    45   39   40 2    
    46   39   41 am   
    47   42   43 ar   
    48   43   44 ar   
@<TRIPOS>SUBSTRUCTURE
     1 NAD401      1 GROUP   
@<TRIPOS>SET
ATOM$ORANGE STATIC     ATOMS   COLORGROUP SYSTEM 
42 5 5 6 6 8 8 10 10 12 12 14 14 16 16 17 17 20 \
20 22 22 28 28 29 29 31 31 33 33 35 35 37 37 38 38 39 \
39 42 42 43 43 44 44 

