#    Name: 6j2j_1_ASP_PHE_PRO
#    Modification time : Fri May 22 19:34:34 2020

@<TRIPOS>MOLECULE
6j2j_1_ASP_PHE_PRO
   27    27     3     0     0
SMALL
NO_CHARGES


@<TRIPOS>ATOM
      1 N         -50.7360  -13.9570   13.3990 N.4       1 ASP1        0.0000 
      2 CA        -51.2000  -15.0870   14.1940 C.3       1 ASP1        0.0000 
      3 C         -50.0310  -15.9380   14.6780 C.2       1 ASP1        0.0000 
      4 O         -49.1100  -16.2350   13.9170 O.2       1 ASP1        0.0000 
      5 CB        -52.1770  -15.9450   13.3870 C.3       1 ASP1        0.0000 
      6 CG        -53.5380  -16.0530   14.0450 C.2       1 ASP1        0.0000 
      7 OD1       -54.1930  -15.0070   14.2350 O.co2     1 ASP1        0.0000 
      8 OD2       -53.9540  -17.1850   14.3710 O.co2     1 ASP1        0.0000 
      9 N         -50.0740  -16.3280   15.9470 N.am      2 PHE2        0.0000 
     10 CA        -49.0190  -17.1460   16.5340 C.3       2 PHE2        0.0000 
     11 C         -48.7970  -18.4210   15.7290 C.2       2 PHE2        0.0000 
     12 O         -49.3780  -19.4650   16.0280 O.2       2 PHE2        0.0000 
     13 CB        -49.3550  -17.4920   17.9860 C.3       2 PHE2        0.0000 
     14 CG        -48.3900  -16.9190   18.9850 C.ar      2 PHE2        0.0000 
     15 CD1       -47.1400  -17.4860   19.1640 C.ar      2 PHE2        0.0000 
     16 CD2       -48.7350  -15.8130   19.7440 C.ar      2 PHE2        0.0000 
     17 CE1       -46.2500  -16.9610   20.0820 C.ar      2 PHE2        0.0000 
     18 CE2       -47.8500  -15.2830   20.6640 C.ar      2 PHE2        0.0000 
     19 CZ        -46.6050  -15.8580   20.8330 C.ar      2 PHE2        0.0000 
     20 N         -39.0590  -30.9760   19.7790 N.am      3 PRO8        0.0000 
     21 CA        -37.9910  -31.4230   18.8850 C.3       3 PRO8        0.0000 
     22 C         -37.5000  -32.8360   19.2070 C.2       3 PRO8        0.0000 
     23 O         -38.1910  -33.5740   19.9250 O.2       3 PRO8        0.0000 
     24 CB        -36.9020  -30.3710   19.1150 C.3       3 PRO8        0.0000 
     25 CG        -37.7180  -29.0810   19.2780 C.3       3 PRO8        0.0000 
     26 CD        -39.0540  -29.5060   19.9150 C.3       3 PRO8        0.0000 
     27 OXT       -36.4370  -33.2670   18.7250 O.3       3 PRO8        0.0000 
@<TRIPOS>BOND
     1   14   15 ar   
     2   14   16 ar   
     3   15   17 ar   
     4   16   18 ar   
     5   17   19 ar   
     6   18   19 ar   
     7   20   21 1    
     8   20   26 1    
     9   21   22 1    
    10   21   24 1    
    11   22   23 2    
    12   22   27 1    
    13   24   25 1    
    14   25   26 1    
    15    1    2 1    
    16    2    3 1    
    17    2    5 1    
    18    3    4 2    
    19    3    9 am   
    20    5    6 1    
    21    6    7 ar   
    22    6    8 ar   
    23    9   10 1    
    24   10   11 1    
    25   10   13 1    
    26   11   12 2    
    27   13   14 1    
@<TRIPOS>SUBSTRUCTURE
     1 ASP1        1 RESIDUE 
     2 PHE2        9 RESIDUE 
     3 PRO8       20 RESIDUE 
@<TRIPOS>SET

