#    Name: 6j2j_1_ASP_PHE_PRO_CAVITY_N1_6
#    Modification time : Fri May 22 19:34:35 2020

@<TRIPOS>MOLECULE
6j2j_1_ASP_PHE_PRO_CAVITY_N1_6
  107     0     7     0     0
SMALL
NO_CHARGES


@<TRIPOS>ATOM
      1 OG        -51.4400  -14.1900   13.8400 O.3       1 SER1        0.0000 
      2 OG        -50.7100  -16.1800   13.9100 O.3       1 SER1        0.0000 
      3 OG        -49.3300  -15.6600   14.1900 O.3       1 SER1        0.0000 
      4 OG        -48.5900  -17.6500   14.2600 O.3       1 SER1        0.0000 
      5 OG        -49.1600  -16.6900   15.2700 O.3       1 SER1        0.0000 
      6 OG        -49.7300  -15.7400   16.2700 O.3       1 SER1        0.0000 
      7 OG        -47.8600  -19.6400   14.3300 O.3       1 SER1        0.0000 
      8 OG        -48.4300  -18.6800   15.3400 O.3       1 SER1        0.0000 
      9 OG        -48.9900  -17.7300   16.3400 O.3       1 SER1        0.0000 
     10 OG        -47.1200  -21.6300   14.4000 O.3       1 SER1        0.0000 
     11 OG        -47.6900  -20.6700   15.4100 O.3       1 SER1        0.0000 
     12 OG        -48.2600  -19.7100   16.4100 O.3       1 SER1        0.0000 
     13 OG        -47.5200  -21.7000   16.4800 O.3       1 SER1        0.0000 
     14 OG        -48.0900  -20.7500   17.4900 O.3       1 SER1        0.0000 
     15 OG        -47.3500  -22.7400   17.5600 O.3       1 SER1        0.0000 
     16 OG        -47.6200  -17.2100   16.6300 O.3       1 SER1        0.0000 
     17 OG        -47.4500  -18.2400   17.7000 O.3       1 SER1        0.0000 
     18 OG        -46.0700  -17.7200   17.9800 O.3       1 SER1        0.0000 
     19 O         -52.5600  -20.2400   14.4900 O.2       2 ALA2        0.0000 
     20 O         -52.8200  -14.7100   13.5600 O.2       2 ALA2        0.0000 
     21 N         -52.6500  -15.7500   14.6300 N.am      2 ALA2        0.0000 
     22 O         -50.6100  -20.6800   13.7600 O.2       2 ALA2        0.0000 
     23 O         -51.1800  -19.7200   14.7700 O.2       2 ALA2        0.0000 
     24 O         -50.4500  -21.7100   14.8400 O.2       2 ALA2        0.0000 
     25 N         -50.1100  -23.7800   16.9900 N.am      2 ALA2        0.0000 
     26 N         -51.2800  -15.2300   14.9200 N.am      2 ALA2        0.0000 
     27 N         -50.5400  -17.2100   14.9900 N.am      2 ALA2        0.0000 
     28 O         -49.8000  -19.2000   15.0500 O.2       2 ALA2        0.0000 
     29 O         -50.3700  -18.2500   16.0600 O.2       2 ALA2        0.0000 
     30 O         -49.0700  -21.1900   15.1200 O.2       2 ALA2        0.0000 
     31 O         -49.6400  -20.2300   16.1300 O.2       2 ALA2        0.0000 
     32 N         -48.5600  -24.2900   18.3500 N.am      2 ALA2        0.0000 
     33 N         -49.5600  -16.7700   17.3500 N.am      2 ALA2        0.0000 
     34 N         -49.9600  -16.8500   19.4300 N.am      2 ALA2        0.0000 
     35 N         -47.9200  -21.7800   18.5600 N.am      2 ALA2        0.0000 
     36 N         -48.7500  -15.2900   18.6400 N.am      2 ALA2        0.0000 
     37 N         -49.3200  -14.3400   19.6500 N.am      2 ALA2        0.0000 
     38 N         -48.5800  -16.3300   19.7200 N.am      2 ALA2        0.0000 
     39 O         -47.8500  -18.3100   19.7800 O.2       2 ALA2        0.0000 
     40 N         -46.3900  -14.3300   21.2900 N.am      2 ALA2        0.0000 
     41 OD1       -54.0300  -16.2700   14.3500 O.co2     3 ASP3        0.0000 
     42 OD1       -53.8600  -17.3000   15.4300 O.co2     3 ASP3        0.0000 
     43 OD1       -47.7600  -24.1400   14.1800 O.co2     3 ASP3        0.0000 
     44 OD1       -46.3900  -23.6200   14.4700 O.co2     3 ASP3        0.0000 
     45 OD1       -46.9500  -22.6600   15.4700 O.co2     3 ASP3        0.0000 
     46 OD1       -45.1800  -22.0600   13.6800 O.co2     3 ASP3        0.0000 
     47 OD1       -45.5800  -22.1400   15.7600 O.co2     3 ASP3        0.0000 
     48 OD1       -45.4100  -23.1700   16.8300 O.co2     3 ASP3        0.0000 
     49 OD1       -41.9900  -27.5800   16.2500 O.co2     3 ASP3        0.0000 
     50 NZ        -53.3000  -18.2500   14.4200 N.4       4 LYS4        0.0000 
     51 NZ        -52.0900  -16.7000   13.6300 N.4       4 LYS4        0.0000 
     52 NZ        -50.7800  -19.6500   12.6900 N.4       4 LYS4        0.0000 
     53 NZ        -51.3500  -18.6900   13.7000 N.4       4 LYS4        0.0000 
     54 NZ        -51.9200  -17.7300   14.7000 N.4       4 LYS4        0.0000 
     55 CZ        -52.2600  -15.6700   12.5500 C.ar      5 PHE5        0.0000 
     56 CZ        -49.4800  -22.5900   11.7500 C.ar      5 PHE5        0.0000 
     57 CZ        -50.0500  -21.6400   12.7600 C.ar      5 PHE5        0.0000 
     58 CZ        -50.3100  -16.1100   11.8300 C.ar      5 PHE5        0.0000 
     59 CZ        -50.8800  -15.1500   12.8300 C.ar      5 PHE5        0.0000 
     60 CZ        -50.1400  -17.1400   12.9000 C.ar      5 PHE5        0.0000 
     61 CZ        -49.4100  -19.1300   12.9700 C.ar      5 PHE5        0.0000 
     62 CZ        -49.9700  -18.1700   13.9800 C.ar      5 PHE5        0.0000 
     63 CZ        -48.1000  -22.0700   12.0300 C.ar      5 PHE5        0.0000 
     64 CZ        -48.6700  -21.1200   13.0400 C.ar      5 PHE5        0.0000 
     65 CZ        -49.2400  -20.1600   14.0500 C.ar      5 PHE5        0.0000 
     66 CZ        -46.7200  -21.5500   12.3200 C.ar      5 PHE5        0.0000 
     67 CZ        -47.2900  -20.6000   13.3200 C.ar      5 PHE5        0.0000 
     68 CZ        -45.3500  -21.0300   12.6000 C.ar      5 PHE5        0.0000 
     69 CZ        -48.1800  -16.2500   17.6300 C.ar      5 PHE5        0.0000 
     70 CZ        -45.7400  -21.1100   14.6800 C.ar      5 PHE5        0.0000 
     71 CZ        -48.0100  -17.2800   18.7100 C.ar      5 PHE5        0.0000 
     72 CZ        -42.6300  -30.0900   16.0300 C.ar      5 PHE5        0.0000 
     73 CZ        -46.6400  -16.7600   18.9900 C.ar      5 PHE5        0.0000 
     74 CZ        -47.2000  -15.8100   20.0000 C.ar      5 PHE5        0.0000 
     75 CZ        -46.4700  -17.7900   20.0700 C.ar      5 PHE5        0.0000 
     76 CZ        -41.4200  -28.5400   15.2400 C.ar      5 PHE5        0.0000 
     77 CZ        -41.2500  -29.5700   16.3100 C.ar      5 PHE5        0.0000 
     78 CZ        -45.2600  -16.2400   19.2700 C.ar      5 PHE5        0.0000 
     79 CZ        -45.0900  -17.2700   20.3500 C.ar      5 PHE5        0.0000 
     80 CZ        -40.4400  -28.1000   17.6000 C.ar      5 PHE5        0.0000 
     81 CA        -54.6700  -18.7700   14.1400 C.3       6 GLY6        0.0000 
     82 CA        -48.9000  -22.2200   16.2000 C.3       6 GLY6        0.0000 
     83 CA        -49.4700  -21.2700   17.2000 C.3       6 GLY6        0.0000 
     84 CA        -48.8200  -18.7600   17.4200 C.3       6 GLY6        0.0000 
     85 CA        -49.3900  -17.8000   18.4300 C.3       6 GLY6        0.0000 
     86 CA        -48.6600  -19.7900   18.4900 C.3       6 GLY6        0.0000 
     87 CA        -49.2200  -18.8300   19.5000 C.3       6 GLY6        0.0000 
     88 CA        -47.1800  -23.7700   18.6300 C.3       6 GLY6        0.0000 
     89 CA        -49.1500  -15.3700   20.7200 C.3       6 GLY6        0.0000 
     90 CA        -48.4100  -17.3600   20.7900 C.3       6 GLY6        0.0000 
     91 CA        -48.9800  -16.4000   21.8000 C.3       6 GLY6        0.0000 
     92 CA        -43.2000  -29.1400   17.0400 C.3       6 GLY6        0.0000 
     93 CA        -47.9400  -13.8200   19.9300 C.3       6 GLY6        0.0000 
     94 CA        -47.7700  -14.8500   21.0100 C.3       6 GLY6        0.0000 
     95 CA        -48.3400  -13.8900   22.0100 C.3       6 GLY6        0.0000 
     96 CA        -47.0300  -16.8400   21.0700 C.3       6 GLY6        0.0000 
     97 CA        -47.6000  -15.8800   22.0800 C.3       6 GLY6        0.0000 
     98 CA        -41.8200  -28.6200   17.3200 C.3       6 GLY6        0.0000 
     99 CA        -45.8300  -15.2900   20.2800 C.3       6 GLY6        0.0000 
    100 CA        -46.2200  -15.3600   22.3600 C.3       6 GLY6        0.0000 
    101 DU        -49.3100  -23.6200   12.8300 H         7 CUB7        0.0000 
    102 DU        -49.5400  -24.7300   15.9800 H         7 CUB7        0.0000 
    103 DU        -47.9300  -23.1000   13.1100 H         7 CUB7        0.0000 
    104 DU        -48.5000  -22.1500   14.1200 H         7 CUB7        0.0000 
    105 DU        -48.1600  -24.2100   16.2700 H         7 CUB7        0.0000 
    106 DU        -46.5500  -22.5800   13.3900 H         7 CUB7        0.0000 
    107 DU        -46.7900  -23.6900   16.5500 H         7 CUB7        0.0000 
@<TRIPOS>BOND
@<TRIPOS>SUBSTRUCTURE
     1 SER1        1 GROUP   
     2 ALA2       19 GROUP   
     3 ASP3       41 GROUP   
     4 LYS4       50 GROUP   
     5 PHE5       55 GROUP   
     6 GLY6       81 GROUP   
     7 CUB7      101 GROUP   
@<TRIPOS>SET

