#    Name: 6j2j_2_ASP_PHE_PRO_CAVITY_N1_12
#    Modification time : Fri May 22 19:34:38 2020

@<TRIPOS>MOLECULE
6j2j_2_ASP_PHE_PRO_CAVITY_N1_12
   71     0     7     0     0
SMALL
NO_CHARGES


@<TRIPOS>ATOM
      1 OG         18.0700   -5.0700   24.2500 O.3       1 SER1        0.0000 
      2 OG         17.5100   -4.1200   25.2600 O.3       1 SER1        0.0000 
      3 OG         17.6700   -5.1500   26.3300 O.3       1 SER1        0.0000 
      4 OG         17.1100   -4.1900   27.3400 O.3       1 SER1        0.0000 
      5 OG         15.9700   -2.2800   29.3500 O.3       1 SER1        0.0000 
      6 OG         15.4000   -1.3200   30.3600 O.3       1 SER1        0.0000 
      7 OG         15.5700   -2.3600   31.4300 O.3       1 SER1        0.0000 
      8 OG         18.8800   -3.6000   25.5400 O.3       1 SER1        0.0000 
      9 OG         18.4800   -3.6700   27.6200 O.3       1 SER1        0.0000 
     10 OG         17.9200   -2.7200   28.6300 O.3       1 SER1        0.0000 
     11 OG         17.3500   -1.7600   29.6400 O.3       1 SER1        0.0000 
     12 OG         18.0900   -3.7500   29.7000 O.3       1 SER1        0.0000 
     13 OG         17.5200   -2.7900   30.7100 O.3       1 SER1        0.0000 
     14 OG         19.8600   -3.1500   27.9000 O.3       1 SER1        0.0000 
     15 OG         20.0300   -4.1900   28.9800 O.3       1 SER1        0.0000 
     16 OG         19.4600   -3.2300   29.9900 O.3       1 SER1        0.0000 
     17 N          15.3900   -2.6500   24.9100 N.am      2 ALA2        0.0000 
     18 N          17.3400   -3.0900   24.1800 N.am      2 ALA2        0.0000 
     19 N          16.7700   -2.1300   25.1900 N.am      2 ALA2        0.0000 
     20 N          16.9400   -3.1600   26.2600 N.am      2 ALA2        0.0000 
     21 N          15.2400   -0.2900   29.2800 N.am      2 ALA2        0.0000 
     22 O          18.7100   -2.5700   24.4600 O.2       2 ALA2        0.0000 
     23 N          18.1500   -1.6100   25.4700 N.am      2 ALA2        0.0000 
     24 N          16.4500    1.2600   28.4900 N.am      2 ALA2        0.0000 
     25 N          18.3200   -2.6400   26.5500 N.am      2 ALA2        0.0000 
     26 N          17.7500   -1.6800   27.5500 N.am      2 ALA2        0.0000 
     27 N          17.1800   -0.7300   28.5600 N.am      2 ALA2        0.0000 
     28 N          16.6100    0.2300   29.5700 N.am      2 ALA2        0.0000 
     29 O          18.5600   -0.2100   28.8400 O.2       2 ALA2        0.0000 
     30 O          19.3000   -2.2000   28.9100 O.2       2 ALA2        0.0000 
     31 O          18.7300   -1.2400   29.9200 O.2       2 ALA2        0.0000 
     32 O          20.6700   -1.6800   29.1900 O.2       2 ALA2        0.0000 
     33 O          20.1100   -0.7200   30.2000 O.2       2 ALA2        0.0000 
     34 O          21.8800   -0.1200   28.4000 O.2       2 ALA2        0.0000 
     35 O          21.3200    0.8300   29.4100 O.2       2 ALA2        0.0000 
     36 OD1        16.0500    1.1800   30.5700 O.co2     3 ASP3        0.0000 
     37 NZ         17.9900    0.7500   29.8500 N.4       4 LYS4        0.0000 
     38 NZ         18.1600   -0.2800   30.9300 N.4       4 LYS4        0.0000 
     39 NZ         19.3700    1.2700   30.1300 N.4       4 LYS4        0.0000 
     40 NZ         19.5400    0.2400   31.2100 N.4       4 LYS4        0.0000 
     41 NZ         20.7500    1.7900   30.4200 N.4       4 LYS4        0.0000 
     42 NZ         21.4800   -0.2000   30.4800 N.4       4 LYS4        0.0000 
     43 CZ         14.7500   -5.1600   24.6900 C.ar      5 PHE5        0.0000 
     44 CZ         16.1300   -4.6400   24.9700 C.ar      5 PHE5        0.0000 
     45 CZ         15.5600   -3.6800   25.9800 C.ar      5 PHE5        0.0000 
     46 CZ         14.6700    0.6600   30.2900 C.ar      5 PHE5        0.0000 
     47 CZ         14.8400   -0.3700   31.3700 C.ar      5 PHE5        0.0000 
     48 CZ         16.7800   -0.8000   30.6400 C.ar      5 PHE5        0.0000 
     49 CZ         16.2100    0.1500   31.6500 C.ar      5 PHE5        0.0000 
     50 CZ         18.9000   -2.2700   30.9900 C.ar      5 PHE5        0.0000 
     51 CZ         19.6300   -4.2600   31.0600 C.ar      5 PHE5        0.0000 
     52 CZ         20.8400   -2.7100   30.2700 C.ar      5 PHE5        0.0000 
     53 CZ         20.2700   -1.7500   31.2800 C.ar      5 PHE5        0.0000 
     54 CA         13.7700   -5.6000   22.3300 C.3       6 GLY6        0.0000 
     55 CA         13.2000   -4.6500   23.3300 C.3       6 GLY6        0.0000 
     56 CA         14.9800   -4.0500   21.5300 C.3       6 GLY6        0.0000 
     57 CA         14.4100   -3.0900   22.5400 C.3       6 GLY6        0.0000 
     58 CA         13.8400   -2.1400   23.5500 C.3       6 GLY6        0.0000 
     59 CA         15.1500   -5.0800   22.6100 C.3       6 GLY6        0.0000 
     60 CA         14.5800   -4.1300   23.6200 C.3       6 GLY6        0.0000 
     61 CA         14.0100   -3.1700   24.6200 C.3       6 GLY6        0.0000 
     62 CA         15.3200   -6.1100   23.6800 C.3       6 GLY6        0.0000 
     63 CA         15.7900   -2.5700   22.8200 C.3       6 GLY6        0.0000 
     64 CA         15.2200   -1.6200   23.8300 C.3       6 GLY6        0.0000 
     65 CA         17.0900   -5.5200   21.8900 C.3       6 GLY6        0.0000 
     66 CA         16.5300   -4.5600   22.8900 C.3       6 GLY6        0.0000 
     67 CA         16.6900   -5.5900   23.9700 C.3       6 GLY6        0.0000 
     68 CA         17.9000   -4.0400   23.1700 C.3       6 GLY6        0.0000 
     69 CA         20.2600   -3.0800   25.8200 C.3       6 GLY6        0.0000 
     70 CA         19.6900   -2.1200   26.8300 C.3       6 GLY6        0.0000 
     71 DU         15.9600   -3.6100   23.9000 H         7 CUB7        0.0000 
@<TRIPOS>BOND
@<TRIPOS>SUBSTRUCTURE
     1 SER1        1 GROUP   
     2 ALA2       17 GROUP   
     3 ASP3       36 GROUP   
     4 LYS4       37 GROUP   
     5 PHE5       43 GROUP   
     6 GLY6       54 GROUP   
     7 CUB7       71 GROUP   
@<TRIPOS>SET

