#    Name: 6j2j_2_ASP_PHE_PRO
#    Modification time : Fri May 22 19:34:37 2020

@<TRIPOS>MOLECULE
6j2j_2_ASP_PHE_PRO
   27    27     3     0     0
SMALL
NO_CHARGES


@<TRIPOS>ATOM
      1 N          16.3740   -2.3810   31.2100 N.4       1 ASP1        0.0000 
      2 CA         16.7180   -1.6190   30.0160 C.3       1 ASP1        0.0000 
      3 C          17.7520   -2.3560   29.1710 C.2       1 ASP1        0.0000 
      4 O          18.5790   -3.1010   29.6950 O.2       1 ASP1        0.0000 
      5 CB         17.2430   -0.2330   30.3970 C.3       1 ASP1        0.0000 
      6 CG         16.2130    0.8590   30.1830 C.2       1 ASP1        0.0000 
      7 OD1        15.0030    0.5630   30.2790 O.co2     1 ASP1        0.0000 
      8 OD2        16.6130    2.0120   29.9200 O.co2     1 ASP1        0.0000 
      9 N          17.6990   -2.1420   27.8600 N.am      2 PHE2        0.0000 
     10 CA         18.6290   -2.7850   26.9400 C.3       2 PHE2        0.0000 
     11 C          20.0760   -2.4930   27.3260 C.2       2 PHE2        0.0000 
     12 O          20.9400   -3.3650   27.2360 O.2       2 PHE2        0.0000 
     13 CB         18.3650   -2.3270   25.5040 C.3       2 PHE2        0.0000 
     14 CG         17.2500   -3.0700   24.8270 C.ar      2 PHE2        0.0000 
     15 CD1        17.4000   -4.4000   24.4710 C.ar      2 PHE2        0.0000 
     16 CD2        16.0500   -2.4380   24.5460 C.ar      2 PHE2        0.0000 
     17 CE1        16.3760   -5.0860   23.8480 C.ar      2 PHE2        0.0000 
     18 CE2        15.0210   -3.1190   23.9220 C.ar      2 PHE2        0.0000 
     19 CZ         15.1840   -4.4450   23.5730 C.ar      2 PHE2        0.0000 
     20 N          30.4710  -13.1120   24.8630 N.am      3 PRO8        0.0000 
     21 CA         31.0970  -14.2320   25.5640 C.3       3 PRO8        0.0000 
     22 C          32.5600  -14.4800   25.2210 C.2       3 PRO8        0.0000 
     23 O          33.1990  -13.6760   24.5520 O.2       3 PRO8        0.0000 
     24 CB         30.1940  -15.3990   25.1570 C.3       3 PRO8        0.0000 
     25 CG         28.7520  -14.7040   25.1030 C.3       3 PRO8        0.0000 
     26 CD         29.0070  -13.1800   25.0280 C.3       3 PRO8        0.0000 
     27 OXT        33.1520  -15.4600   25.6700 O.3       3 PRO8        0.0000 
@<TRIPOS>BOND
     1    1    2 1    
     2    2    3 1    
     3    2    5 1    
     4    3    4 2    
     5    3    9 am   
     6    5    6 1    
     7    6    7 ar   
     8    6    8 ar   
     9    9   10 1    
    10   10   11 1    
    11   10   13 1    
    12   11   12 2    
    13   13   14 1    
    14   14   15 ar   
    15   14   16 ar   
    16   15   17 ar   
    17   16   18 ar   
    18   17   19 ar   
    19   18   19 ar   
    20   20   21 1    
    21   20   26 1    
    22   21   22 1    
    23   21   24 1    
    24   22   23 2    
    25   22   27 1    
    26   24   25 1    
    27   25   26 1    
@<TRIPOS>SUBSTRUCTURE
     1 ASP1        1 RESIDUE 
     2 PHE2        9 RESIDUE 
     3 PRO8       20 RESIDUE 
@<TRIPOS>SET

