#    Name: 6sza_3_ADP
#    Modification time : Fri May 22 19:25:03 2020

@<TRIPOS>MOLECULE
6sza_3_ADP
   27    29     1     0     1
SMALL
NO_CHARGES


@<TRIPOS>ATOM
      1 PB        180.3960  171.9210  150.1140 P.3       1 ADP800      0.0000 
      2 O1B       180.1490  171.1200  148.8590 O.co2     1 ADP800      0.0000 
      3 O2B       181.3440  171.2690  151.0920 O.co2     1 ADP800      0.0000 
      4 O3B       179.1470  172.4890  150.7430 O.co2     1 ADP800      0.0000 
      5 PA        180.5080  174.2770  148.6020 P.3       1 ADP800      0.0000 
      6 O1A       180.2220  173.5800  147.2930 O.co2     1 ADP800      0.0000 
      7 O2A       179.3910  174.9660  149.3490 O.co2     1 ADP800      0.0000 
      8 O3A       181.2010  173.2170  149.5970 O.3       1 ADP800      0.0000 
      9 O5'       181.6820  175.3490  148.3540 O.3       1 ADP800      0.0000 
     10 C5'       181.3950  176.6070  147.7470 C.3       1 ADP800      0.0000 
     11 C4'       182.6970  177.3540  147.4890 C.3       1 ADP800      0.0000 
     12 O4'       183.4300  177.5160  148.7060 O.3       1 ADP800      0.0000 
     13 C3'       183.5950  176.5950  146.5260 C.3       1 ADP800      0.0000 
     14 O3'       183.6380  177.2670  145.2640 O.3       1 ADP800      0.0000 
     15 C2'       184.9710  176.5890  147.1610 C.3       1 ADP800      0.0000 
     16 O2'       185.9080  177.2550  146.3100 O.3       1 ADP800      0.0000 
     17 C1'       184.8300  177.3500  148.4690 C.3       1 ADP800      0.0000 
     18 N9        185.4500  176.5730  149.5700 N.pl3     1 ADP800      0.0000 
     19 C8        184.7900  175.8710  150.5100 C.2       1 ADP800      0.0000 
     20 N7        185.6520  175.2780  151.3750 N.2       1 ADP800      0.0000 
     21 C5        186.8990  175.6040  150.9880 C.ar      1 ADP800      0.0000 
     22 C6        188.2730  175.3130  151.4600 C.ar      1 ADP800      0.0000 
     23 N6        188.4900  174.5350  152.5470 N.pl3     1 ADP800      0.0000 
     24 N1        189.3020  175.8510  150.7680 N.ar      1 ADP800      0.0000 
     25 C2        189.1000  176.6260  149.6860 C.ar      1 ADP800      0.0000 
     26 N3        187.8820  176.9300  149.2030 N.ar      1 ADP800      0.0000 
     27 C4        186.7610  176.4590  149.7990 C.ar      1 ADP800      0.0000 
@<TRIPOS>BOND
     1    1    2 ar   
     2    1    3 ar   
     3    1    4 ar   
     4    1    8 1    
     5    5    6 ar   
     6    5    7 ar   
     7    5    8 1    
     8    5    9 1    
     9    9   10 1    
    10   10   11 1    
    11   11   12 1    
    12   11   13 1    
    13   12   17 1    
    14   13   14 1    
    15   13   15 1    
    16   15   16 1    
    17   15   17 1    
    18   17   18 1    
    19   18   19 1    
    20   18   27 1    
    21   19   20 2    
    22   20   21 1    
    23   21   22 ar   
    24   21   27 ar   
    25   22   23 1    
    26   22   24 ar   
    27   24   25 ar   
    28   25   26 ar   
    29   26   27 ar   
@<TRIPOS>SUBSTRUCTURE
     1 ADP800      1 GROUP   
@<TRIPOS>SET
ATOM$ORANGE STATIC     ATOMS   COLORGROUP SYSTEM 
20 10 10 11 11 13 13 15 15 17 17 19 19 21 21 22 22 25 \
25 27 27 

