#    Name: 6sza_2_ADP
#    Modification time : Fri May 22 19:24:51 2020

@<TRIPOS>MOLECULE
6sza_2_ADP
   27    29     1     0     1
SMALL
NO_CHARGES


@<TRIPOS>ATOM
      1 PB        156.7070  121.2110  152.1760 P.3       1 ADP800      0.0000 
      2 O1B       156.0260  121.4820  150.8560 O.co2     1 ADP800      0.0000 
      3 O2B       155.7650  121.0800  153.3490 O.co2     1 ADP800      0.0000 
      4 O3B       157.9140  122.0790  152.4420 O.co2     1 ADP800      0.0000 
      5 PA        158.4600  119.4290  150.9090 P.3       1 ADP800      0.0000 
      6 O1A       157.8710  119.6470  149.5360 O.co2     1 ADP800      0.0000 
      7 O2A       159.7110  120.1680  151.3180 O.co2     1 ADP800      0.0000 
      8 O3A       157.3160  119.7300  152.0030 O.3       1 ADP800      0.0000 
      9 O5'       158.7210  117.8510  151.0990 O.3       1 ADP800      0.0000 
     10 C5'       159.8560  117.2290  150.5010 C.3       1 ADP800      0.0000 
     11 C4'       159.7590  115.7180  150.6750 C.3       1 ADP800      0.0000 
     12 O4'       159.6670  115.3790  152.0610 O.3       1 ADP800      0.0000 
     13 C3'       158.5220  115.1560  149.9950 C.3       1 ADP800      0.0000 
     14 O3'       158.8960  114.4100  148.8330 O.3       1 ADP800      0.0000 
     15 C2'       157.8700  114.2420  151.0130 C.3       1 ADP800      0.0000 
     16 O2'       157.8150  112.9050  150.5080 O.3       1 ADP800      0.0000 
     17 C1'       158.7540  114.2950  152.2480 C.3       1 ADP800      0.0000 
     18 N9        157.9200  114.5270  153.4540 N.pl3     1 ADP800      0.0000 
     19 C8        157.8070  115.6910  154.1210 C.2       1 ADP800      0.0000 
     20 N7        156.9670  115.5680  155.1810 N.2       1 ADP800      0.0000 
     21 C5        156.5280  114.2960  155.2040 C.ar      1 ADP800      0.0000 
     22 C6        155.6190  113.4950  156.0570 C.ar      1 ADP800      0.0000 
     23 N6        154.9960  114.0440  157.1270 N.pl3     1 ADP800      0.0000 
     24 N1        155.4340  112.1960  155.7310 N.ar      1 ADP800      0.0000 
     25 C2        156.0470  111.6380  154.6710 C.ar      1 ADP800      0.0000 
     26 N3        156.8830  112.3050  153.8550 N.ar      1 ADP800      0.0000 
     27 C4        157.1610  113.6140  154.0650 C.ar      1 ADP800      0.0000 
@<TRIPOS>BOND
     1    1    2 ar   
     2    1    3 ar   
     3    1    4 ar   
     4    1    8 1    
     5    5    6 ar   
     6    5    7 ar   
     7    5    8 1    
     8    5    9 1    
     9    9   10 1    
    10   10   11 1    
    11   11   12 1    
    12   11   13 1    
    13   12   17 1    
    14   13   14 1    
    15   13   15 1    
    16   15   16 1    
    17   15   17 1    
    18   17   18 1    
    19   18   19 1    
    20   18   27 1    
    21   19   20 2    
    22   20   21 1    
    23   21   22 ar   
    24   21   27 ar   
    25   22   23 1    
    26   22   24 ar   
    27   24   25 ar   
    28   25   26 ar   
    29   26   27 ar   
@<TRIPOS>SUBSTRUCTURE
     1 ADP800      1 GROUP   
@<TRIPOS>SET
ATOM$ORANGE STATIC     ATOMS   COLORGROUP SYSTEM 
20 10 10 11 11 13 13 15 15 17 17 19 19 21 21 22 22 25 \
25 27 27 

