#    Name: 6sza_1_ADP
#    Modification time : Fri May 22 19:24:41 2020

@<TRIPOS>MOLECULE
6sza_1_ADP
   27    29     1     0     1
SMALL
NO_CHARGES


@<TRIPOS>ATOM
      1 PB        129.5650  137.8740  150.1090 P.3       1 ADP800      0.0000 
      2 O1B       129.8210  138.6870  148.8630 O.co2     1 ADP800      0.0000 
      3 O2B       128.5970  138.5070  151.0790 O.co2     1 ADP800      0.0000 
      4 O3B       130.8120  137.3140  150.7510 O.co2     1 ADP800      0.0000 
      5 PA        129.4890  135.5360  148.5660 P.3       1 ADP800      0.0000 
      6 O1A       129.7520  136.2460  147.2590 O.co2     1 ADP800      0.0000 
      7 O2A       130.6250  134.8650  149.3000 O.co2     1 ADP800      0.0000 
      8 O3A       128.7800  136.5740  149.5720 O.3       1 ADP800      0.0000 
      9 O5'       128.3340  134.4420  148.3200 O.3       1 ADP800      0.0000 
     10 C5'       128.6410  133.1910  147.7080 C.3       1 ADP800      0.0000 
     11 C4'       127.3520  132.4240  147.4420 C.3       1 ADP800      0.0000 
     12 O4'       126.6140  132.2480  148.6540 O.3       1 ADP800      0.0000 
     13 C3'       126.4480  133.1700  146.4740 C.3       1 ADP800      0.0000 
     14 O3'       126.4240  132.5030  145.2090 O.3       1 ADP800      0.0000 
     15 C2'       125.0680  133.1500  147.1000 C.3       1 ADP800      0.0000 
     16 O2'       124.1490  132.4680  146.2410 O.3       1 ADP800      0.0000 
     17 C1'       125.2130  132.3920  148.4100 C.3       1 ADP800      0.0000 
     18 N9        124.5760  133.1610  149.5070 N.pl3     1 ADP800      0.0000 
     19 C8        125.2220  133.8640  150.4570 C.2       1 ADP800      0.0000 
     20 N7        124.3470  134.4490  151.3140 N.2       1 ADP800      0.0000 
     21 C5        123.1050  134.1170  150.9130 C.ar      1 ADP800      0.0000 
     22 C6        121.7240  134.3980  151.3710 C.ar      1 ADP800      0.0000 
     23 N6        121.4890  135.1710  152.4580 N.pl3     1 ADP800      0.0000 
     24 N1        120.7060  133.8560  150.6660 N.ar      1 ADP800      0.0000 
     25 C2        120.9250  133.0860  149.5840 C.ar      1 ADP800      0.0000 
     26 N3        122.1500  132.7910  149.1140 N.ar      1 ADP800      0.0000 
     27 C4        123.2620  133.2670  149.7240 C.ar      1 ADP800      0.0000 
@<TRIPOS>BOND
     1    1    2 ar   
     2    1    3 ar   
     3    1    4 ar   
     4    1    8 1    
     5    5    6 ar   
     6    5    7 ar   
     7    5    8 1    
     8    5    9 1    
     9    9   10 1    
    10   10   11 1    
    11   11   12 1    
    12   11   13 1    
    13   12   17 1    
    14   13   14 1    
    15   13   15 1    
    16   15   16 1    
    17   15   17 1    
    18   17   18 1    
    19   18   19 1    
    20   18   27 1    
    21   19   20 2    
    22   20   21 1    
    23   21   22 ar   
    24   21   27 ar   
    25   22   23 1    
    26   22   24 ar   
    27   24   25 ar   
    28   25   26 ar   
    29   26   27 ar   
@<TRIPOS>SUBSTRUCTURE
     1 ADP800      1 GROUP   
@<TRIPOS>SET
ATOM$ORANGE STATIC     ATOMS   COLORGROUP SYSTEM 
20 10 10 11 11 13 13 15 15 17 17 19 19 21 21 22 22 25 \
25 27 27 

