#    Name: 6sza_4_ADP
#    Modification time : Fri May 22 19:25:14 2020

@<TRIPOS>MOLECULE
6sza_4_ADP
   27    29     1     0     1
SMALL
NO_CHARGES


@<TRIPOS>ATOM
      1 PB        153.0240  188.3910  152.2060 P.3       1 ADP800      0.0000 
      2 O1B       153.7150  188.1150  150.8930 O.co2     1 ADP800      0.0000 
      3 O2B       153.9590  188.5400  153.3830 O.co2     1 ADP800      0.0000 
      4 O3B       151.8240  187.5150  152.4720 O.co2     1 ADP800      0.0000 
      5 PA        151.2620  190.1470  150.9170 P.3       1 ADP800      0.0000 
      6 O1A       151.8560  189.9170  149.5480 O.co2     1 ADP800      0.0000 
      7 O2A       150.0130  189.4050  151.3300 O.co2     1 ADP800      0.0000 
      8 O3A       152.4030  189.8650  152.0180 O.3       1 ADP800      0.0000 
      9 O5'       150.9900  191.7240  151.0880 O.3       1 ADP800      0.0000 
     10 C5'       149.8520  192.3320  150.4810 C.3       1 ADP800      0.0000 
     11 C4'       149.9320  193.8440  150.6480 C.3       1 ADP800      0.0000 
     12 O4'       150.0180  194.1910  152.0330 O.3       1 ADP800      0.0000 
     13 C3'       151.1650  194.4170  149.9680 C.3       1 ADP800      0.0000 
     14 O3'       150.7860  195.1520  148.8010 O.3       1 ADP800      0.0000 
     15 C2'       151.8040  195.3440  150.9830 C.3       1 ADP800      0.0000 
     16 O2'       151.8440  196.6790  150.4710 O.3       1 ADP800      0.0000 
     17 C1'       150.9180  195.2870  152.2170 C.3       1 ADP800      0.0000 
     18 N9        151.7520  195.0700  153.4250 N.pl3     1 ADP800      0.0000 
     19 C8        151.8690  193.9140  154.1050 C.2       1 ADP800      0.0000 
     20 N7        152.7080  194.0510  155.1640 N.2       1 ADP800      0.0000 
     21 C5        153.1420  195.3250  155.1730 C.ar      1 ADP800      0.0000 
     22 C6        154.0470  196.1400  156.0170 C.ar      1 ADP800      0.0000 
     23 N6        154.6720  195.6040  157.0940 N.pl3     1 ADP800      0.0000 
     24 N1        154.2280  197.4350  155.6780 N.ar      1 ADP800      0.0000 
     25 C2        153.6140  197.9800  154.6110 C.ar      1 ADP800      0.0000 
     26 N3        152.7800  197.3010  153.8020 N.ar      1 ADP800      0.0000 
     27 C4        152.5070  195.9930  154.0260 C.ar      1 ADP800      0.0000 
@<TRIPOS>BOND
     1    1    2 ar   
     2    1    3 ar   
     3    1    4 ar   
     4    1    8 1    
     5    5    6 ar   
     6    5    7 ar   
     7    5    8 1    
     8    5    9 1    
     9    9   10 1    
    10   10   11 1    
    11   11   12 1    
    12   11   13 1    
    13   12   17 1    
    14   13   14 1    
    15   13   15 1    
    16   15   16 1    
    17   15   17 1    
    18   17   18 1    
    19   18   19 1    
    20   18   27 1    
    21   19   20 2    
    22   20   21 1    
    23   21   22 ar   
    24   21   27 ar   
    25   22   23 1    
    26   22   24 ar   
    27   24   25 ar   
    28   25   26 ar   
    29   26   27 ar   
@<TRIPOS>SUBSTRUCTURE
     1 ADP800      1 GROUP   
@<TRIPOS>SET
ATOM$ORANGE STATIC     ATOMS   COLORGROUP SYSTEM 
20 10 10 11 11 13 13 15 15 17 17 19 19 21 21 22 22 25 \
25 27 27 

