#    Name: 6fmp_1_ASP_GLU_GLU_THR_GLY_GLU_PHE_ACY_CAVITY_N1_4
#    Modification time : Fri May 22 19:34:51 2020

@<TRIPOS>MOLECULE
6fmp_1_ASP_GLU_GLU_THR_GLY_GLU_PHE_ACY_CAVITY_N1_4
   97     0     6     0     0
SMALL
NO_CHARGES


@<TRIPOS>ATOM
      1 OG          2.3400    5.9900  -25.5100 O.3       1 SER1        0.0000 
      2 OG          3.5700    4.4300  -24.7600 O.3       1 SER1        0.0000 
      3 OG          4.9500    3.9300  -25.0600 O.3       1 SER1        0.0000 
      4 OG          6.3300    3.4400  -25.3500 O.3       1 SER1        0.0000 
      5 OG          8.7900    0.3200  -23.8500 O.3       1 SER1        0.0000 
      6 OG          8.6400   -0.7400  -22.8100 O.3       1 SER1        0.0000 
      7 OG          2.9000    6.9200  -24.4800 O.3       1 SER1        0.0000 
      8 OG          4.1300    5.3700  -23.7300 O.3       1 SER1        0.0000 
      9 OG          5.5100    4.8700  -24.0300 O.3       1 SER1        0.0000 
     10 OG          7.2000    6.4900  -26.4200 O.3       1 SER1        0.0000 
     11 OG          7.0500    5.4300  -25.3700 O.3       1 SER1        0.0000 
     12 OG          6.8900    4.3700  -24.3200 O.3       1 SER1        0.0000 
     13 OG          9.5000    2.3200  -23.8700 O.3       1 SER1        0.0000 
     14 OG          9.3500    1.2500  -22.8200 O.3       1 SER1        0.0000 
     15 OG          2.0700    8.3600  -23.1500 O.3       1 SER1        0.0000 
     16 OG          3.4600    7.8600  -23.4500 O.3       1 SER1        0.0000 
     17 OG          4.8400    7.3600  -23.7500 O.3       1 SER1        0.0000 
     18 OG          6.3800    7.9300  -25.0900 O.3       1 SER1        0.0000 
     19 OG          6.2200    6.8700  -24.0400 O.3       1 SER1        0.0000 
     20 OG          6.9400    8.8600  -24.0600 O.3       1 SER1        0.0000 
     21 O           0.0900    3.4300  -24.1400 O.2       2 ALA2        0.0000 
     22 N           1.3200    1.8700  -23.3900 N.am      2 ALA2        0.0000 
     23 N          -1.9700    6.4200  -23.5700 N.am      2 ALA2        0.0000 
     24 N          -0.4300    6.9800  -24.9100 N.am      2 ALA2        0.0000 
     25 O          -0.5800    5.9200  -23.8600 O.2       2 ALA2        0.0000 
     26 O           0.8000    5.4200  -24.1600 O.2       2 ALA2        0.0000 
     27 O           2.1800    4.9300  -24.4600 O.2       2 ALA2        0.0000 
     28 N           2.0300    3.8700  -23.4100 N.am      2 ALA2        0.0000 
     29 N           3.4100    3.3700  -23.7100 N.am      2 ALA2        0.0000 
     30 O           4.8000    2.8700  -24.0100 O.2       2 ALA2        0.0000 
     31 O           6.0200    1.3100  -23.2600 O.2       2 ALA2        0.0000 
     32 N           0.1300    7.9200  -23.8800 N.am      2 ALA2        0.0000 
     33 O          -0.0200    6.8600  -22.8300 O.2       2 ALA2        0.0000 
     34 N           1.6700    8.4800  -25.2300 N.am      2 ALA2        0.0000 
     35 N           1.5100    7.4200  -24.1800 N.am      2 ALA2        0.0000 
     36 O           1.3600    6.3600  -23.1300 O.2       2 ALA2        0.0000 
     37 N           1.2000    5.3000  -22.0800 N.am      2 ALA2        0.0000 
     38 N           3.0500    7.9900  -25.5300 N.am      2 ALA2        0.0000 
     39 N           2.7400    5.8600  -23.4300 N.am      2 ALA2        0.0000 
     40 N           2.5900    4.8000  -22.3800 N.am      2 ALA2        0.0000 
     41 O           3.9700    4.3000  -22.6800 O.2       2 ALA2        0.0000 
     42 O           5.3500    3.8100  -22.9800 O.2       2 ALA2        0.0000 
     43 N           7.9700    1.7500  -22.5300 N.am      2 ALA2        0.0000 
     44 N           9.1900    0.1900  -21.7800 N.am      2 ALA2        0.0000 
     45 N          10.4200   -1.3700  -21.0300 N.am      2 ALA2        0.0000 
     46 O           3.3000    6.8000  -22.4000 O.2       2 ALA2        0.0000 
     47 N           4.5300    5.2400  -21.6500 N.am      2 ALA2        0.0000 
     48 N           7.3000    4.2500  -22.2500 N.am      2 ALA2        0.0000 
     49 N           8.6800    3.7500  -22.5400 N.am      2 ALA2        0.0000 
     50 N           9.9100    2.1900  -21.7900 N.am      2 ALA2        0.0000 
     51 N           6.7800    7.8000  -23.0100 N.am      2 ALA2        0.0000 
     52 N           8.3200    8.3700  -24.3600 N.am      2 ALA2        0.0000 
     53 N           8.1700    7.3100  -23.3100 N.am      2 ALA2        0.0000 
     54 N           8.0100    6.2400  -22.2600 N.am      2 ALA2        0.0000 
     55 N           9.7000    7.8700  -24.6600 N.am      2 ALA2        0.0000 
     56 N           9.5500    6.8100  -23.6100 N.am      2 ALA2        0.0000 
     57 N           9.3900    5.7500  -22.5600 N.am      2 ALA2        0.0000 
     58 N           8.5700    7.1800  -21.2300 N.am      2 ALA2        0.0000 
     59 N          10.1100    7.7400  -22.5800 N.am      2 ALA2        0.0000 
     60 OD1        -1.4500    2.8600  -22.8000 O.co2     3 ASP3        0.0000 
     61 OD1        -0.0700    2.3700  -23.0900 O.co2     3 ASP3        0.0000 
     62 OD1        -2.2800    4.3000  -21.4700 O.co2     3 ASP3        0.0000 
     63 OD1        -0.7400    4.8600  -22.8100 O.co2     3 ASP3        0.0000 
     64 OD1         0.6500    4.3600  -23.1100 O.co2     3 ASP3        0.0000 
     65 OD1        -0.1800    5.8000  -21.7800 O.co2     3 ASP3        0.0000 
     66 CZ          5.7800    2.5000  -26.3900 C.ar      4 PHE5        0.0000 
     67 CZ          8.2300   -0.6200  -24.8800 C.ar      4 PHE5        0.0000 
     68 CZ          7.7200    2.9400  -25.6500 C.ar      4 PHE5        0.0000 
     69 CZ          8.9500    1.3800  -24.9000 C.ar      4 PHE5        0.0000 
     70 CZ          8.5900    6.0000  -26.7200 C.ar      4 PHE5        0.0000 
     71 CZ          8.4300    4.9400  -25.6700 C.ar      4 PHE5        0.0000 
     72 CZ          9.8200    4.4400  -25.9700 C.ar      4 PHE5        0.0000 
     73 CZ          9.6600    3.3800  -24.9200 C.ar      4 PHE5        0.0000 
     74 CA          8.4800   -1.8000  -21.7600 C.3       5 GLY6        0.0000 
     75 CA          7.8100    0.6900  -21.4800 C.3       5 GLY6        0.0000 
     76 CA          4.6800    6.3000  -22.7000 C.3       5 GLY6        0.0000 
     77 CA          6.5300    8.9900  -26.1400 C.3       5 GLY6        0.0000 
     78 CA          6.0700    5.8000  -23.0000 C.3       5 GLY6        0.0000 
     79 CA          5.9100    4.7400  -21.9500 C.3       5 GLY6        0.0000 
     80 CA         10.2200    4.3100  -23.8900 C.3       5 GLY6        0.0000 
     81 CA         10.0600    3.2500  -22.8400 C.3       5 GLY6        0.0000 
     82 CA          6.6300    6.7400  -21.9700 C.3       5 GLY6        0.0000 
     83 CA          6.4700    5.6800  -20.9200 C.3       5 GLY6        0.0000 
     84 CA         10.7800    5.2500  -22.8600 C.3       5 GLY6        0.0000 
     85 CA          9.9500    6.6800  -21.5300 C.3       5 GLY6        0.0000 
     86 DU          7.0000    0.9400  -25.6300 H         6 CUB7        0.0000 
     87 DU          6.1800    2.3700  -24.3100 H         6 CUB7        0.0000 
     88 DU          7.5600    1.8800  -24.6000 H         6 CUB7        0.0000 
     89 DU          7.4100    0.8200  -23.5600 H         6 CUB7        0.0000 
     90 DU          6.7400    3.3100  -23.2800 H         6 CUB7        0.0000 
     91 DU          8.2800    3.8700  -24.6200 H         6 CUB7        0.0000 
     92 DU          8.1200    2.8100  -23.5700 H         6 CUB7        0.0000 
     93 DU          7.7600    7.4300  -25.3900 H         6 CUB7        0.0000 
     94 DU          7.6100    6.3700  -24.3400 H         6 CUB7        0.0000 
     95 DU          7.4500    5.3100  -23.2900 H         6 CUB7        0.0000 
     96 DU          8.9900    5.8700  -24.6400 H         6 CUB7        0.0000 
     97 DU          8.8400    4.8100  -23.5900 H         6 CUB7        0.0000 
@<TRIPOS>BOND
@<TRIPOS>SUBSTRUCTURE
     1 SER1        1 GROUP   
     2 ALA2       21 GROUP   
     3 ASP3       60 GROUP   
     4 PHE5       66 GROUP   
     5 GLY6       74 GROUP   
     6 CUB7       86 GROUP   
@<TRIPOS>SET

