#    Name: 6fmp_1_ASP_GLU_GLU_THR_GLY_GLU_PHE_ACY_CAVITY_N1_8
#    Modification time : Fri May 22 19:34:51 2020

@<TRIPOS>MOLECULE
6fmp_1_ASP_GLU_GLU_THR_GLY_GLU_PHE_ACY_CAVITY_N1_8
  150     0     6     0     0
SMALL
NO_CHARGES


@<TRIPOS>ATOM
      1 OG          2.3400    5.9900  -25.5100 O.3       1 SER1        0.0000 
      2 OG          3.5700    4.4300  -24.7600 O.3       1 SER1        0.0000 
      3 OG          4.9500    3.9300  -25.0600 O.3       1 SER1        0.0000 
      4 OG          6.3300    3.4400  -25.3500 O.3       1 SER1        0.0000 
      5 OG          8.7900    0.3200  -23.8500 O.3       1 SER1        0.0000 
      6 OG          8.6400   -0.7400  -22.8100 O.3       1 SER1        0.0000 
      7 OG          2.9000    6.9200  -24.4800 O.3       1 SER1        0.0000 
      8 OG          4.1300    5.3700  -23.7300 O.3       1 SER1        0.0000 
      9 OG          5.5100    4.8700  -24.0300 O.3       1 SER1        0.0000 
     10 OG          7.2000    6.4900  -26.4200 O.3       1 SER1        0.0000 
     11 OG          7.0500    5.4300  -25.3700 O.3       1 SER1        0.0000 
     12 OG          6.8900    4.3700  -24.3200 O.3       1 SER1        0.0000 
     13 OG          9.5000    2.3200  -23.8700 O.3       1 SER1        0.0000 
     14 OG          9.3500    1.2500  -22.8200 O.3       1 SER1        0.0000 
     15 OG          2.3800   10.4800  -25.2500 O.3       1 SER1        0.0000 
     16 OG          2.2300    9.4200  -24.2000 O.3       1 SER1        0.0000 
     17 OG          2.0700    8.3600  -23.1500 O.3       1 SER1        0.0000 
     18 OG          3.4600    7.8600  -23.4500 O.3       1 SER1        0.0000 
     19 OG          4.8400    7.3600  -23.7500 O.3       1 SER1        0.0000 
     20 OG          6.3800    7.9300  -25.0900 O.3       1 SER1        0.0000 
     21 OG          6.2200    6.8700  -24.0400 O.3       1 SER1        0.0000 
     22 OG          6.9400    8.8600  -24.0600 O.3       1 SER1        0.0000 
     23 O           0.0900    3.4300  -24.1400 O.2       2 ALA2        0.0000 
     24 N           1.3200    1.8700  -23.3900 N.am      2 ALA2        0.0000 
     25 N          -1.9700    6.4200  -23.5700 N.am      2 ALA2        0.0000 
     26 N          -0.4300    6.9800  -24.9100 N.am      2 ALA2        0.0000 
     27 O          -0.5800    5.9200  -23.8600 O.2       2 ALA2        0.0000 
     28 O           0.8000    5.4200  -24.1600 O.2       2 ALA2        0.0000 
     29 O           2.1800    4.9300  -24.4600 O.2       2 ALA2        0.0000 
     30 N           2.0300    3.8700  -23.4100 N.am      2 ALA2        0.0000 
     31 N           3.4100    3.3700  -23.7100 N.am      2 ALA2        0.0000 
     32 O           4.8000    2.8700  -24.0100 O.2       2 ALA2        0.0000 
     33 O           6.0200    1.3100  -23.2600 O.2       2 ALA2        0.0000 
     34 N          -1.2500    8.4200  -23.5800 N.am      2 ALA2        0.0000 
     35 N           0.1300    7.9200  -23.8800 N.am      2 ALA2        0.0000 
     36 O          -0.0200    6.8600  -22.8300 O.2       2 ALA2        0.0000 
     37 N           1.6700    8.4800  -25.2300 N.am      2 ALA2        0.0000 
     38 N           1.5100    7.4200  -24.1800 N.am      2 ALA2        0.0000 
     39 O           1.3600    6.3600  -23.1300 O.2       2 ALA2        0.0000 
     40 N           1.2000    5.3000  -22.0800 N.am      2 ALA2        0.0000 
     41 N           3.0500    7.9900  -25.5300 N.am      2 ALA2        0.0000 
     42 N           2.7400    5.8600  -23.4300 N.am      2 ALA2        0.0000 
     43 N           2.5900    4.8000  -22.3800 N.am      2 ALA2        0.0000 
     44 O           3.9700    4.3000  -22.6800 O.2       2 ALA2        0.0000 
     45 O           5.3500    3.8100  -22.9800 O.2       2 ALA2        0.0000 
     46 O           8.7400    7.0600  -27.7700 O.2       2 ALA2        0.0000 
     47 N           7.9700    1.7500  -22.5300 N.am      2 ALA2        0.0000 
     48 N           9.1900    0.1900  -21.7800 N.am      2 ALA2        0.0000 
     49 N          10.4200   -1.3700  -21.0300 N.am      2 ALA2        0.0000 
     50 N          -0.8500    8.2900  -21.5000 N.am      2 ALA2        0.0000 
     51 O          -1.0000    7.2300  -20.4600 O.2       2 ALA2        0.0000 
     52 N           0.6900    8.8500  -22.8500 N.am      2 ALA2        0.0000 
     53 O           0.5300    7.7900  -21.8000 O.2       2 ALA2        0.0000 
     54 O           3.3000    6.8000  -22.4000 O.2       2 ALA2        0.0000 
     55 N           4.5300    5.2400  -21.6500 N.am      2 ALA2        0.0000 
     56 N           7.3000    4.2500  -22.2500 N.am      2 ALA2        0.0000 
     57 N           8.6800    3.7500  -22.5400 N.am      2 ALA2        0.0000 
     58 N           9.9100    2.1900  -21.7900 N.am      2 ALA2        0.0000 
     59 N          11.4500    2.7600  -23.1400 N.am      2 ALA2        0.0000 
     60 N          13.3000    5.4400  -26.5800 N.am      2 ALA2        0.0000 
     61 N          -0.1400   10.2900  -21.5200 N.am      2 ALA2        0.0000 
     62 O          -0.2900    9.2300  -20.4700 O.2       2 ALA2        0.0000 
     63 N           6.7800    7.8000  -23.0100 N.am      2 ALA2        0.0000 
     64 N           8.4800    9.4300  -25.4100 N.am      2 ALA2        0.0000 
     65 N           8.3200    8.3700  -24.3600 N.am      2 ALA2        0.0000 
     66 N           8.1700    7.3100  -23.3100 N.am      2 ALA2        0.0000 
     67 N           8.0100    6.2400  -22.2600 N.am      2 ALA2        0.0000 
     68 N           9.7000    7.8700  -24.6600 N.am      2 ALA2        0.0000 
     69 N           9.5500    6.8100  -23.6100 N.am      2 ALA2        0.0000 
     70 N           9.3900    5.7500  -22.5600 N.am      2 ALA2        0.0000 
     71 N          13.8500    6.3800  -25.5500 N.am      2 ALA2        0.0000 
     72 N          13.7000    5.3200  -24.5100 N.am      2 ALA2        0.0000 
     73 N           8.5700    7.1800  -21.2300 N.am      2 ALA2        0.0000 
     74 N          10.4200    9.8700  -24.6800 N.am      2 ALA2        0.0000 
     75 N          10.2600    8.8100  -23.6300 N.am      2 ALA2        0.0000 
     76 N          10.1100    7.7400  -22.5800 N.am      2 ALA2        0.0000 
     77 N          11.6500    8.3100  -23.9300 N.am      2 ALA2        0.0000 
     78 N          10.9800   10.8000  -23.6500 N.am      2 ALA2        0.0000 
     79 N          10.6700    8.6800  -21.5500 N.am      2 ALA2        0.0000 
     80 OD1        -2.9900    2.3000  -21.4500 O.co2     3 ASP3        0.0000 
     81 OD1        -1.4500    2.8600  -22.8000 O.co2     3 ASP3        0.0000 
     82 OD1        -0.0700    2.3700  -23.0900 O.co2     3 ASP3        0.0000 
     83 OD1        -2.2800    4.3000  -21.4700 O.co2     3 ASP3        0.0000 
     84 OD1        -0.7400    4.8600  -22.8100 O.co2     3 ASP3        0.0000 
     85 OD1         0.6500    4.3600  -23.1100 O.co2     3 ASP3        0.0000 
     86 OD1        -1.4100    7.3500  -22.5300 O.co2     3 ASP3        0.0000 
     87 OD1        -0.1800    5.8000  -21.7800 O.co2     3 ASP3        0.0000 
     88 OD1        11.4000    9.5000  -27.0500 O.co2     3 ASP3        0.0000 
     89 OD1        10.5700   10.9300  -25.7300 O.co2     3 ASP3        0.0000 
     90 OD1        11.9600   10.4300  -26.0200 O.co2     3 ASP3        0.0000 
     91 CZ          5.7800    2.5000  -26.3900 C.ar      4 PHE5        0.0000 
     92 CZ          8.2300   -0.6200  -24.8800 C.ar      4 PHE5        0.0000 
     93 CZ          7.7200    2.9400  -25.6500 C.ar      4 PHE5        0.0000 
     94 CZ          8.9500    1.3800  -24.9000 C.ar      4 PHE5        0.0000 
     95 CZ          8.5900    6.0000  -26.7200 C.ar      4 PHE5        0.0000 
     96 CZ          8.4300    4.9400  -25.6700 C.ar      4 PHE5        0.0000 
     97 CZ          9.8200    4.4400  -25.9700 C.ar      4 PHE5        0.0000 
     98 CZ          9.6600    3.3800  -24.9200 C.ar      4 PHE5        0.0000 
     99 CZ         11.0400    2.8800  -25.2200 C.ar      4 PHE5        0.0000 
    100 CZ          9.1500    6.9300  -25.6900 C.ar      4 PHE5        0.0000 
    101 CZ         10.6800    7.5000  -27.0400 C.ar      4 PHE5        0.0000 
    102 CZ         10.5300    6.4400  -25.9900 C.ar      4 PHE5        0.0000 
    103 CZ         10.3700    5.3700  -24.9400 C.ar      4 PHE5        0.0000 
    104 CZ         12.0700    7.0000  -27.3300 C.ar      4 PHE5        0.0000 
    105 CZ         11.9100    5.9400  -26.2900 C.ar      4 PHE5        0.0000 
    106 CZ         11.7600    4.8800  -25.2400 C.ar      4 PHE5        0.0000 
    107 CZ         13.4500    6.5000  -27.6300 C.ar      4 PHE5        0.0000 
    108 CZ          1.4000   10.8500  -22.8700 C.ar      4 PHE5        0.0000 
    109 CZ          1.2500    9.7900  -21.8200 C.ar      4 PHE5        0.0000 
    110 CA          8.4800   -1.8000  -21.7600 C.3       5 GLY6        0.0000 
    111 CA          0.2900    8.9800  -24.9300 C.3       5 GLY6        0.0000 
    112 CA          7.8100    0.6900  -21.4800 C.3       5 GLY6        0.0000 
    113 CA          0.8500    9.9200  -23.9000 C.3       5 GLY6        0.0000 
    114 CA          4.6800    6.3000  -22.7000 C.3       5 GLY6        0.0000 
    115 CA          6.5300    8.9900  -26.1400 C.3       5 GLY6        0.0000 
    116 CA          6.0700    5.8000  -23.0000 C.3       5 GLY6        0.0000 
    117 CA          5.9100    4.7400  -21.9500 C.3       5 GLY6        0.0000 
    118 CA          7.9200    8.4900  -26.4400 C.3       5 GLY6        0.0000 
    119 CA          9.3000    7.9900  -26.7400 C.3       5 GLY6        0.0000 
    120 CA         10.2200    4.3100  -23.8900 C.3       5 GLY6        0.0000 
    121 CA         10.0600    3.2500  -22.8400 C.3       5 GLY6        0.0000 
    122 CA         11.6000    3.8200  -24.1900 C.3       5 GLY6        0.0000 
    123 CA          6.6300    6.7400  -21.9700 C.3       5 GLY6        0.0000 
    124 CA          6.4700    5.6800  -20.9200 C.3       5 GLY6        0.0000 
    125 CA          9.8600    8.9300  -25.7100 C.3       5 GLY6        0.0000 
    126 CA         10.9300    6.3100  -23.9100 C.3       5 GLY6        0.0000 
    127 CA         10.7800    5.2500  -22.8600 C.3       5 GLY6        0.0000 
    128 CA         12.3200    5.8100  -24.2100 C.3       5 GLY6        0.0000 
    129 CA          9.9500    6.6800  -21.5300 C.3       5 GLY6        0.0000 
    130 CA         11.4900    7.2500  -22.8800 C.3       5 GLY6        0.0000 
    131 CA         12.8700    6.7500  -23.1800 C.3       5 GLY6        0.0000 
    132 DU          7.0000    0.9400  -25.6300 H         6 CUB7        0.0000 
    133 DU          6.1800    2.3700  -24.3100 H         6 CUB7        0.0000 
    134 DU          7.5600    1.8800  -24.6000 H         6 CUB7        0.0000 
    135 DU          7.4100    0.8200  -23.5600 H         6 CUB7        0.0000 
    136 DU         -1.5600    6.2900  -21.4900 H         6 CUB7        0.0000 
    137 DU          6.7400    3.3100  -23.2800 H         6 CUB7        0.0000 
    138 DU          8.2800    3.8700  -24.6200 H         6 CUB7        0.0000 
    139 DU          8.1200    2.8100  -23.5700 H         6 CUB7        0.0000 
    140 DU          7.7600    7.4300  -25.3900 H         6 CUB7        0.0000 
    141 DU          7.6100    6.3700  -24.3400 H         6 CUB7        0.0000 
    142 DU          7.4500    5.3100  -23.2900 H         6 CUB7        0.0000 
    143 DU          8.9900    5.8700  -24.6400 H         6 CUB7        0.0000 
    144 DU          8.8400    4.8100  -23.5900 H         6 CUB7        0.0000 
    145 DU         11.2400    8.4300  -26.0100 H         6 CUB7        0.0000 
    146 DU         11.0900    7.3700  -24.9600 H         6 CUB7        0.0000 
    147 DU         12.6300    7.9400  -26.3000 H         6 CUB7        0.0000 
    148 DU         12.4700    6.8800  -25.2600 H         6 CUB7        0.0000 
    149 DU         11.8000    9.3700  -24.9800 H         6 CUB7        0.0000 
    150 DU         13.0300    7.8100  -24.2300 H         6 CUB7        0.0000 
@<TRIPOS>BOND
@<TRIPOS>SUBSTRUCTURE
     1 SER1        1 GROUP   
     2 ALA2       23 GROUP   
     3 ASP3       80 GROUP   
     4 PHE5       91 GROUP   
     5 GLY6      110 GROUP   
     6 CUB7      132 GROUP   
@<TRIPOS>SET

