#    Name: 6fmp_1_ASP_GLU_GLU_THR_GLY_GLU_PHE_ACY
#    Modification time : Fri May 22 19:34:49 2020

@<TRIPOS>MOLECULE
6fmp_1_ASP_GLU_GLU_THR_GLY_GLU_PHE_ACY
   61    61     8     0     0
SMALL
NO_CHARGES


@<TRIPOS>ATOM
      1 N           4.5840   -2.3750  -23.8070 N.am      1 ASP2        0.0000 
      2 CA          5.7750   -1.5920  -23.7870 C.3       1 ASP2        0.0000 
      3 C           7.0390   -2.3940  -23.8450 C.2       1 ASP2        0.0000 
      4 O           7.9460   -1.8310  -24.2490 O.2       1 ASP2        0.0000 
      5 CB          5.7380   -0.8070  -22.5080 C.3       1 ASP2        0.0000 
      6 CG          7.0360   -0.1630  -22.1560 C.2       1 ASP2        0.0000 
      7 OD1         8.0390   -0.8100  -21.9140 O.co2     1 ASP2        0.0000 
      8 OD2         7.1060    1.0470  -22.0850 O.co2     1 ASP2        0.0000 
      9 N           7.2290   -3.7460  -23.4340 N.am      2 GLU3        0.0000 
     10 CA          8.5600   -4.3010  -23.5680 C.3       2 GLU3        0.0000 
     11 C           8.6840   -4.9230  -24.9280 C.2       2 GLU3        0.0000 
     12 O           9.7130   -5.0330  -25.4170 O.2       2 GLU3        0.0000 
     13 CB          8.8540   -5.3680  -22.5210 C.3       2 GLU3        0.0000 
     14 CG          9.6670   -4.8730  -21.3170 C.3       2 GLU3        0.0000 
     15 CD         11.1610   -4.6380  -21.5130 C.2       2 GLU3        0.0000 
     16 OE1        11.5910   -3.5330  -21.8810 O.co2     2 GLU3        0.0000 
     17 OE2        11.9910   -5.5370  -21.2900 O.co2     2 GLU3        0.0000 
     18 N           7.5190   -5.3850  -25.6000 N.am      3 GLU4        0.0000 
     19 CA          7.6110   -5.9700  -26.8840 C.3       3 GLU4        0.0000 
     20 C           7.5510   -4.7520  -27.7530 C.2       3 GLU4        0.0000 
     21 O           8.3010   -4.6560  -28.6010 O.2       3 GLU4        0.0000 
     22 CB          6.4200   -6.8970  -27.1160 C.3       3 GLU4        0.0000 
     23 CG          6.6840   -8.3970  -27.1930 C.3       3 GLU4        0.0000 
     24 CD          5.4950   -9.3150  -26.9450 C.2       3 GLU4        0.0000 
     25 OE1         5.1120  -10.2140  -27.7360 O.co2     3 GLU4        0.0000 
     26 OE2         4.8770   -9.1910  -25.8930 O.co2     3 GLU4        0.0000 
     27 N           6.6400   -3.6660  -27.5690 N.am      4 THR5        0.0000 
     28 CA          6.7100   -2.5640  -28.5010 C.3       4 THR5        0.0000 
     29 C           7.2390   -1.2900  -27.9520 C.2       4 THR5        0.0000 
     30 O           7.3580   -0.4800  -28.7160 O.2       4 THR5        0.0000 
     31 CB          5.3390   -2.1550  -28.9690 C.3       4 THR5        0.0000 
     32 OG1         4.6330   -1.5330  -27.9790 O.3       4 THR5        0.0000 
     33 CG2         4.5270   -3.3570  -29.3160 C.3       4 THR5        0.0000 
     34 N           7.5230   -1.0100  -26.5860 N.am      5 GLY6        0.0000 
     35 CA          7.9830    0.3000  -26.2170 C.3       5 GLY6        0.0000 
     36 C           6.8930    1.3440  -26.1490 C.2       5 GLY6        0.0000 
     37 O           7.1050    2.4130  -25.8160 O.2       5 GLY6        0.0000 
     38 N           5.5590    1.0330  -26.5120 N.am      6 GLU7        0.0000 
     39 CA          4.5700    2.0430  -26.4420 C.3       6 GLU7        0.0000 
     40 C           4.1710    2.2730  -25.0270 C.2       6 GLU7        0.0000 
     41 O           4.4600    1.5530  -24.1830 O.2       6 GLU7        0.0000 
     42 CB          3.3280    1.5630  -27.1550 C.3       6 GLU7        0.0000 
     43 CG          3.5350    1.4630  -28.6440 C.3       6 GLU7        0.0000 
     44 CD          2.2770    1.4530  -29.4510 C.2       6 GLU7        0.0000 
     45 OE1         2.2910    1.2010  -30.6420 O.co2     6 GLU7        0.0000 
     46 OE2         1.2090    1.6820  -28.9350 O.co2     6 GLU7        0.0000 
     47 N           3.3860    3.4270  -24.7760 N.am      7 PHE8        0.0000 
     48 CA          2.8730    3.8510  -23.5220 C.3       7 PHE8        0.0000 
     49 C           1.3930    3.9210  -23.7920 C.2       7 PHE8        0.0000 
     50 O           0.5860    3.1070  -23.3300 O.2       7 PHE8        0.0000 
     51 CB          3.3030    5.2800  -23.3210 C.3       7 PHE8        0.0000 
     52 CG          4.7290    5.5770  -22.8960 C.ar      7 PHE8        0.0000 
     53 CD1         5.5650    4.6230  -22.4610 C.ar      7 PHE8        0.0000 
     54 CD2         5.1850    6.8580  -22.9460 C.ar      7 PHE8        0.0000 
     55 CE1         6.8320    4.9860  -22.0900 C.ar      7 PHE8        0.0000 
     56 CE2         6.4350    7.2200  -22.5860 C.ar      7 PHE8        0.0000 
     57 CZ          7.2700    6.2710  -22.1500 C.ar      7 PHE8        0.0000 
     58 OXT         0.9440    4.7950  -24.5390 O.3       7 PHE8        0.0000 
     59 C           4.4310   -3.5080  -24.6380 C.2       8 ACY1        0.0000 
     60 O           5.2980   -3.8470  -25.3160 O.co2     8 ACY1        0.0000 
     61 CH3         3.1420   -4.2760  -24.6170 C.3       8 ACY1        0.0000 
@<TRIPOS>BOND
     1    1    2 1    
     2    1   59 du   
     3    2    3 1    
     4    2    5 1    
     5    3    4 2    
     6    3    9 am   
     7    5    6 1    
     8    6    7 ar   
     9    6    8 ar   
    10    9   10 1    
    11   10   11 1    
    12   10   13 1    
    13   11   12 2    
    14   11   18 am   
    15   13   14 1    
    16   14   15 1    
    17   15   16 ar   
    18   15   17 ar   
    19   18   19 1    
    20   19   20 1    
    21   19   22 1    
    22   20   21 2    
    23   20   27 am   
    24   22   23 1    
    25   23   24 1    
    26   24   25 ar   
    27   24   26 ar   
    28   27   28 1    
    29   28   29 1    
    30   28   31 1    
    31   29   30 2    
    32   29   34 am   
    33   31   32 1    
    34   31   33 1    
    35   34   35 1    
    36   35   36 1    
    37   36   37 2    
    38   36   38 am   
    39   38   39 1    
    40   39   40 1    
    41   39   42 1    
    42   40   41 2    
    43   40   47 am   
    44   42   43 1    
    45   43   44 1    
    46   44   45 ar   
    47   44   46 ar   
    48   47   48 1    
    49   48   49 1    
    50   48   51 1    
    51   49   50 2    
    52   49   58 1    
    53   51   52 1    
    54   52   53 ar   
    55   52   54 ar   
    56   53   55 ar   
    57   54   56 ar   
    58   55   57 ar   
    59   56   57 ar   
    60   59   60 ar   
    61   59   61 1    
@<TRIPOS>SUBSTRUCTURE
     1 ASP2        1 RESIDUE 
     2 GLU3        9 RESIDUE 
     3 GLU4       18 RESIDUE 
     4 THR5       27 RESIDUE 
     5 GLY6       34 RESIDUE 
     6 GLU7       38 RESIDUE 
     7 PHE8       47 RESIDUE 
     8 ACY1       59 GROUP   
@<TRIPOS>SET

