#    Name: 6nxj_2_FAD
#    Modification time : Fri May 22 19:25:25 2020

@<TRIPOS>MOLECULE
6nxj_2_FAD
   53    58     1     0     1
SMALL
NO_CHARGES


@<TRIPOS>ATOM
      1 PA          5.2740  -26.0580   46.3070 P.3       1 FAD500      0.0000 
      2 O1A         6.0320  -26.3780   47.5600 O.co2     1 FAD500      0.0000 
      3 O2A         5.7820  -24.9930   45.3910 O.co2     1 FAD500      0.0000 
      4 O5B         5.0590  -27.3730   45.4280 O.3       1 FAD500      0.0000 
      5 C5B         4.3460  -28.4860   46.0280 C.3       1 FAD500      0.0000 
      6 C4B         3.5530  -29.2370   44.9870 C.3       1 FAD500      0.0000 
      7 O4B         4.4590  -29.8210   44.0240 O.3       1 FAD500      0.0000 
      8 C3B         2.7390  -30.4270   45.5220 C.3       1 FAD500      0.0000 
      9 O3B         1.4490  -29.9660   45.8760 O.3       1 FAD500      0.0000 
     10 C2B         2.7420  -31.3900   44.3300 C.3       1 FAD500      0.0000 
     11 O2B         1.7980  -31.0790   43.3340 O.3       1 FAD500      0.0000 
     12 C1B         4.1400  -31.1830   43.7740 C.3       1 FAD500      0.0000 
     13 N9A         5.1860  -31.9970   44.3640 N.pl3     1 FAD500      0.0000 
     14 C8A         5.2040  -32.5890   45.6090 C.2       1 FAD500      0.0000 
     15 N7A         6.3490  -33.1730   45.8790 N.2       1 FAD500      0.0000 
     16 C5A         7.1500  -32.8970   44.7800 C.ar      1 FAD500      0.0000 
     17 C6A         8.4930  -33.2030   44.4940 C.ar      1 FAD500      0.0000 
     18 N6A         9.2950  -33.8580   45.3380 N.pl3     1 FAD500      0.0000 
     19 N1A         8.9950  -32.7420   43.3180 N.ar      1 FAD500      0.0000 
     20 C2A         8.1680  -32.0880   42.4820 C.ar      1 FAD500      0.0000 
     21 N3A         6.8990  -31.7150   42.6580 N.ar      1 FAD500      0.0000 
     22 C4A         6.4400  -32.1760   43.8380 C.ar      1 FAD500      0.0000 
     23 N1         -5.1560  -26.5430   42.7410 N.2       1 FAD500      0.0000 
     24 C2         -6.4750  -26.7660   42.7800 C.2       1 FAD500      0.0000 
     25 O2         -7.0130  -27.1170   43.8340 O.2       1 FAD500      0.0000 
     26 N3         -7.2700  -26.6510   41.6750 N.am      1 FAD500      0.0000 
     27 C4         -6.7860  -26.2900   40.4550 C.2       1 FAD500      0.0000 
     28 O4         -7.5550  -26.1880   39.4860 O.2       1 FAD500      0.0000 
     29 C4X        -5.3860  -26.0390   40.3710 C.2       1 FAD500      0.0000 
     30 N5         -4.8670  -25.6990   39.2070 N.2       1 FAD500      0.0000 
     31 C5X        -3.5090  -25.4720   39.1690 C.ar      1 FAD500      0.0000 
     32 C6         -2.9300  -25.0900   37.9460 C.ar      1 FAD500      0.0000 
     33 C7         -1.5750  -24.8580   37.8370 C.ar      1 FAD500      0.0000 
     34 C7M        -0.9750  -24.4630   36.5160 C.3       1 FAD500      0.0000 
     35 C8         -0.7540  -24.9750   38.9930 C.ar      1 FAD500      0.0000 
     36 C8M         0.7160  -24.7080   38.9230 C.3       1 FAD500      0.0000 
     37 C9         -1.3080  -25.3320   40.1880 C.ar      1 FAD500      0.0000 
     38 C9A        -2.6840  -25.5920   40.3110 C.ar      1 FAD500      0.0000 
     39 N10        -3.2730  -25.9750   41.5190 N.pl3     1 FAD500      0.0000 
     40 C10        -4.6320  -26.2020   41.5880 C.2       1 FAD500      0.0000 
     41 C1'        -2.4810  -26.0530   42.7650 C.3       1 FAD500      0.0000 
     42 C2'        -1.6650  -27.3170   42.8990 C.3       1 FAD500      0.0000 
     43 O2'        -2.5160  -28.4570   43.0310 O.3       1 FAD500      0.0000 
     44 C3'        -0.7560  -27.2410   44.1340 C.3       1 FAD500      0.0000 
     45 O3'        -1.5390  -27.3190   45.2990 O.3       1 FAD500      0.0000 
     46 C4'         0.0560  -25.9550   44.2710 C.3       1 FAD500      0.0000 
     47 O4'         0.7200  -25.6540   43.0360 O.3       1 FAD500      0.0000 
     48 C5'         1.0510  -26.0620   45.3930 C.3       1 FAD500      0.0000 
     49 O5'         1.8660  -24.8810   45.3730 O.3       1 FAD500      0.0000 
     50 P           2.7960  -24.5080   46.6290 P.3       1 FAD500      0.0000 
     51 O1P         1.8870  -24.3860   47.7560 O.co2     1 FAD500      0.0000 
     52 O2P         3.5430  -23.3400   46.0580 O.co2     1 FAD500      0.0000 
     53 O3P         3.7760  -25.7520   46.7980 O.3       1 FAD500      0.0000 
@<TRIPOS>BOND
     1    1    2 ar   
     2    1    3 ar   
     3    1    4 1    
     4    1   53 1    
     5    4    5 1    
     6    5    6 1    
     7    6    7 1    
     8    6    8 1    
     9    7   12 1    
    10    8    9 1    
    11    8   10 1    
    12   10   11 1    
    13   10   12 1    
    14   12   13 1    
    15   13   14 1    
    16   13   22 1    
    17   14   15 2    
    18   15   16 1    
    19   16   17 ar   
    20   16   22 ar   
    21   17   18 1    
    22   17   19 ar   
    23   19   20 ar   
    24   20   21 ar   
    25   21   22 ar   
    26   23   24 1    
    27   23   40 2    
    28   24   25 2    
    29   24   26 am   
    30   26   27 am   
    31   27   28 2    
    32   27   29 1    
    33   29   30 2    
    34   29   40 1    
    35   30   31 1    
    36   31   32 ar   
    37   31   38 ar   
    38   32   33 ar   
    39   33   34 1    
    40   33   35 ar   
    41   35   36 1    
    42   35   37 ar   
    43   37   38 ar   
    44   38   39 1    
    45   39   40 1    
    46   39   41 1    
    47   41   42 1    
    48   42   43 1    
    49   42   44 1    
    50   44   45 1    
    51   44   46 1    
    52   46   47 1    
    53   46   48 1    
    54   48   49 1    
    55   49   50 1    
    56   50   51 ar   
    57   50   52 ar   
    58   50   53 1    
@<TRIPOS>SUBSTRUCTURE
     1 FAD500      1 GROUP   
@<TRIPOS>SET
ATOM$ORANGE STATIC     ATOMS   COLORGROUP SYSTEM 
54 5 5 6 6 8 8 10 10 12 12 14 14 16 16 17 17 20 \
20 22 22 24 24 27 27 29 29 31 31 32 32 33 33 34 34 35 \
35 36 36 37 37 38 38 40 40 41 41 42 42 44 44 46 46 48 \
48 

