#    Name: 5o9u_2_COA
#    Modification time : Fri May 22 19:19:41 2020

@<TRIPOS>MOLECULE
5o9u_2_COA
   48    50     1     0     1
SMALL
NO_CHARGES


@<TRIPOS>ATOM
      1 N1A        22.3920   23.3130   57.0200 N.ar      1 COA501      0.0000 
      2 C2A        23.5010   23.8910   56.4510 C.ar      1 COA501      0.0000 
      3 N3A        24.6780   23.9450   57.1350 N.ar      1 COA501      0.0000 
      4 C4A        24.7380   23.4340   58.3880 C.ar      1 COA501      0.0000 
      5 C5A        23.6480   22.8660   58.9640 C.ar      1 COA501      0.0000 
      6 C6A        22.4600   22.8110   58.2580 C.ar      1 COA501      0.0000 
      7 N6A        21.0880   22.2720   58.5830 N.pl3     1 COA501      0.0000 
      8 N7A        23.9950   22.4460   60.2060 N.2       1 COA501      0.0000 
      9 C8A        25.3080   22.7540   60.3950 C.2       1 COA501      0.0000 
     10 N9A        25.7570   23.3580   59.2710 N.pl3     1 COA501      0.0000 
     11 C1B        27.0640   23.8660   59.0640 C.3       1 COA501      0.0000 
     12 C2B        27.5550   24.3710   60.1890 C.3       1 COA501      0.0000 
     13 O2B        27.0570   25.7250   60.4240 O.3       1 COA501      0.0000 
     14 C3B        29.0580   24.4250   59.8440 C.3       1 COA501      0.0000 
     15 O3B        29.2790   25.4350   58.9850 O.3       1 COA501      0.0000 
     16 P3B        29.9710   26.8230   59.6180 P.3       1 COA501      0.0000 
     17 O7A        29.9040   27.9950   58.6660 O.co2     1 COA501      0.0000 
     18 O8A        31.4110   26.5020   59.9690 O.co2     1 COA501      0.0000 
     19 O9A        29.2110   27.2130   60.8550 O.co2     1 COA501      0.0000 
     20 C4B        29.2670   22.9910   59.1980 C.3       1 COA501      0.0000 
     21 O4B        28.1440   22.6980   58.6010 O.3       1 COA501      0.0000 
     22 C5B        29.4810   21.9700   60.3220 C.3       1 COA501      0.0000 
     23 O5B        29.8420   20.7380   59.7170 O.3       1 COA501      0.0000 
     24 P1A        29.8070   19.3470   60.6200 P.3       1 COA501      0.0000 
     25 O1A        29.7180   18.1130   59.7280 O.co2     1 COA501      0.0000 
     26 O2A        31.0420   19.2760   61.4880 O.co2     1 COA501      0.0000 
     27 O3A        28.4080   19.3870   61.5730 O.3       1 COA501      0.0000 
     28 P2A        27.4780   17.9670   61.8170 P.3       1 COA501      0.0000 
     29 O4A        26.6630   18.1350   63.1010 O.co2     1 COA501      0.0000 
     30 O5A        28.3920   16.7490   61.9180 O.co2     1 COA501      0.0000 
     31 O6A        26.4610   17.7370   60.4980 O.3       1 COA501      0.0000 
     32 CBP        24.1170   17.9230   60.0550 C.3       1 COA501      0.0000 
     33 CCP        25.4380   18.7100   60.2620 C.3       1 COA501      0.0000 
     34 CDP        22.9280   18.9060   60.0110 C.3       1 COA501      0.0000 
     35 CEP        24.2160   17.2040   58.7460 C.3       1 COA501      0.0000 
     36 CAP        24.0040   16.9060   61.1760 C.3       1 COA501      0.0000 
     37 OAP        24.0800   17.5360   62.4250 O.3       1 COA501      0.0000 
     38 C9P        22.6840   16.1390   61.1230 C.2       1 COA501      0.0000 
     39 O9P        22.5660   15.1710   60.4420 O.2       1 COA501      0.0000 
     40 N8P        21.5890   16.6450   61.9870 N.am      1 COA501      0.0000 
     41 C7P        20.2410   15.9880   62.0380 C.3       1 COA501      0.0000 
     42 C6P        19.5220   16.2050   60.6760 C.3       1 COA501      0.0000 
     43 C5P        19.4680   17.6770   60.2640 C.2       1 COA501      0.0000 
     44 O5P        19.2130   18.5390   61.0800 O.2       1 COA501      0.0000 
     45 N4P        19.7060   18.0130   58.8400 N.am      1 COA501      0.0000 
     46 C3P        19.6840   19.3920   58.3390 C.3       1 COA501      0.0000 
     47 C2P        18.2000   19.9650   58.3470 C.3       1 COA501      0.0000 
     48 S1P        18.2790   21.6800   57.7320 S.3       1 COA501      0.0000 
@<TRIPOS>BOND
     1    1    2 ar   
     2    1    6 ar   
     3    2    3 ar   
     4    3    4 ar   
     5    4    5 ar   
     6    4   10 1    
     7    5    6 ar   
     8    5    8 1    
     9    6    7 1    
    10    8    9 2    
    11    9   10 1    
    12   10   11 1    
    13   11   12 1    
    14   11   21 1    
    15   12   13 1    
    16   12   14 1    
    17   14   15 1    
    18   14   20 1    
    19   15   16 1    
    20   16   17 ar   
    21   16   18 ar   
    22   16   19 ar   
    23   20   21 1    
    24   20   22 1    
    25   22   23 1    
    26   23   24 1    
    27   24   25 ar   
    28   24   26 ar   
    29   24   27 1    
    30   27   28 1    
    31   28   29 ar   
    32   28   30 ar   
    33   28   31 1    
    34   31   33 1    
    35   32   33 1    
    36   32   34 1    
    37   32   35 1    
    38   32   36 1    
    39   36   37 1    
    40   36   38 1    
    41   38   39 2    
    42   38   40 am   
    43   40   41 1    
    44   41   42 1    
    45   42   43 1    
    46   43   44 2    
    47   43   45 am   
    48   45   46 1    
    49   46   47 1    
    50   47   48 1    
@<TRIPOS>SUBSTRUCTURE
     1 COA501      1 GROUP   
@<TRIPOS>SET
ATOM$ORANGE STATIC     ATOMS   COLORGROUP SYSTEM 
42 2 2 4 4 5 5 6 6 9 9 11 11 12 12 14 14 20 \
20 22 22 32 32 33 33 34 34 35 35 36 36 38 38 41 41 42 \
42 43 43 46 46 47 47 

