#    Name: 5o9u_1_COA
#    Modification time : Fri May 22 19:19:36 2020

@<TRIPOS>MOLECULE
5o9u_1_COA
   48    50     1     0     1
SMALL
NO_CHARGES


@<TRIPOS>ATOM
      1 N1A         7.4070   20.9060    9.0910 N.ar      1 COA501      0.0000 
      2 C2A         6.3250   21.5030    9.6890 C.ar      1 COA501      0.0000 
      3 N3A         5.1150   21.5290    9.0590 N.ar      1 COA501      0.0000 
      4 C4A         4.9820   20.9590    7.8380 C.ar      1 COA501      0.0000 
      5 C5A         6.0440   20.3680    7.2340 C.ar      1 COA501      0.0000 
      6 C6A         7.2650   20.3470    7.8810 C.ar      1 COA501      0.0000 
      7 N6A         8.6020   19.7800    7.4850 N.pl3     1 COA501      0.0000 
      8 N7A         5.6470   19.8860    6.0320 N.2       1 COA501      0.0000 
      9 C8A         4.3260   20.1800    5.8910 C.2       1 COA501      0.0000 
     10 N9A         3.9230   20.8290    7.0060 N.pl3     1 COA501      0.0000 
     11 C1B         2.6180   21.3250    7.2090 C.3       1 COA501      0.0000 
     12 C2B         2.2230   21.8350    6.0570 C.3       1 COA501      0.0000 
     13 O2B         2.8300   23.1470    5.8360 O.3       1 COA501      0.0000 
     14 C3B         0.7120   21.9610    6.3100 C.3       1 COA501      0.0000 
     15 O3B         0.5190   23.0390    7.0660 O.3       1 COA501      0.0000 
     16 P3B        -0.1180   24.3440    6.2610 P.3       1 COA501      0.0000 
     17 O7A        -0.0970   25.5460    7.1680 O.co2     1 COA501      0.0000 
     18 O8A        -1.5340   23.9960    5.8590 O.co2     1 COA501      0.0000 
     19 O9A         0.7130   24.6300    5.0380 O.co2     1 COA501      0.0000 
     20 C4B         0.3530   20.6410    7.1050 C.3       1 COA501      0.0000 
     21 O4B         1.4940   20.1460    7.5180 O.3       1 COA501      0.0000 
     22 C5B        -0.3510   19.7190    6.1050 C.3       1 COA501      0.0000 
     23 O5B        -0.4080   18.4010    6.6140 O.3       1 COA501      0.0000 
     24 P1A        -0.1900   17.2070    5.4940 P.3       1 COA501      0.0000 
     25 O1A        -1.5390   16.6090    5.1040 O.co2     1 COA501      0.0000 
     26 O2A         0.5030   17.8080    4.2970 O.co2     1 COA501      0.0000 
     27 O3A         0.8120   16.0150    6.1400 O.3       1 COA501      0.0000 
     28 P2A         2.0190   15.2020    5.2320 P.3       1 COA501      0.0000 
     29 O4A         2.3770   15.8920    3.9150 O.co2     1 COA501      0.0000 
     30 O5A         1.5330   13.7980    4.9410 O.co2     1 COA501      0.0000 
     31 O6A         3.3560   15.1190    6.2450 O.3       1 COA501      0.0000 
     32 CBP         5.7120   15.4980    6.3130 C.3       1 COA501      0.0000 
     33 CCP         4.3240   16.1630    6.1350 C.3       1 COA501      0.0000 
     34 CDP         6.8050   16.5460    6.0110 C.3       1 COA501      0.0000 
     35 CEP         5.8130   15.0440    7.7410 C.3       1 COA501      0.0000 
     36 CAP         5.7830   14.3050    5.3790 C.3       1 COA501      0.0000 
     37 OAP         5.7010   14.7500    4.0470 O.3       1 COA501      0.0000 
     38 C9P         7.1040   13.5580    5.5590 C.2       1 COA501      0.0000 
     39 O9P         7.2380   12.6830    6.3580 O.2       1 COA501      0.0000 
     40 N8P         8.2080   13.9670    4.6680 N.am      1 COA501      0.0000 
     41 C7P         9.5500   13.3120    4.7570 C.3       1 COA501      0.0000 
     42 C6P        10.1610   13.6960    6.1340 C.3       1 COA501      0.0000 
     43 C5P        10.1380   15.2020    6.4000 C.2       1 COA501      0.0000 
     44 O5P        10.2270   15.9790    5.4740 O.2       1 COA501      0.0000 
     45 N4P        10.0470   15.6460    7.8140 N.am      1 COA501      0.0000 
     46 C3P        10.0130   17.0430    8.2660 C.3       1 COA501      0.0000 
     47 C2P        11.3220   17.8620    7.8880 C.3       1 COA501      0.0000 
     48 S1P        11.0440   19.5950    8.3800 S.3       1 COA501      0.0000 
@<TRIPOS>BOND
     1    1    2 ar   
     2    1    6 ar   
     3    2    3 ar   
     4    3    4 ar   
     5    4    5 ar   
     6    4   10 1    
     7    5    6 ar   
     8    5    8 1    
     9    6    7 1    
    10    8    9 2    
    11    9   10 1    
    12   10   11 1    
    13   11   12 1    
    14   11   21 1    
    15   12   13 1    
    16   12   14 1    
    17   14   15 1    
    18   14   20 1    
    19   15   16 1    
    20   16   17 ar   
    21   16   18 ar   
    22   16   19 ar   
    23   20   21 1    
    24   20   22 1    
    25   22   23 1    
    26   23   24 1    
    27   24   25 ar   
    28   24   26 ar   
    29   24   27 1    
    30   27   28 1    
    31   28   29 ar   
    32   28   30 ar   
    33   28   31 1    
    34   31   33 1    
    35   32   33 1    
    36   32   34 1    
    37   32   35 1    
    38   32   36 1    
    39   36   37 1    
    40   36   38 1    
    41   38   39 2    
    42   38   40 am   
    43   40   41 1    
    44   41   42 1    
    45   42   43 1    
    46   43   44 2    
    47   43   45 am   
    48   45   46 1    
    49   46   47 1    
    50   47   48 1    
@<TRIPOS>SUBSTRUCTURE
     1 COA501      1 GROUP   
@<TRIPOS>SET
ATOM$ORANGE STATIC     ATOMS   COLORGROUP SYSTEM 
42 2 2 4 4 5 5 6 6 9 9 11 11 12 12 14 14 20 \
20 22 22 32 32 33 33 34 34 35 35 36 36 38 38 41 41 42 \
42 43 43 46 46 47 47 

