#    Name: 6h7l_1_Y00
#    Modification time : Fri May 22 19:26:36 2020

@<TRIPOS>MOLECULE
6h7l_1_Y00
   22    23     1     0     0
SMALL
NO_CHARGES


@<TRIPOS>ATOM
      1 O3        -42.0220   25.8830   -2.8610 O.3       1 Y00406      0.0000 
      2 C16       -42.2350   26.1080   -4.1770 C.ar      1 Y00406      0.0000 
      3 C15       -43.5260   26.0060   -4.6990 C.ar      1 Y00406      0.0000 
      4 C14       -43.7460   26.2320   -6.0560 C.ar      1 Y00406      0.0000 
      5 C17       -41.1610   26.4380   -4.9920 C.ar      1 Y00406      0.0000 
      6 C18       -41.3740   26.6470   -6.3490 C.ar      1 Y00406      0.0000 
      7 C13       -42.6700   26.5540   -6.8840 C.ar      1 Y00406      0.0000 
      8 C12       -42.9110   26.7930   -8.3580 C.3       1 Y00406      0.0000 
      9 C11       -42.8430   28.2930   -8.6240 C.3       1 Y00406      0.0000 
     10 C9        -42.8990   28.6260  -10.1140 C.3       1 Y00406      0.0000 
     11 C10       -43.0940   30.1350  -10.2660 C.3       1 Y00406      0.0000 
     12 N1        -41.7110   28.1510  -10.8230 N.4       1 Y00406      0.0000 
     13 C8        -41.7230   28.0030  -12.2670 C.3       1 Y00406      0.0000 
     14 C1        -40.3820   27.6110  -12.8790 C.3       1 Y00406      0.0000 
     15 C2        -40.3970   27.8660  -14.3810 C.ar      1 Y00406      0.0000 
     16 C7        -41.4260   27.3420  -15.1910 C.ar      1 Y00406      0.0000 
     17 C6        -41.4440   27.5810  -16.5640 C.ar      1 Y00406      0.0000 
     18 O1        -42.4340   27.0790  -17.3560 O.3       1 Y00406      0.0000 
     19 C5        -40.3570   28.3960  -17.1560 C.ar      1 Y00406      0.0000 
     20 O2        -40.3560   28.6440  -18.4920 O.3       1 Y00406      0.0000 
     21 C4        -39.3610   28.9000  -16.3250 C.ar      1 Y00406      0.0000 
     22 C3        -39.3780   28.6340  -14.9560 C.ar      1 Y00406      0.0000 
@<TRIPOS>BOND
     1    1    2 1    
     2    2    3 ar   
     3    2    5 ar   
     4    3    4 ar   
     5    4    7 ar   
     6    5    6 ar   
     7    6    7 ar   
     8    7    8 1    
     9    8    9 1    
    10    9   10 1    
    11   10   11 1    
    12   10   12 1    
    13   12   13 1    
    14   13   14 1    
    15   14   15 1    
    16   15   16 ar   
    17   15   22 ar   
    18   16   17 ar   
    19   17   18 1    
    20   17   19 ar   
    21   19   20 1    
    22   19   21 ar   
    23   21   22 ar   
@<TRIPOS>SUBSTRUCTURE
     1 Y00406      1 GROUP   
@<TRIPOS>SET

