#    Name: 6h7l_2_Y00
#    Modification time : Fri May 22 19:26:42 2020

@<TRIPOS>MOLECULE
6h7l_2_Y00
   22    23     1     0     0
SMALL
NO_CHARGES


@<TRIPOS>ATOM
      1 O3        -31.4810   40.5580  -47.3650 O.3       1 Y00405      0.0000 
      2 C16       -31.8220   39.3720  -47.9290 C.ar      1 Y00405      0.0000 
      3 C15       -30.9490   38.7640  -48.8320 C.ar      1 Y00405      0.0000 
      4 C14       -31.2860   37.5400  -49.4060 C.ar      1 Y00405      0.0000 
      5 C17       -33.0380   38.7680  -47.5980 C.ar      1 Y00405      0.0000 
      6 C18       -33.3660   37.5370  -48.1710 C.ar      1 Y00405      0.0000 
      7 C13       -32.4970   36.9250  -49.0820 C.ar      1 Y00405      0.0000 
      8 C12       -32.8630   35.6020  -49.7210 C.3       1 Y00405      0.0000 
      9 C11       -32.6500   34.4760  -48.7300 C.3       1 Y00405      0.0000 
     10 C9        -33.1430   33.1250  -49.2230 C.3       1 Y00405      0.0000 
     11 C10       -32.6620   32.0440  -48.2500 C.3       1 Y00405      0.0000 
     12 N1        -34.5970   33.0930  -49.3940 N.4       1 Y00405      0.0000 
     13 C8        -35.2380   32.0730  -50.2160 C.3       1 Y00405      0.0000 
     14 C1        -36.7670   32.1080  -50.2080 C.3       1 Y00405      0.0000 
     15 C2        -37.3350   30.8000  -50.7420 C.ar      1 Y00405      0.0000 
     16 C7        -36.9380   30.3050  -51.9910 C.ar      1 Y00405      0.0000 
     17 C6        -37.4420   29.0990  -52.4860 C.ar      1 Y00405      0.0000 
     18 O1        -37.0540   28.6050  -53.6990 O.3       1 Y00405      0.0000 
     19 C5        -38.4210   28.3550  -51.6630 C.ar      1 Y00405      0.0000 
     20 O2        -38.9250   27.1810  -52.1210 O.3       1 Y00405      0.0000 
     21 C4        -38.8070   28.8800  -50.4330 C.ar      1 Y00405      0.0000 
     22 C3        -38.2660   30.0860  -49.9790 C.ar      1 Y00405      0.0000 
@<TRIPOS>BOND
     1    1    2 1    
     2    2    3 ar   
     3    2    5 ar   
     4    3    4 ar   
     5    4    7 ar   
     6    5    6 ar   
     7    6    7 ar   
     8    7    8 1    
     9    8    9 1    
    10    9   10 1    
    11   10   11 1    
    12   10   12 1    
    13   12   13 1    
    14   13   14 1    
    15   14   15 1    
    16   15   16 ar   
    17   15   22 ar   
    18   16   17 ar   
    19   17   18 1    
    20   17   19 ar   
    21   19   20 1    
    22   19   21 ar   
    23   21   22 ar   
@<TRIPOS>SUBSTRUCTURE
     1 Y00405      1 GROUP   
@<TRIPOS>SET

