#    Name: 6iud_2_ADP
#    Modification time : Fri May 22 19:29:03 2020

@<TRIPOS>MOLECULE
6iud_2_ADP
   27    29     1     0     1
SMALL
NO_CHARGES


@<TRIPOS>ATOM
      1 PB        -40.2080   83.2730  -24.9300 P.3       1 ADP500      0.0000 
      2 O1B       -41.1270   83.9100  -25.9650 O.co2     1 ADP500      0.0000 
      3 O2B       -40.7250   83.6080  -23.5450 O.co2     1 ADP500      0.0000 
      4 O3B       -39.7950   81.8040  -25.1000 O.co2     1 ADP500      0.0000 
      5 PA        -37.4580   84.2970  -24.2340 P.3       1 ADP500      0.0000 
      6 O1A       -37.3560   85.7130  -23.7840 O.co2     1 ADP500      0.0000 
      7 O2A       -37.2600   83.1830  -23.2320 O.co2     1 ADP500      0.0000 
      8 O3A       -38.8720   84.1840  -25.0530 O.3       1 ADP500      0.0000 
      9 O5'       -36.3810   84.2400  -25.4420 O.3       1 ADP500      0.0000 
     10 C5'       -35.7560   83.0500  -25.9810 C.3       1 ADP500      0.0000 
     11 C4'       -34.2350   83.1650  -25.8510 C.3       1 ADP500      0.0000 
     12 O4'       -33.7780   84.3220  -26.5550 O.3       1 ADP500      0.0000 
     13 C3'       -33.7510   83.3510  -24.4160 C.3       1 ADP500      0.0000 
     14 O3'       -32.5450   82.6290  -24.4600 O.3       1 ADP500      0.0000 
     15 C2'       -33.4100   84.8280  -24.2550 C.3       1 ADP500      0.0000 
     16 O2'       -32.3960   85.1710  -23.2740 O.3       1 ADP500      0.0000 
     17 C1'       -32.9900   85.1670  -25.6810 C.3       1 ADP500      0.0000 
     18 N9        -33.2290   86.5860  -26.0640 N.pl3     1 ADP500      0.0000 
     19 C8        -34.3780   87.2810  -25.8580 C.2       1 ADP500      0.0000 
     20 N7        -34.2780   88.5340  -26.3560 N.2       1 ADP500      0.0000 
     21 C5        -33.0530   88.6620  -26.8980 C.ar      1 ADP500      0.0000 
     22 C6        -32.3190   89.7380  -27.5850 C.ar      1 ADP500      0.0000 
     23 N6        -32.9010   90.9390  -27.7950 N.pl3     1 ADP500      0.0000 
     24 N1        -31.0770   89.4610  -28.0260 N.ar      1 ADP500      0.0000 
     25 C2        -30.4980   88.2600  -27.8270 C.ar      1 ADP500      0.0000 
     26 N3        -31.0940   87.2360  -27.1950 N.ar      1 ADP500      0.0000 
     27 C4        -32.3570   87.3790  -26.7060 C.ar      1 ADP500      0.0000 
@<TRIPOS>BOND
     1    1    2 ar   
     2    1    3 ar   
     3    1    4 ar   
     4    1    8 1    
     5    5    6 ar   
     6    5    7 ar   
     7    5    8 1    
     8    5    9 1    
     9    9   10 1    
    10   10   11 1    
    11   11   12 1    
    12   11   13 1    
    13   12   17 1    
    14   13   14 1    
    15   13   15 1    
    16   15   16 1    
    17   15   17 1    
    18   17   18 1    
    19   18   19 1    
    20   18   27 1    
    21   19   20 2    
    22   20   21 1    
    23   21   22 ar   
    24   21   27 ar   
    25   22   23 1    
    26   22   24 ar   
    27   24   25 ar   
    28   25   26 ar   
    29   26   27 ar   
@<TRIPOS>SUBSTRUCTURE
     1 ADP500      1 GROUP   
@<TRIPOS>SET
ATOM$ORANGE STATIC     ATOMS   COLORGROUP SYSTEM 
20 10 10 11 11 13 13 15 15 17 17 19 19 21 21 22 22 25 \
25 27 27 

