#    Name: 6iud_4_ADP
#    Modification time : Fri May 22 19:29:22 2020

@<TRIPOS>MOLECULE
6iud_4_ADP
   27    29     1     0     1
SMALL
NO_CHARGES


@<TRIPOS>ATOM
      1 PB         -4.7680  107.1130  -69.7340 P.3       1 ADP500      0.0000 
      2 O1B        -5.0400  107.4350  -71.1960 O.co2     1 ADP500      0.0000 
      3 O2B        -5.1210  108.1670  -68.7100 O.co2     1 ADP500      0.0000 
      4 O3B        -3.3700  106.5470  -69.5600 O.co2     1 ADP500      0.0000 
      5 PA         -6.6330  104.8890  -70.4080 P.3       1 ADP500      0.0000 
      6 O1A        -5.6600  104.1630  -71.3010 O.co2     1 ADP500      0.0000 
      7 O2A        -7.8640  105.4780  -71.0250 O.co2     1 ADP500      0.0000 
      8 O3A        -5.8170  105.9080  -69.4180 O.3       1 ADP500      0.0000 
      9 O5'        -7.1940  103.8370  -69.3250 O.3       1 ADP500      0.0000 
     10 C5'        -6.2970  102.9220  -68.6770 C.3       1 ADP500      0.0000 
     11 C4'        -6.8760  101.5320  -68.9340 C.3       1 ADP500      0.0000 
     12 O4'        -8.1350  101.5170  -68.2890 O.3       1 ADP500      0.0000 
     13 C3'        -7.2420  101.2430  -70.3870 C.3       1 ADP500      0.0000 
     14 O3'        -6.9730   99.8600  -70.5410 O.3       1 ADP500      0.0000 
     15 C2'        -8.7460  101.4160  -70.5280 C.3       1 ADP500      0.0000 
     16 O2'        -9.3390  100.4500  -71.3880 O.3       1 ADP500      0.0000 
     17 C1'        -9.2160  101.1110  -69.1270 C.3       1 ADP500      0.0000 
     18 N9        -10.4040  101.8850  -68.6900 N.pl3     1 ADP500      0.0000 
     19 C8        -10.5670  103.2230  -68.8430 C.2       1 ADP500      0.0000 
     20 N7        -11.7440  103.6420  -68.3180 N.2       1 ADP500      0.0000 
     21 C5        -12.3490  102.5530  -67.7900 C.ar      1 ADP500      0.0000 
     22 C6        -13.6230  102.3060  -67.0840 C.ar      1 ADP500      0.0000 
     23 N6        -14.4670  103.3410  -66.8230 N.pl3     1 ADP500      0.0000 
     24 N1        -13.8870  101.0330  -66.7000 N.ar      1 ADP500      0.0000 
     25 C2        -13.0210  100.0190  -66.9460 C.ar      1 ADP500      0.0000 
     26 N3        -11.8430  100.1710  -67.5880 N.ar      1 ADP500      0.0000 
     27 C4        -11.4630  101.3950  -68.0300 C.ar      1 ADP500      0.0000 
@<TRIPOS>BOND
     1    1    2 ar   
     2    1    3 ar   
     3    1    4 ar   
     4    1    8 1    
     5    5    6 ar   
     6    5    7 ar   
     7    5    8 1    
     8    5    9 1    
     9    9   10 1    
    10   10   11 1    
    11   11   12 1    
    12   11   13 1    
    13   12   17 1    
    14   13   14 1    
    15   13   15 1    
    16   15   16 1    
    17   15   17 1    
    18   17   18 1    
    19   18   19 1    
    20   18   27 1    
    21   19   20 2    
    22   20   21 1    
    23   21   22 ar   
    24   21   27 ar   
    25   22   23 1    
    26   22   24 ar   
    27   24   25 ar   
    28   25   26 ar   
    29   26   27 ar   
@<TRIPOS>SUBSTRUCTURE
     1 ADP500      1 GROUP   
@<TRIPOS>SET
ATOM$ORANGE STATIC     ATOMS   COLORGROUP SYSTEM 
20 10 10 11 11 13 13 15 15 17 17 19 19 21 21 22 22 25 \
25 27 27 

