#    Name: 6iud_3_ADP
#    Modification time : Fri May 22 19:29:13 2020

@<TRIPOS>MOLECULE
6iud_3_ADP
   27    29     1     0     1
SMALL
NO_CHARGES


@<TRIPOS>ATOM
      1 PB          2.3810  103.8810  -61.5240 P.3       1 ADP500      0.0000 
      2 O1B         2.6380  102.9590  -62.6920 O.co2     1 ADP500      0.0000 
      3 O2B         3.5560  104.0020  -60.5790 O.co2     1 ADP500      0.0000 
      4 O3B         1.8650  105.1940  -62.0180 O.co2     1 ADP500      0.0000 
      5 PA          0.7980  103.2310  -59.2110 P.3       1 ADP500      0.0000 
      6 O1A         0.7200  104.7300  -58.9180 O.co2     1 ADP500      0.0000 
      7 O2A         1.6580  102.2490  -58.4830 O.co2     1 ADP500      0.0000 
      8 O3A         1.2190  103.0600  -60.7630 O.3       1 ADP500      0.0000 
      9 O5'        -0.7180  102.7100  -59.1320 O.3       1 ADP500      0.0000 
     10 C5'        -1.7660  103.4340  -59.7450 C.3       1 ADP500      0.0000 
     11 C4'        -2.9640  103.4930  -58.8260 C.3       1 ADP500      0.0000 
     12 O4'        -3.4090  102.1600  -58.6180 O.3       1 ADP500      0.0000 
     13 C3'        -2.5860  103.9730  -57.4580 C.3       1 ADP500      0.0000 
     14 O3'        -3.7950  104.5330  -57.0410 O.3       1 ADP500      0.0000 
     15 C2'        -2.3520  102.6860  -56.6810 C.3       1 ADP500      0.0000 
     16 O2'        -2.4400  102.7220  -55.2580 O.3       1 ADP500      0.0000 
     17 C1'        -3.4050  101.7900  -57.2470 C.3       1 ADP500      0.0000 
     18 N9         -2.9960  100.3920  -57.2050 N.pl3     1 ADP500      0.0000 
     19 C8         -1.7720   99.9500  -57.5250 C.2       1 ADP500      0.0000 
     20 N7         -1.7550   98.6000  -57.4060 N.2       1 ADP500      0.0000 
     21 C5         -2.9760   98.1520  -57.0170 C.ar      1 ADP500      0.0000 
     22 C6         -3.6350   96.8300  -56.7120 C.ar      1 ADP500      0.0000 
     23 N6         -2.9480   95.6510  -56.7860 N.pl3     1 ADP500      0.0000 
     24 N1         -4.9440   96.8450  -56.3470 N.ar      1 ADP500      0.0000 
     25 C2         -5.6110   98.0060  -56.2680 C.ar      1 ADP500      0.0000 
     26 N3         -5.0690   99.2060  -56.5180 N.ar      1 ADP500      0.0000 
     27 C4         -3.7850   99.3630  -56.8710 C.ar      1 ADP500      0.0000 
@<TRIPOS>BOND
     1    1    2 ar   
     2    1    3 ar   
     3    1    4 ar   
     4    1    8 1    
     5    5    6 ar   
     6    5    7 ar   
     7    5    8 1    
     8    5    9 1    
     9    9   10 1    
    10   10   11 1    
    11   11   12 1    
    12   11   13 1    
    13   12   17 1    
    14   13   14 1    
    15   13   15 1    
    16   15   16 1    
    17   15   17 1    
    18   17   18 1    
    19   18   19 1    
    20   18   27 1    
    21   19   20 2    
    22   20   21 1    
    23   21   22 ar   
    24   21   27 ar   
    25   22   23 1    
    26   22   24 ar   
    27   24   25 ar   
    28   25   26 ar   
    29   26   27 ar   
@<TRIPOS>SUBSTRUCTURE
     1 ADP500      1 GROUP   
@<TRIPOS>SET
ATOM$ORANGE STATIC     ATOMS   COLORGROUP SYSTEM 
20 10 10 11 11 13 13 15 15 17 17 19 19 21 21 22 22 25 \
25 27 27 

