#    Name: 6iud_1_ADP
#    Modification time : Fri May 22 19:28:54 2020

@<TRIPOS>MOLECULE
6iud_1_ADP
   27    29     1     0     1
SMALL
NO_CHARGES


@<TRIPOS>ATOM
      1 PB        -39.9330   75.4840  -33.2480 P.3       1 ADP500      0.0000 
      2 O1B       -40.5990   74.5310  -34.1910 O.co2     1 ADP500      0.0000 
      3 O2B       -39.0230   74.8200  -32.2610 O.co2     1 ADP500      0.0000 
      4 O3B       -40.8830   76.4820  -32.6510 O.co2     1 ADP500      0.0000 
      5 PA        -38.7690   76.6730  -35.5760 P.3       1 ADP500      0.0000 
      6 O1A       -38.1270   75.5520  -36.3110 O.co2     1 ADP500      0.0000 
      7 O2A       -40.1340   77.2290  -35.9970 O.co2     1 ADP500      0.0000 
      8 O3A       -38.7620   76.2530  -34.0230 O.3       1 ADP500      0.0000 
      9 O5'       -37.7330   77.9090  -35.5610 O.3       1 ADP500      0.0000 
     10 C5'       -37.9580   79.1570  -34.8960 C.3       1 ADP500      0.0000 
     11 C4'       -37.5480   80.2950  -35.8140 C.3       1 ADP500      0.0000 
     12 O4'       -36.1470   80.2010  -36.0280 O.3       1 ADP500      0.0000 
     13 C3'       -38.1050   80.2390  -37.2190 C.3       1 ADP500      0.0000 
     14 O3'       -38.0050   81.5900  -37.6170 O.3       1 ADP500      0.0000 
     15 C2'       -37.0640   79.5010  -38.0280 C.3       1 ADP500      0.0000 
     16 O2'       -37.0730   79.7080  -39.4450 O.3       1 ADP500      0.0000 
     17 C1'       -35.8220   80.0790  -37.4200 C.3       1 ADP500      0.0000 
     18 N9        -34.6640   79.1740  -37.5130 N.pl3     1 ADP500      0.0000 
     19 C8        -34.6830   77.8440  -37.2760 C.2       1 ADP500      0.0000 
     20 N7        -33.4270   77.3250  -37.3940 N.2       1 ADP500      0.0000 
     21 C5        -32.5870   78.3420  -37.7180 C.ar      1 ADP500      0.0000 
     22 C6        -31.1170   78.5070  -37.9950 C.ar      1 ADP500      0.0000 
     23 N6        -30.2620   77.4350  -37.9340 N.pl3     1 ADP500      0.0000 
     24 N1        -30.6700   79.7630  -38.2940 N.ar      1 ADP500      0.0000 
     25 C2        -31.5000   80.8060  -38.3190 C.ar      1 ADP500      0.0000 
     26 N3        -32.8170   80.7210  -38.0920 N.ar      1 ADP500      0.0000 
     27 C4        -33.4160   79.5530  -37.8070 C.ar      1 ADP500      0.0000 
@<TRIPOS>BOND
     1    1    2 ar   
     2    1    3 ar   
     3    1    4 ar   
     4    1    8 1    
     5    5    6 ar   
     6    5    7 ar   
     7    5    8 1    
     8    5    9 1    
     9    9   10 1    
    10   10   11 1    
    11   11   12 1    
    12   11   13 1    
    13   12   17 1    
    14   13   14 1    
    15   13   15 1    
    16   15   16 1    
    17   15   17 1    
    18   17   18 1    
    19   18   19 1    
    20   18   27 1    
    21   19   20 2    
    22   20   21 1    
    23   21   22 ar   
    24   21   27 ar   
    25   22   23 1    
    26   22   24 ar   
    27   24   25 ar   
    28   25   26 ar   
    29   26   27 ar   
@<TRIPOS>SUBSTRUCTURE
     1 ADP500      1 GROUP   
@<TRIPOS>SET
ATOM$ORANGE STATIC     ATOMS   COLORGROUP SYSTEM 
20 10 10 11 11 13 13 15 15 17 17 19 19 21 21 22 22 25 \
25 27 27 

