#    Name: 6fo0_1_G8U
#    Modification time : Fri May 22 19:24:59 2020

@<TRIPOS>MOLECULE
6fo0_1_G8U
   29    31     1     0     0
SMALL
NO_CHARGES


@<TRIPOS>ATOM
      1 C1        106.3880   97.5540  115.7880           1 G8U503      0.0000 
      2 F1        106.4820   97.7580  117.1310           1 G8U503      0.0000 
      3 F2        107.2120   98.4210  115.1330           1 G8U503      0.0000 
      4 F3        105.1010   97.7670  115.3840           1 G8U503      0.0000 
      5 C4        105.8230   95.4390  114.9050           1 G8U503      0.0000 
      6 C5        105.7390   95.3810  113.5290           1 G8U503      0.0000 
      7 C6        104.8000   94.5590  112.9310           1 G8U503      0.0000 
      8 C7        103.9180   93.8260  113.7090           1 G8U503      0.0000 
      9 C8        104.0000   93.8840  115.0890           1 G8U503      0.0000 
     10 C9        104.9540   94.6920  115.6840           1 G8U503      0.0000 
     11 O10       104.6860   94.5210  111.5390           1 G8U503      0.0000 
     12 C11       105.5430   93.6940  110.8010           1 G8U503      0.0000 
     13 C12       104.9660   92.9390  109.8030           1 G8U503      0.0000 
     14 C13       105.7330   92.1170  109.0080           1 G8U503      0.0000 
     15 C14       107.0910   92.0450  109.1930           1 G8U503      0.0000 
     16 C15       107.6810   92.8100  110.1770           1 G8U503      0.0000 
     17 C16       106.9120   93.6370  110.9800           1 G8U503      0.0000 
     18 C17       107.8990   91.1340  108.2820           1 G8U503      0.0000 
     19 C18       107.9860   89.7770  108.5140           1 G8U503      0.0000 
     20 C19       108.7350   89.0250  107.6260           1 G8U503      0.0000 
     21 C20       109.3490   89.6370  106.5510           1 G8U503      0.0000 
     22 C22       108.5350   91.6820  107.1820           1 G8U503      0.0000 
     23 O23       107.3520   89.1880  109.6110           1 G8U503      0.0000 
     24 C24       108.4300   93.1780  106.9210           1 G8U503      0.0000 
     25 O25       109.0790   93.4460  105.7090           1 G8U503      0.0000 
     26 CL        108.9040   87.2680  107.8660           1 G8U503      0.0000 
     27 C27       110.1690   88.8020  105.5810           1 G8U503      0.0000 
     28 N28       109.2330   90.9310  106.3620           1 G8U503      0.0000 
     29 O29       106.7940   96.2500  115.4990           1 G8U503      0.0000 
@<TRIPOS>BOND
     1    1    2 du   
     2    1    3 du   
     3    1    4 du   
     4    1   29 du   
     5    5    6 du   
     6    5   10 du   
     7    5   29 du   
     8    6    7 du   
     9    7    8 du   
    10    7   11 du   
    11    8    9 du   
    12    9   10 du   
    13   11   12 du   
    14   12   13 du   
    15   12   17 du   
    16   13   14 du   
    17   14   15 du   
    18   15   16 du   
    19   15   18 du   
    20   16   17 du   
    21   18   19 du   
    22   18   22 du   
    23   19   20 du   
    24   19   23 du   
    25   20   21 du   
    26   20   26 du   
    27   21   27 du   
    28   21   28 du   
    29   22   24 du   
    30   22   28 du   
    31   24   25 du   
@<TRIPOS>SUBSTRUCTURE
     1 G8U503      1 GROUP   
@<TRIPOS>SET

