#    Name: 6fo0_2_G8U
#    Modification time : Fri May 22 19:25:06 2020

@<TRIPOS>MOLECULE
6fo0_2_G8U
   29    31     1     0     0
SMALL
NO_CHARGES


@<TRIPOS>ATOM
      1 C1        106.6310  115.6390  115.7510           1 G8U503      0.0000 
      2 F1        106.4020  115.2660  117.0410           1 G8U503      0.0000 
      3 F2        105.8200  114.9280  114.9180           1 G8U503      0.0000 
      4 F3        107.9350  115.3940  115.4370           1 G8U503      0.0000 
      5 C4        107.3100  117.7530  114.9520           1 G8U503      0.0000 
      6 C5        107.3350  117.7690  113.5710           1 G8U503      0.0000 
      7 C6        108.2800  118.5360  112.9110           1 G8U503      0.0000 
      8 C7        109.2200  119.2560  113.6320           1 G8U503      0.0000 
      9 C8        109.1940  119.2430  115.0150           1 G8U503      0.0000 
     10 C9        108.2360  118.4870  115.6700           1 G8U503      0.0000 
     11 O10       108.3380  118.5280  111.5150           1 G8U503      0.0000 
     12 C11       107.4820  119.3580  110.7810           1 G8U503      0.0000 
     13 C12       108.0580  120.1840  109.8400           1 G8U503      0.0000 
     14 C13       107.2820  121.0090  109.0540           1 G8U503      0.0000 
     15 C14       105.9170  121.0110  109.1920           1 G8U503      0.0000 
     16 C15       105.3300  120.1720  110.1170           1 G8U503      0.0000 
     17 C16       106.1080  119.3430  110.9100           1 G8U503      0.0000 
     18 C17       105.0990  121.9260  108.2930           1 G8U503      0.0000 
     19 C18       104.9970  123.2780  108.5480           1 G8U503      0.0000 
     20 C19       104.2440  124.0390  107.6700           1 G8U503      0.0000 
     21 C20       103.6360  123.4390  106.5860           1 G8U503      0.0000 
     22 C22       104.4710  121.3910  107.1830           1 G8U503      0.0000 
     23 O23       105.6250  123.8570  109.6530           1 G8U503      0.0000 
     24 C24       104.5870  119.9010  106.8900           1 G8U503      0.0000 
     25 O25       103.9100  119.6470  105.6920           1 G8U503      0.0000 
     26 CL        104.0560  125.7890  107.9400           1 G8U503      0.0000 
     27 C27       102.8090  124.2820  105.6280           1 G8U503      0.0000 
     28 N28       103.7650  122.1490  106.3740           1 G8U503      0.0000 
     29 O29       106.3360  116.9980  115.6150           1 G8U503      0.0000 
@<TRIPOS>BOND
     1    1    2 du   
     2    1    3 du   
     3    1    4 du   
     4    1   29 du   
     5    5    6 du   
     6    5   10 du   
     7    5   29 du   
     8    6    7 du   
     9    7    8 du   
    10    7   11 du   
    11    8    9 du   
    12    9   10 du   
    13   11   12 du   
    14   12   13 du   
    15   12   17 du   
    16   13   14 du   
    17   14   15 du   
    18   15   16 du   
    19   15   18 du   
    20   16   17 du   
    21   18   19 du   
    22   18   22 du   
    23   19   20 du   
    24   19   23 du   
    25   20   21 du   
    26   20   26 du   
    27   21   27 du   
    28   21   28 du   
    29   22   24 du   
    30   22   28 du   
    31   24   25 du   
@<TRIPOS>SUBSTRUCTURE
     1 G8U503      1 GROUP   
@<TRIPOS>SET

