#    Name: 6gnf_3_ADP
#    Modification time : Fri May 22 19:28:14 2020

@<TRIPOS>MOLECULE
6gnf_3_ADP
   27    29     1     0     1
SMALL
NO_CHARGES


@<TRIPOS>ATOM
      1 PB         16.2100   33.4420  -25.3560 P.3       1 ADP601      0.0000 
      2 O1B        16.9550   34.3930  -26.2630 O.co2     1 ADP601      0.0000 
      3 O2B        17.0930   32.7210  -24.3660 O.co2     1 ADP601      0.0000 
      4 O3B        15.1950   32.5760  -26.0660 O.co2     1 ADP601      0.0000 
      5 PA         13.6830   34.2630  -24.3520 P.3       1 ADP601      0.0000 
      6 O1A        13.1380   34.0840  -25.7500 O.co2     1 ADP601      0.0000 
      7 O2A        13.1500   35.3610  -23.4610 O.co2     1 ADP601      0.0000 
      8 O3A        15.2940   34.4110  -24.4390 O.3       1 ADP601      0.0000 
      9 O5'        13.5370   32.8660  -23.5620 O.3       1 ADP601      0.0000 
     10 C5'        14.1200   32.6930  -22.2690 C.3       1 ADP601      0.0000 
     11 C4'        13.1680   31.8660  -21.4080 C.3       1 ADP601      0.0000 
     12 O4'        13.8340   31.3250  -20.2630 O.3       1 ADP601      0.0000 
     13 C3'        12.0140   32.7020  -20.8790 C.3       1 ADP601      0.0000 
     14 O3'        10.7970   31.9740  -21.0350 O.3       1 ADP601      0.0000 
     15 C2'        12.2810   32.9150  -19.4070 C.3       1 ADP601      0.0000 
     16 O2'        11.0560   32.8340  -18.6710 O.3       1 ADP601      0.0000 
     17 C1'        13.2170   31.7750  -19.0510 C.3       1 ADP601      0.0000 
     18 N9         14.2930   32.1630  -18.1160 N.pl3     1 ADP601      0.0000 
     19 C8         15.3600   32.9370  -18.4010 C.2       1 ADP601      0.0000 
     20 N7         16.1600   33.0660  -17.3090 N.2       1 ADP601      0.0000 
     21 C5         15.6010   32.3530  -16.3140 C.ar      1 ADP601      0.0000 
     22 C6         15.9160   32.0530  -14.9050 C.ar      1 ADP601      0.0000 
     23 N6         17.0260   32.5620  -14.3310 N.pl3     1 ADP601      0.0000 
     24 N1         15.0620   31.2630  -14.2160 N.ar      1 ADP601      0.0000 
     25 C2         13.9530   30.7480  -14.7760 C.ar      1 ADP601      0.0000 
     26 N3         13.6070   30.9810  -16.0520 N.ar      1 ADP601      0.0000 
     27 C4         14.3740   31.7560  -16.8540 C.ar      1 ADP601      0.0000 
@<TRIPOS>BOND
     1    1    2 ar   
     2    1    3 ar   
     3    1    4 ar   
     4    1    8 1    
     5    5    6 ar   
     6    5    7 ar   
     7    5    8 1    
     8    5    9 1    
     9    9   10 1    
    10   10   11 1    
    11   11   12 1    
    12   11   13 1    
    13   12   17 1    
    14   13   14 1    
    15   13   15 1    
    16   15   16 1    
    17   15   17 1    
    18   17   18 1    
    19   18   19 1    
    20   18   27 1    
    21   19   20 2    
    22   20   21 1    
    23   21   22 ar   
    24   21   27 ar   
    25   22   23 1    
    26   22   24 ar   
    27   24   25 ar   
    28   25   26 ar   
    29   26   27 ar   
@<TRIPOS>SUBSTRUCTURE
     1 ADP601      1 GROUP   
@<TRIPOS>SET
ATOM$ORANGE STATIC     ATOMS   COLORGROUP SYSTEM 
20 10 10 11 11 13 13 15 15 17 17 19 19 21 21 22 22 25 \
25 27 27 

