#    Name: 6gnf_1_ADP
#    Modification time : Fri May 22 19:27:54 2020

@<TRIPOS>MOLECULE
6gnf_1_ADP
   27    29     1     0     1
SMALL
NO_CHARGES


@<TRIPOS>ATOM
      1 PB        -36.5820    1.1950  -21.3730 P.3       1 ADP601      0.0000 
      2 O1B       -37.6840    1.4940  -22.3560 O.co2     1 ADP601      0.0000 
      3 O2B       -35.2620    0.8920  -22.0270 O.co2     1 ADP601      0.0000 
      4 O3B       -36.5280    2.1580  -20.2180 O.co2     1 ADP601      0.0000 
      5 PA        -36.3200   -1.6310  -20.8650 P.3       1 ADP601      0.0000 
      6 O1A       -35.8540   -1.8880  -22.2920 O.co2     1 ADP601      0.0000 
      7 O2A       -37.1950   -2.6420  -20.1360 O.co2     1 ADP601      0.0000 
      8 O3A       -37.0770   -0.2040  -20.7360 O.3       1 ADP601      0.0000 
      9 O5'       -35.0190   -1.3640  -19.9430 O.3       1 ADP601      0.0000 
     10 C5'       -35.1090   -0.6450  -18.7080 C.3       1 ADP601      0.0000 
     11 C4'       -34.0720   -1.2260  -17.7540 C.3       1 ADP601      0.0000 
     12 O4'       -33.8700   -0.3980  -16.6070 O.3       1 ADP601      0.0000 
     13 C3'       -34.5250   -2.5750  -17.2360 C.3       1 ADP601      0.0000 
     14 O3'       -33.3950   -3.4530  -17.2620 O.3       1 ADP601      0.0000 
     15 C2'       -35.0190   -2.3020  -15.8330 C.3       1 ADP601      0.0000 
     16 O2'       -34.7250   -3.4300  -15.0150 O.3       1 ADP601      0.0000 
     17 C1'       -34.2520   -1.0640  -15.4020 C.3       1 ADP601      0.0000 
     18 N9        -34.9920   -0.0790  -14.5660 N.pl3     1 ADP601      0.0000 
     19 C8        -35.9590    0.7680  -14.9790 C.2       1 ADP601      0.0000 
     20 N7        -36.3930    1.5570  -13.9580 N.2       1 ADP601      0.0000 
     21 C5        -35.6830    1.2240  -12.8660 C.ar      1 ADP601      0.0000 
     22 C6        -35.6200    1.6510  -11.4530 C.ar      1 ADP601      0.0000 
     23 N6        -36.4260    2.6220  -10.9810 N.pl3     1 ADP601      0.0000 
     24 N1        -34.7340    1.0380  -10.6400 N.ar      1 ADP601      0.0000 
     25 C2        -33.9180    0.0630  -11.0730 C.ar      1 ADP601      0.0000 
     26 N3        -33.9230   -0.3710  -12.3470 N.ar      1 ADP601      0.0000 
     27 C4        -34.7580    0.1560  -13.2740 C.ar      1 ADP601      0.0000 
@<TRIPOS>BOND
     1    1    2 ar   
     2    1    3 ar   
     3    1    4 ar   
     4    1    8 1    
     5    5    6 ar   
     6    5    7 ar   
     7    5    8 1    
     8    5    9 1    
     9    9   10 1    
    10   10   11 1    
    11   11   12 1    
    12   11   13 1    
    13   12   17 1    
    14   13   14 1    
    15   13   15 1    
    16   15   16 1    
    17   15   17 1    
    18   17   18 1    
    19   18   19 1    
    20   18   27 1    
    21   19   20 2    
    22   20   21 1    
    23   21   22 ar   
    24   21   27 ar   
    25   22   23 1    
    26   22   24 ar   
    27   24   25 ar   
    28   25   26 ar   
    29   26   27 ar   
@<TRIPOS>SUBSTRUCTURE
     1 ADP601      1 GROUP   
@<TRIPOS>SET
ATOM$ORANGE STATIC     ATOMS   COLORGROUP SYSTEM 
20 10 10 11 11 13 13 15 15 17 17 19 19 21 21 22 22 25 \
25 27 27 

