#    Name: 6gnf_1_ADP_CAVITY_N1_4
#    Modification time : Fri May 22 19:27:55 2020

@<TRIPOS>MOLECULE
6gnf_1_ADP_CAVITY_N1_4
   71     0     7     0     0
SMALL
NO_CHARGES


@<TRIPOS>ATOM
      1 OG        -31.6500   -1.7600  -12.8400 O.3       1 SER1        0.0000 
      2 OG        -30.4800   -1.1500  -12.1200 O.3       1 SER1        0.0000 
      3 N         -35.1500   -3.5900  -14.9900 N.am      2 ALA2        0.0000 
      4 N         -34.4200   -3.4700  -16.2900 N.am      2 ALA2        0.0000 
      5 N         -35.7400   -2.2300  -15.2000 N.am      2 ALA2        0.0000 
      6 N         -35.0000   -2.1000  -16.5000 N.am      2 ALA2        0.0000 
      7 N         -34.2700   -1.9800  -17.8000 N.am      2 ALA2        0.0000 
      8 N         -35.5900   -0.7400  -16.7000 N.am      2 ALA2        0.0000 
      9 O         -34.1200   -0.4900  -19.3000 O.2       2 ALA2        0.0000 
     10 O         -36.3400    2.4800  -15.0900 O.2       2 ALA2        0.0000 
     11 N         -34.8700    2.7200  -17.6900 N.am      2 ALA2        0.0000 
     12 N         -33.7100   -0.6400  -10.4400 N.am      2 ALA2        0.0000 
     13 O         -34.3000    0.7200  -10.6400 O.2       2 ALA2        0.0000 
     14 OD1       -32.5100   -2.7400  -16.8800 O.co2     3 ASP3        0.0000 
     15 OD1       -33.8400   -1.4900  -15.7800 O.co2     3 ASP3        0.0000 
     16 OD1       -33.1000   -1.3700  -17.0800 O.co2     3 ASP3        0.0000 
     17 OD1       -32.3700   -1.2500  -18.3800 O.co2     3 ASP3        0.0000 
     18 OD1       -33.6900   -0.0100  -17.2800 O.co2     3 ASP3        0.0000 
     19 OD1       -30.7600   -3.4900  -15.9600 O.co2     3 ASP3        0.0000 
     20 OD1       -32.0800   -2.2500  -14.8600 O.co2     3 ASP3        0.0000 
     21 OD1       -32.6700   -0.8800  -15.0600 O.co2     3 ASP3        0.0000 
     22 OD1       -30.9100   -1.6400  -14.1400 O.co2     3 ASP3        0.0000 
     23 NZ        -32.9400   -3.2200  -18.9000 N.4       4 LYS4        0.0000 
     24 NZ        -33.5300   -1.8600  -19.1000 N.4       4 LYS4        0.0000 
     25 CZ        -33.6800   -3.3500  -17.5900 C.ar      5 PHE5        0.0000 
     26 CZ        -33.4000   -4.3500  -14.0700 C.ar      5 PHE5        0.0000 
     27 CZ        -32.6600   -4.2200  -15.3700 C.ar      5 PHE5        0.0000 
     28 CZ        -31.9200   -4.1000  -16.6700 C.ar      5 PHE5        0.0000 
     29 CZ        -32.9600   -3.8600  -12.0500 C.ar      5 PHE5        0.0000 
     30 CZ        -32.2300   -3.7400  -13.3500 C.ar      5 PHE5        0.0000 
     31 CZ        -31.4900   -3.6100  -14.6500 C.ar      5 PHE5        0.0000 
     32 CZ        -33.4100   -1.0100  -13.7600 C.ar      5 PHE5        0.0000 
     33 CZ        -33.9900    0.3600  -13.9600 C.ar      5 PHE5        0.0000 
     34 CZ        -33.2600    0.4800  -15.2600 C.ar      5 PHE5        0.0000 
     35 CZ        -35.3200    1.6000  -12.8700 C.ar      5 PHE5        0.0000 
     36 CZ        -34.5800    1.7200  -14.1700 C.ar      5 PHE5        0.0000 
     37 CZ        -33.8500    1.8500  -15.4700 C.ar      5 PHE5        0.0000 
     38 CZ        -35.1700    3.0900  -14.3700 C.ar      5 PHE5        0.0000 
     39 CZ        -34.4300    3.2100  -15.6700 C.ar      5 PHE5        0.0000 
     40 CZ        -31.0600   -3.1300  -12.6400 C.ar      5 PHE5        0.0000 
     41 CZ        -32.9700   -0.5200  -11.7400 C.ar      5 PHE5        0.0000 
     42 CZ        -32.2400   -0.4000  -13.0400 C.ar      5 PHE5        0.0000 
     43 CZ        -31.5000   -0.2700  -14.3400 C.ar      5 PHE5        0.0000 
     44 CZ        -33.5600    0.8500  -11.9400 C.ar      5 PHE5        0.0000 
     45 CA        -34.8500   -3.9600  -18.3100 C.3       6 GLY6        0.0000 
     46 CA        -36.3300   -0.8600  -15.4000 C.3       6 GLY6        0.0000 
     47 CA        -36.9200    0.5000  -15.6000 C.3       6 GLY6        0.0000 
     48 CA        -34.7100    0.8700  -19.5100 C.3       6 GLY6        0.0000 
     49 CA        -34.7200   -3.1000  -12.9700 C.3       6 GLY6        0.0000 
     50 CA        -34.5700   -1.6200  -14.4800 C.3       6 GLY6        0.0000 
     51 CA        -35.1600   -0.2500  -14.6800 C.3       6 GLY6        0.0000 
     52 CA        -32.9500    0.1200  -18.5900 C.3       6 GLY6        0.0000 
     53 CA        -36.4900    0.9900  -13.5800 C.3       6 GLY6        0.0000 
     54 CA        -34.2800    1.3600  -17.4900 C.3       6 GLY6        0.0000 
     55 CA        -35.6000    2.6000  -16.3900 C.3       6 GLY6        0.0000 
     56 CA        -33.5500   -2.4900  -12.2600 C.3       6 GLY6        0.0000 
     57 CA        -34.8800   -1.2500  -11.1600 C.3       6 GLY6        0.0000 
     58 CA        -34.1400   -1.1300  -12.4600 C.3       6 GLY6        0.0000 
     59 CA        -35.4700    0.1100  -11.3600 C.3       6 GLY6        0.0000 
     60 CA        -34.7300    0.2300  -12.6600 C.3       6 GLY6        0.0000 
     61 CA        -33.1100    1.9700  -16.7700 C.3       6 GLY6        0.0000 
     62 CA        -35.0200    4.5800  -15.8800 C.3       6 GLY6        0.0000 
     63 CA        -31.8000   -3.2500  -11.3300 C.3       6 GLY6        0.0000 
     64 CA        -32.3900   -1.8800  -11.5400 C.3       6 GLY6        0.0000 
     65 DU        -34.8600   -0.6200  -18.0000 H         7 CUB7        0.0000 
     66 DU        -33.9800   -2.9800  -14.2700 H         7 CUB7        0.0000 
     67 DU        -33.2500   -2.8600  -15.5800 H         7 CUB7        0.0000 
     68 DU        -34.4300   -0.1300  -15.9800 H         7 CUB7        0.0000 
     69 DU        -35.7500    1.1100  -14.8800 H         7 CUB7        0.0000 
     70 DU        -35.0100    1.2400  -16.1900 H         7 CUB7        0.0000 
     71 DU        -32.8200   -2.3700  -13.5600 H         7 CUB7        0.0000 
@<TRIPOS>BOND
@<TRIPOS>SUBSTRUCTURE
     1 SER1        1 GROUP   
     2 ALA2        3 GROUP   
     3 ASP3       14 GROUP   
     4 LYS4       23 GROUP   
     5 PHE5       25 GROUP   
     6 GLY6       45 GROUP   
     7 CUB7       65 GROUP   
@<TRIPOS>SET

