#    Name: 6gnf_2_ADP
#    Modification time : Fri May 22 19:28:03 2020

@<TRIPOS>MOLECULE
6gnf_2_ADP
   27    29     1     0     1
SMALL
NO_CHARGES


@<TRIPOS>ATOM
      1 PB        -48.9360   38.7210  -70.0600 P.3       1 ADP601      0.0000 
      2 O1B       -49.8820   39.9000  -70.0630 O.co2     1 ADP601      0.0000 
      3 O2B       -47.5880   39.0280  -69.4740 O.co2     1 ADP601      0.0000 
      4 O3B       -49.5670   37.4510  -69.5480 O.co2     1 ADP601      0.0000 
      5 PA        -49.5780   38.7290  -72.7990 P.3       1 ADP601      0.0000 
      6 O1A       -49.5090   37.6070  -73.8170 O.co2     1 ADP601      0.0000 
      7 O2A       -50.9160   39.1580  -72.2400 O.co2     1 ADP601      0.0000 
      8 O3A       -48.5850   38.3530  -71.5850 O.3       1 ADP601      0.0000 
      9 O5'       -48.8880   40.0420  -73.4410 O.3       1 ADP601      0.0000 
     10 C5'       -49.0060   41.3550  -72.8730 C.3       1 ADP601      0.0000 
     11 C4'       -49.0290   42.4020  -73.9910 C.3       1 ADP601      0.0000 
     12 O4'       -48.2720   41.9620  -75.1360 O.3       1 ADP601      0.0000 
     13 C3'       -50.4460   42.6680  -74.4820 C.3       1 ADP601      0.0000 
     14 O3'       -50.6570   44.0710  -74.6630 O.3       1 ADP601      0.0000 
     15 C2'       -50.5300   41.9270  -75.8000 C.3       1 ADP601      0.0000 
     16 O2'       -51.4500   42.5220  -76.7190 O.3       1 ADP601      0.0000 
     17 C1'       -49.1040   41.9910  -76.2990 C.3       1 ADP601      0.0000 
     18 N9        -48.7860   40.8600  -77.1890 N.pl3     1 ADP601      0.0000 
     19 C8        -48.7280   39.5550  -76.8580 C.2       1 ADP601      0.0000 
     20 N7        -48.3830   38.7980  -77.9350 N.2       1 ADP601      0.0000 
     21 C5        -48.2090   39.6270  -78.9710 C.ar      1 ADP601      0.0000 
     22 C6        -47.8400   39.4940  -80.3940 C.ar      1 ADP601      0.0000 
     23 N6        -47.5810   38.2880  -80.9370 N.pl3     1 ADP601      0.0000 
     24 N1        -47.7730   40.6230  -81.1330 N.ar      1 ADP601      0.0000 
     25 C2        -48.0320   41.8420  -80.6030 C.ar      1 ADP601      0.0000 
     26 N3        -48.3720   42.0420  -79.3150 N.ar      1 ADP601      0.0000 
     27 C4        -48.4750   40.9890  -78.4730 C.ar      1 ADP601      0.0000 
@<TRIPOS>BOND
     1    1    2 ar   
     2    1    3 ar   
     3    1    4 ar   
     4    1    8 1    
     5    5    6 ar   
     6    5    7 ar   
     7    5    8 1    
     8    5    9 1    
     9    9   10 1    
    10   10   11 1    
    11   11   12 1    
    12   11   13 1    
    13   12   17 1    
    14   13   14 1    
    15   13   15 1    
    16   15   16 1    
    17   15   17 1    
    18   17   18 1    
    19   18   19 1    
    20   18   27 1    
    21   19   20 2    
    22   20   21 1    
    23   21   22 ar   
    24   21   27 ar   
    25   22   23 1    
    26   22   24 ar   
    27   24   25 ar   
    28   25   26 ar   
    29   26   27 ar   
@<TRIPOS>SUBSTRUCTURE
     1 ADP601      1 GROUP   
@<TRIPOS>SET
ATOM$ORANGE STATIC     ATOMS   COLORGROUP SYSTEM 
20 10 10 11 11 13 13 15 15 17 17 19 19 21 21 22 22 25 \
25 27 27 

