#    Name: 5olk_2_DTP
#    Modification time : Fri May 22 19:15:23 2020

@<TRIPOS>MOLECULE
5olk_2_DTP
   30    32     1     0     0
SMALL
NO_CHARGES


@<TRIPOS>ATOM
      1 PG        -70.1840   50.7690  -37.6260 P.3       1 DTP1002     0.0000 
      2 O1G       -70.7470   49.3040  -37.8660 O.co2     1 DTP1002     0.0000 
      3 O2G       -70.8510   51.4640  -36.3580 O.co2     1 DTP1002     0.0000 
      4 O3G       -68.7120   50.6840  -37.4350 O.co2     1 DTP1002     0.0000 
      5 PB        -71.6080   51.5790  -39.9980 P.3       1 DTP1002     0.0000 
      6 O1B       -71.2670   52.6270  -41.0780 O.co2     1 DTP1002     0.0000 
      7 O2B       -71.6200   50.2310  -40.5770 O.co2     1 DTP1002     0.0000 
      8 O3B       -70.5040   51.6890  -38.9110 O.3       1 DTP1002     0.0000 
      9 PA        -74.2440   51.1280  -38.8070 P.3       1 DTP1002     0.0000 
     10 O1A       -73.8350   49.6330  -38.5840 O.co2     1 DTP1002     0.0000 
     11 O2A       -74.9450   51.6380  -37.5940 O.co2     1 DTP1002     0.0000 
     12 O3A       -72.9320   51.9460  -39.2250 O.3       1 DTP1002     0.0000 
     13 O5'       -75.1730   51.1580  -40.1080 O.3       1 DTP1002     0.0000 
     14 C5'       -74.8450   50.6500  -41.3940 C.3       1 DTP1002     0.0000 
     15 C4'       -75.1270   51.7470  -42.4510 C.3       1 DTP1002     0.0000 
     16 O4'       -76.5310   51.9470  -42.4660 O.3       1 DTP1002     0.0000 
     17 C3'       -74.4960   53.1400  -42.1590 C.3       1 DTP1002     0.0000 
     18 O3'       -73.2660   53.1870  -42.8010 O.3       1 DTP1002     0.0000 
     19 C2'       -75.5040   54.0730  -42.8260 C.3       1 DTP1002     0.0000 
     20 C1'       -76.8480   53.3210  -42.6260 C.3       1 DTP1002     0.0000 
     21 N9        -77.6000   53.7780  -41.4290 N.pl3     1 DTP1002     0.0000 
     22 C8        -77.9270   53.0540  -40.2400 C.2       1 DTP1002     0.0000 
     23 N7        -78.5200   53.8230  -39.3080 N.2       1 DTP1002     0.0000 
     24 C5        -78.6000   55.1090  -39.9100 C.ar      1 DTP1002     0.0000 
     25 C6        -79.1260   56.3850  -39.4560 C.ar      1 DTP1002     0.0000 
     26 N6        -79.5550   56.5410  -38.1690 N.pl3     1 DTP1002     0.0000 
     27 N1        -79.1180   57.5090  -40.3190 N.ar      1 DTP1002     0.0000 
     28 C2        -78.5530   57.3300  -41.5710 C.ar      1 DTP1002     0.0000 
     29 N3        -77.9920   56.2000  -42.1120 N.ar      1 DTP1002     0.0000 
     30 C4        -78.0430   55.0930  -41.2420 C.ar      1 DTP1002     0.0000 
@<TRIPOS>BOND
     1    1    2 ar   
     2    1    3 ar   
     3    1    4 ar   
     4    1    8 1    
     5    5    6 ar   
     6    5    7 ar   
     7    5    8 1    
     8    5   12 1    
     9    9   10 ar   
    10    9   11 ar   
    11    9   12 1    
    12    9   13 1    
    13   13   14 1    
    14   14   15 1    
    15   15   16 1    
    16   15   17 1    
    17   16   20 1    
    18   17   18 1    
    19   17   19 1    
    20   19   20 1    
    21   20   21 1    
    22   21   22 1    
    23   21   30 1    
    24   22   23 2    
    25   23   24 1    
    26   24   25 ar   
    27   24   30 ar   
    28   25   26 1    
    29   25   27 ar   
    30   27   28 ar   
    31   28   29 ar   
    32   29   30 ar   
@<TRIPOS>SUBSTRUCTURE
     1 DTP1002     1 GROUP   
@<TRIPOS>SET

