#    Name: 5olk_1_DTP_CAVITY_N1_4
#    Modification time : Fri May 22 19:15:19 2020

@<TRIPOS>MOLECULE
5olk_1_DTP_CAVITY_N1_4
   14     0     4     0     0
SMALL
NO_CHARGES


@<TRIPOS>ATOM
      1 O         -77.0300   47.4800  -40.6300 O.2       1 ALA2        0.0000 
      2 O         -73.0200   50.8600  -42.6400 O.2       1 ALA2        0.0000 
      3 OD1       -74.4700   47.3400  -40.2300 O.co2     2 ASP3        0.0000 
      4 OD1       -75.1900   48.5200  -40.8100 O.co2     2 ASP3        0.0000 
      5 OD1       -72.3000   49.6800  -42.0600 O.co2     2 ASP3        0.0000 
      6 OD1       -73.3500   49.5600  -40.9900 O.co2     2 ASP3        0.0000 
      7 OD1       -74.0800   50.7400  -41.5800 O.co2     2 ASP3        0.0000 
      8 OD1       -74.4100   49.4400  -39.9300 O.co2     2 ASP3        0.0000 
      9 OD1       -75.1300   50.6200  -40.5200 O.co2     2 ASP3        0.0000 
     10 OD1       -75.4600   49.3300  -38.8700 O.co2     2 ASP3        0.0000 
     11 OD1       -71.5100   50.6000  -41.1700 O.co2     2 ASP3        0.0000 
     12 CA        -74.8600   49.8100  -42.4600 C.3       3 GLY6        0.0000 
     13 CA        -75.9200   49.7000  -41.4000 C.3       3 GLY6        0.0000 
     14 DU        -76.2500   48.4000  -39.7500 H         4 CUB7        0.0000 
@<TRIPOS>BOND
@<TRIPOS>SUBSTRUCTURE
     1 ALA2        1 GROUP   
     2 ASP3        3 GROUP   
     3 GLY6       12 GROUP   
     4 CUB7       14 GROUP   
@<TRIPOS>SET

