#    Name: 5olk_6_DTP_CAVITY_N1_4
#    Modification time : Fri May 22 19:15:41 2020

@<TRIPOS>MOLECULE
5olk_6_DTP_CAVITY_N1_4
   67     0     5     0     0
SMALL
NO_CHARGES


@<TRIPOS>ATOM
      1 N         -36.0100   85.4600   23.3000 N.am      1 ALA2        0.0000 
      2 O         -33.1800   90.3900   18.1800 O.2       1 ALA2        0.0000 
      3 O         -33.9100   91.5600   17.5900 O.2       1 ALA2        0.0000 
      4 O         -32.3900   91.3100   19.0600 O.2       1 ALA2        0.0000 
      5 O         -33.1200   92.4900   18.4700 O.2       1 ALA2        0.0000 
      6 N         -33.0500   88.7200   22.3500 N.am      1 ALA2        0.0000 
      7 N         -33.7800   89.9000   21.7700 N.am      1 ALA2        0.0000 
      8 N         -34.8300   89.7800   22.8300 N.am      1 ALA2        0.0000 
      9 N         -32.3300   93.4100   19.3500 N.am      1 ALA2        0.0000 
     10 N         -33.0600   94.5900   18.7700 N.am      1 ALA2        0.0000 
     11 OD1       -35.4200   91.8200   16.1200 O.co2     2 ASP3        0.0000 
     12 OD1       -37.5200   91.5800   18.2500 O.co2     2 ASP3        0.0000 
     13 OD1       -34.6300   92.7400   17.0000 O.co2     2 ASP3        0.0000 
     14 OD1       -34.9600   91.4500   18.6500 O.co2     2 ASP3        0.0000 
     15 OD1       -36.0100   91.3300   19.7100 O.co2     2 ASP3        0.0000 
     16 OD1       -33.8400   93.6600   17.8800 O.co2     2 ASP3        0.0000 
     17 OD1       -35.2900   96.0200   16.7100 O.co2     2 ASP3        0.0000 
     18 OD1       -34.8900   93.5500   18.9500 O.co2     2 ASP3        0.0000 
     19 OD1       -35.9500   93.4300   20.0100 O.co2     2 ASP3        0.0000 
     20 OD1       -36.6700   94.6000   19.4200 O.co2     2 ASP3        0.0000 
     21 OD1       -33.7800   95.7600   18.1800 O.co2     2 ASP3        0.0000 
     22 OD1       -34.8300   95.6500   19.2400 O.co2     2 ASP3        0.0000 
     23 CZ        -33.9600   83.6000   20.8800 C.ar      3 PHE5        0.0000 
     24 CZ        -35.0200   83.4800   21.9400 C.ar      3 PHE5        0.0000 
     25 CZ        -35.7400   84.6600   21.3600 C.ar      3 PHE5        0.0000 
     26 CZ        -33.9700   89.4600   17.2900 C.ar      3 PHE5        0.0000 
     27 CZ        -35.7400   90.5200   17.7700 C.ar      3 PHE5        0.0000 
     28 CZ        -33.9000   85.7000   21.1800 C.ar      3 PHE5        0.0000 
     29 CZ        -34.9500   85.5800   22.2400 C.ar      3 PHE5        0.0000 
     30 CZ        -35.6800   86.7600   21.6500 C.ar      3 PHE5        0.0000 
     31 CZ        -36.4000   87.9300   21.0700 C.ar      3 PHE5        0.0000 
     32 CZ        -31.7300   88.0400   19.3500 C.ar      3 PHE5        0.0000 
     33 CZ        -32.4600   89.2100   18.7600 C.ar      3 PHE5        0.0000 
     34 CZ        -32.7900   87.9200   20.4100 C.ar      3 PHE5        0.0000 
     35 CZ        -33.5100   89.0900   19.8200 C.ar      3 PHE5        0.0000 
     36 CZ        -34.2300   90.2700   19.2400 C.ar      3 PHE5        0.0000 
     37 CZ        -33.8400   87.8000   21.4700 C.ar      3 PHE5        0.0000 
     38 CZ        -34.5600   88.9800   20.8900 C.ar      3 PHE5        0.0000 
     39 CZ        -35.2900   90.1500   20.3000 C.ar      3 PHE5        0.0000 
     40 CZ        -31.6700   90.1400   19.6400 C.ar      3 PHE5        0.0000 
     41 CZ        -32.0000   88.8400   21.2900 C.ar      3 PHE5        0.0000 
     42 CZ        -32.7200   90.0200   20.7100 C.ar      3 PHE5        0.0000 
     43 CA        -36.2000   90.8900   15.2400 C.3       4 GLY6        0.0000 
     44 CA        -36.5300   89.6000   16.8900 C.3       4 GLY6        0.0000 
     45 CA        -34.2900   82.3100   22.5300 C.3       4 GLY6        0.0000 
     46 CA        -36.0700   83.3600   23.0000 C.3       4 GLY6        0.0000 
     47 CA        -34.6900   90.6400   16.7100 C.3       4 GLY6        0.0000 
     48 CA        -32.4500   83.3500   22.3500 C.3       4 GLY6        0.0000 
     49 CA        -33.1800   84.5200   21.7600 C.3       4 GLY6        0.0000 
     50 CA        -33.5100   83.2300   23.4100 C.3       4 GLY6        0.0000 
     51 CA        -34.2300   84.4100   22.8200 C.3       4 GLY6        0.0000 
     52 CA        -32.0600   86.7400   21.0000 C.3       4 GLY6        0.0000 
     53 CA        -32.3900   85.4500   22.6400 C.3       4 GLY6        0.0000 
     54 CA        -33.1200   86.6200   22.0600 C.3       4 GLY6        0.0000 
     55 CA        -34.1700   86.5100   23.1200 C.3       4 GLY6        0.0000 
     56 CA        -34.8900   87.6800   22.5300 C.3       4 GLY6        0.0000 
     57 CA        -35.6200   88.8600   21.9500 C.3       4 GLY6        0.0000 
     58 CA        -33.4500   91.1900   20.1200 C.3       4 GLY6        0.0000 
     59 CA        -34.1700   92.3700   19.5300 C.3       4 GLY6        0.0000 
     60 CA        -34.5000   91.0800   21.1800 C.3       4 GLY6        0.0000 
     61 CA        -35.2200   92.2500   20.6000 C.3       4 GLY6        0.0000 
     62 CA        -35.5500   90.9600   22.2400 C.3       4 GLY6        0.0000 
     63 CA        -36.2800   92.1300   21.6600 C.3       4 GLY6        0.0000 
     64 CA        -33.3800   93.2900   20.4200 C.3       4 GLY6        0.0000 
     65 CA        -34.1100   94.4700   19.8300 C.3       4 GLY6        0.0000 
     66 CA        -35.1600   94.3500   20.8900 C.3       4 GLY6        0.0000 
     67 DU        -36.3400   90.0300   21.3600 H         5 CUB7        0.0000 
@<TRIPOS>BOND
@<TRIPOS>SUBSTRUCTURE
     1 ALA2        1 GROUP   
     2 ASP3       11 GROUP   
     3 PHE5       23 GROUP   
     4 GLY6       43 GROUP   
     5 CUB7       67 GROUP   
@<TRIPOS>SET

