#    Name: 5olk_8_DTP
#    Modification time : Fri May 22 19:15:50 2020

@<TRIPOS>MOLECULE
5olk_8_DTP
   30    32     1     0     0
SMALL
NO_CHARGES


@<TRIPOS>ATOM
      1 PG        -67.7950   78.6320  -46.3990 P.3       1 DTP1002     0.0000 
      2 O1G       -66.4500   78.5480  -47.1810 O.co2     1 DTP1002     0.0000 
      3 O2G       -67.6460   78.5170  -44.8320 O.co2     1 DTP1002     0.0000 
      4 O3G       -68.4120   79.9550  -46.7860 O.co2     1 DTP1002     0.0000 
      5 PB        -69.2740   76.9160  -48.1480 P.3       1 DTP1002     0.0000 
      6 O1B       -70.1070   78.0260  -48.6620 O.co2     1 DTP1002     0.0000 
      7 O2B       -70.1540   75.6820  -47.8560 O.co2     1 DTP1002     0.0000 
      8 O3B       -68.6420   77.3260  -46.7910 O.3       1 DTP1002     0.0000 
      9 PA        -67.4360   77.2930  -50.4210 P.3       1 DTP1002     0.0000 
     10 O1A       -65.9790   77.0970  -50.6490 O.co2     1 DTP1002     0.0000 
     11 O2A       -67.7290   78.8390  -50.3370 O.co2     1 DTP1002     0.0000 
     12 O3A       -68.0320   76.5910  -49.0870 O.3       1 DTP1002     0.0000 
     13 O5'       -68.3150   76.7070  -51.6620 O.3       1 DTP1002     0.0000 
     14 C5'       -69.7190   76.8190  -51.8160 C.3       1 DTP1002     0.0000 
     15 C4'       -70.3300   75.4090  -52.0510 C.3       1 DTP1002     0.0000 
     16 O4'       -69.8690   74.9520  -53.3270 O.3       1 DTP1002     0.0000 
     17 C3'       -69.9010   74.3100  -51.0230 C.3       1 DTP1002     0.0000 
     18 O3'       -70.8600   74.2810  -50.0320 O.3       1 DTP1002     0.0000 
     19 C2'       -69.9560   73.0390  -51.8820 C.3       1 DTP1002     0.0000 
     20 C1'       -69.5490   73.5680  -53.2860 C.3       1 DTP1002     0.0000 
     21 N9        -68.1000   73.4120  -53.5600 N.pl3     1 DTP1002     0.0000 
     22 C8        -67.0940   74.4130  -53.7650 C.2       1 DTP1002     0.0000 
     23 N7        -65.8630   73.8990  -53.8980 N.2       1 DTP1002     0.0000 
     24 C5        -66.0590   72.4910  -53.7850 C.ar      1 DTP1002     0.0000 
     25 C6        -65.1590   71.3790  -53.8310 C.ar      1 DTP1002     0.0000 
     26 N6        -63.8070   71.5920  -53.8620 N.pl3     1 DTP1002     0.0000 
     27 N1        -65.6550   70.0660  -53.7360 N.ar      1 DTP1002     0.0000 
     28 C2        -67.0160   69.9110  -53.5630 C.ar      1 DTP1002     0.0000 
     29 N3        -67.9730   70.8680  -53.4680 N.ar      1 DTP1002     0.0000 
     30 C4        -67.4460   72.1660  -53.5900 C.ar      1 DTP1002     0.0000 
@<TRIPOS>BOND
     1    1    2 ar   
     2    1    3 ar   
     3    1    4 ar   
     4    1    8 1    
     5    5    6 ar   
     6    5    7 ar   
     7    5    8 1    
     8    5   12 1    
     9    9   10 ar   
    10    9   11 ar   
    11    9   12 1    
    12    9   13 1    
    13   13   14 1    
    14   14   15 1    
    15   15   16 1    
    16   15   17 1    
    17   16   20 1    
    18   17   18 1    
    19   17   19 1    
    20   19   20 1    
    21   20   21 1    
    22   21   22 1    
    23   21   30 1    
    24   22   23 2    
    25   23   24 1    
    26   24   25 ar   
    27   24   30 ar   
    28   25   26 1    
    29   25   27 ar   
    30   27   28 ar   
    31   28   29 ar   
    32   29   30 ar   
@<TRIPOS>SUBSTRUCTURE
     1 DTP1002     1 GROUP   
@<TRIPOS>SET

