#    Name: 5olk_5_DTP
#    Modification time : Fri May 22 19:15:34 2020

@<TRIPOS>MOLECULE
5olk_5_DTP
   30    32     1     0     0
SMALL
NO_CHARGES


@<TRIPOS>ATOM
      1 PG        -39.2990   96.8310   16.2110 P.3       1 DTP1001     0.0000 
      2 O1G       -40.1750   96.9840   14.9920 O.co2     1 DTP1001     0.0000 
      3 O2G       -39.1150   95.2570   16.5550 O.co2     1 DTP1001     0.0000 
      4 O3G       -39.9160   97.6690   17.4120 O.co2     1 DTP1001     0.0000 
      5 PB        -36.4620   97.1640   16.3570 P.3       1 DTP1001     0.0000 
      6 O1B       -35.3850   98.0360   15.7780 O.co2     1 DTP1001     0.0000 
      7 O2B       -36.2510   95.6580   15.9510 O.co2     1 DTP1001     0.0000 
      8 O3B       -37.8910   97.5260   15.9350 O.3       1 DTP1001     0.0000 
      9 PA        -36.1360   96.2370   19.1200 P.3       1 DTP1001     0.0000 
     10 O1A       -36.6620   94.8240   18.6470 O.co2     1 DTP1001     0.0000 
     11 O2A       -36.7970   96.7080   20.3330 O.co2     1 DTP1001     0.0000 
     12 O3A       -36.4310   97.2790   17.9440 O.3       1 DTP1001     0.0000 
     13 O5'       -34.5670   96.0700   19.3260 O.3       1 DTP1001     0.0000 
     14 C5'       -33.6550   95.3770   18.5050 C.3       1 DTP1001     0.0000 
     15 C4'       -32.2120   95.9590   18.7710 C.3       1 DTP1001     0.0000 
     16 O4'       -32.1570   97.2840   18.2920 O.3       1 DTP1001     0.0000 
     17 C3'       -31.7620   95.9870   20.2670 C.3       1 DTP1001     0.0000 
     18 O3'       -30.3820   95.7080   20.2840 O.3       1 DTP1001     0.0000 
     19 C2'       -31.9630   97.4520   20.6480 C.3       1 DTP1001     0.0000 
     20 C1'       -31.8060   98.1930   19.3170 C.3       1 DTP1001     0.0000 
     21 N9        -32.7290   99.3210   19.2370 N.pl3     1 DTP1001     0.0000 
     22 C8        -33.8980   99.5020   18.4020 C.2       1 DTP1001     0.0000 
     23 N7        -34.4810  100.7010   18.5730 N.2       1 DTP1001     0.0000 
     24 C5        -33.6770  101.3460   19.5490 C.ar      1 DTP1001     0.0000 
     25 C6        -33.7280  102.6470   20.1630 C.ar      1 DTP1001     0.0000 
     26 N6        -34.6810  103.5230   19.8450 N.pl3     1 DTP1001     0.0000 
     27 N1        -32.7850  103.0220   21.1100 N.ar      1 DTP1001     0.0000 
     28 C2        -31.8240  102.0830   21.4380 C.ar      1 DTP1001     0.0000 
     29 N3        -31.6420  100.8190   20.9550 N.ar      1 DTP1001     0.0000 
     30 C4        -32.5910  100.4850   19.9840 C.ar      1 DTP1001     0.0000 
@<TRIPOS>BOND
     1    1    2 ar   
     2    1    3 ar   
     3    1    4 ar   
     4    1    8 1    
     5    5    6 ar   
     6    5    7 ar   
     7    5    8 1    
     8    5   12 1    
     9    9   10 ar   
    10    9   11 ar   
    11    9   12 1    
    12    9   13 1    
    13   13   14 1    
    14   14   15 1    
    15   15   16 1    
    16   15   17 1    
    17   16   20 1    
    18   17   18 1    
    19   17   19 1    
    20   19   20 1    
    21   20   21 1    
    22   21   22 1    
    23   21   30 1    
    24   22   23 2    
    25   23   24 1    
    26   24   25 ar   
    27   24   30 ar   
    28   25   26 1    
    29   25   27 ar   
    30   27   28 ar   
    31   28   29 ar   
    32   29   30 ar   
@<TRIPOS>SUBSTRUCTURE
     1 DTP1001     1 GROUP   
@<TRIPOS>SET

