#    Name: 5olk_7_DTP
#    Modification time : Fri May 22 19:15:45 2020

@<TRIPOS>MOLECULE
5olk_7_DTP
   30    32     1     0     0
SMALL
NO_CHARGES


@<TRIPOS>ATOM
      1 PG        -69.1150   83.7780  -48.8840 P.3       1 DTP1001     0.0000 
      2 O1G       -68.9750   84.7150  -50.1470 O.co2     1 DTP1001     0.0000 
      3 O2G       -68.3720   82.3810  -49.0870 O.co2     1 DTP1001     0.0000 
      4 O3G       -68.5240   84.4450  -47.6870 O.co2     1 DTP1001     0.0000 
      5 PB        -71.6360   82.4080  -49.1050 P.3       1 DTP1001     0.0000 
      6 O1B       -73.0270   82.5560  -48.6060 O.co2     1 DTP1001     0.0000 
      7 O2B       -70.9910   81.0860  -48.5770 O.co2     1 DTP1001     0.0000 
      8 O3B       -70.6840   83.5530  -48.6940 O.3       1 DTP1001     0.0000 
      9 PA        -71.1760   81.2880  -51.7800 P.3       1 DTP1001     0.0000 
     10 O1A       -70.8190   81.9400  -53.0450 O.co2     1 DTP1001     0.0000 
     11 O2A       -69.9380   80.5040  -51.1990 O.co2     1 DTP1001     0.0000 
     12 O3A       -71.6070   82.3690  -50.6930 O.3       1 DTP1001     0.0000 
     13 O5'       -72.3430   80.2310  -51.9770 O.3       1 DTP1001     0.0000 
     14 C5'       -72.7440   79.1880  -51.1020 C.3       1 DTP1001     0.0000 
     15 C4'       -74.2380   78.8150  -51.4530 C.3       1 DTP1001     0.0000 
     16 O4'       -75.0930   79.8930  -51.1070 O.3       1 DTP1001     0.0000 
     17 C3'       -74.4980   78.4780  -52.9660 C.3       1 DTP1001     0.0000 
     18 O3'       -75.4290   77.4420  -52.9720 O.3       1 DTP1001     0.0000 
     19 C2'       -75.1480   79.7500  -53.4950 C.3       1 DTP1001     0.0000 
     20 C1'       -75.7950   80.3660  -52.2280 C.3       1 DTP1001     0.0000 
     21 N9        -75.6740   81.8350  -52.2460 N.pl3     1 DTP1001     0.0000 
     22 C8        -74.9030   82.6980  -51.4260 C.2       1 DTP1001     0.0000 
     23 N7        -75.0870   83.9880  -51.7170 N.2       1 DTP1001     0.0000 
     24 C5        -76.0110   83.9890  -52.7680 C.ar      1 DTP1001     0.0000 
     25 C6        -76.6330   85.0440  -53.5140 C.ar      1 DTP1001     0.0000 
     26 N6        -76.3520   86.3370  -53.2560 N.pl3     1 DTP1001     0.0000 
     27 N1        -77.5530   84.7530  -54.5160 N.ar      1 DTP1001     0.0000 
     28 C2        -77.8160   83.4210  -54.7510 C.ar      1 DTP1001     0.0000 
     29 N3        -77.2960   82.3190  -54.1310 N.ar      1 DTP1001     0.0000 
     30 C4        -76.3880   82.6580  -53.1230 C.ar      1 DTP1001     0.0000 
@<TRIPOS>BOND
     1    1    2 ar   
     2    1    3 ar   
     3    1    4 ar   
     4    1    8 1    
     5    5    6 ar   
     6    5    7 ar   
     7    5    8 1    
     8    5   12 1    
     9    9   10 ar   
    10    9   11 ar   
    11    9   12 1    
    12    9   13 1    
    13   13   14 1    
    14   14   15 1    
    15   15   16 1    
    16   15   17 1    
    17   16   20 1    
    18   17   18 1    
    19   17   19 1    
    20   19   20 1    
    21   20   21 1    
    22   21   22 1    
    23   21   30 1    
    24   22   23 2    
    25   23   24 1    
    26   24   25 ar   
    27   24   30 ar   
    28   25   26 1    
    29   25   27 ar   
    30   27   28 ar   
    31   28   29 ar   
    32   29   30 ar   
@<TRIPOS>SUBSTRUCTURE
     1 DTP1001     1 GROUP   
@<TRIPOS>SET

