#    Name: 5olk_1_DTP
#    Modification time : Fri May 22 19:15:18 2020

@<TRIPOS>MOLECULE
5olk_1_DTP
   30    32     1     0     0
SMALL
NO_CHARGES


@<TRIPOS>ATOM
      1 PG        -71.0140   45.2060  -37.8390 P.3       1 DTP1001     0.0000 
      2 O1G       -71.8080   46.6000  -37.7800 O.co2     1 DTP1001     0.0000 
      3 O2G       -69.7050   45.3240  -36.9660 O.co2     1 DTP1001     0.0000 
      4 O3G       -71.9020   44.1120  -37.3340 O.co2     1 DTP1001     0.0000 
      5 PB        -70.7290   45.6490  -40.6750 P.3       1 DTP1001     0.0000 
      6 O1B       -69.8070   45.3000  -41.7700 O.co2     1 DTP1001     0.0000 
      7 O2B       -70.7080   47.1670  -40.3470 O.co2     1 DTP1001     0.0000 
      8 O3B       -70.4800   44.9230  -39.3220 O.3       1 DTP1001     0.0000 
      9 PA        -73.5790   46.0880  -41.2690 P.3       1 DTP1001     0.0000 
     10 O1A       -74.7180   45.2350  -41.0270 O.co2     1 DTP1001     0.0000 
     11 O2A       -73.5880   47.3200  -40.2650 O.co2     1 DTP1001     0.0000 
     12 O3A       -72.2290   45.2670  -41.0420 O.3       1 DTP1001     0.0000 
     13 O5'       -73.5730   46.7250  -42.7210 O.3       1 DTP1001     0.0000 
     14 C5'       -72.8160   47.8370  -43.2020 C.3       1 DTP1001     0.0000 
     15 C4'       -72.7500   47.7140  -44.7650 C.3       1 DTP1001     0.0000 
     16 O4'       -71.9620   46.5970  -45.1160 O.3       1 DTP1001     0.0000 
     17 C3'       -74.1270   47.5540  -45.4890 C.3       1 DTP1001     0.0000 
     18 O3'       -74.0200   48.2800  -46.6790 O.3       1 DTP1001     0.0000 
     19 C2'       -74.1600   46.0700  -45.8130 C.3       1 DTP1001     0.0000 
     20 C1'       -72.6910   45.6790  -45.8990 C.3       1 DTP1001     0.0000 
     21 N9        -72.4720   44.3330  -45.3230 N.pl3     1 DTP1001     0.0000 
     22 C8        -71.7810   43.9470  -44.1480 C.2       1 DTP1001     0.0000 
     23 N7        -71.7390   42.6290  -43.9760 N.2       1 DTP1001     0.0000 
     24 C5        -72.4290   42.1130  -45.0770 C.ar      1 DTP1001     0.0000 
     25 C6        -72.7190   40.7720  -45.4930 C.ar      1 DTP1001     0.0000 
     26 N6        -72.3160   39.7110  -44.7430 N.pl3     1 DTP1001     0.0000 
     27 N1        -73.4190   40.5390  -46.6660 N.ar      1 DTP1001     0.0000 
     28 C2        -73.8160   41.6440  -47.3820 C.ar      1 DTP1001     0.0000 
     29 N3        -73.6130   42.9690  -47.1120 N.ar      1 DTP1001     0.0000 
     30 C4        -72.9000   43.1530  -45.9250 C.ar      1 DTP1001     0.0000 
@<TRIPOS>BOND
     1    1    2 ar   
     2    1    3 ar   
     3    1    4 ar   
     4    1    8 1    
     5    5    6 ar   
     6    5    7 ar   
     7    5    8 1    
     8    5   12 1    
     9    9   10 ar   
    10    9   11 ar   
    11    9   12 1    
    12    9   13 1    
    13   13   14 1    
    14   14   15 1    
    15   15   16 1    
    16   15   17 1    
    17   16   20 1    
    18   17   18 1    
    19   17   19 1    
    20   19   20 1    
    21   20   21 1    
    22   21   22 1    
    23   21   30 1    
    24   22   23 2    
    25   23   24 1    
    26   24   25 ar   
    27   24   30 ar   
    28   25   26 1    
    29   25   27 ar   
    30   27   28 ar   
    31   28   29 ar   
    32   29   30 ar   
@<TRIPOS>SUBSTRUCTURE
     1 DTP1001     1 GROUP   
@<TRIPOS>SET

