#    Name: 5olk_1_DTP_CAVITY_N1_12
#    Modification time : Fri May 22 19:15:19 2020

@<TRIPOS>MOLECULE
5olk_1_DTP_CAVITY_N1_12
   71     0     6     0     0
SMALL
NO_CHARGES


@<TRIPOS>ATOM
      1 OG        -75.4000   51.4300  -38.5700 O.3       1 SER1        0.0000 
      2 OG        -77.1700   52.4800  -38.1000 O.3       1 SER1        0.0000 
      3 OG        -78.9500   53.5400  -37.6200 O.3       1 SER1        0.0000 
      4 O         -77.0300   47.4800  -40.6300 O.2       2 ALA2        0.0000 
      5 N         -77.3600   52.0500  -42.5700 N.am      2 ALA2        0.0000 
      6 N         -78.0200   49.4600  -39.2700 N.am      2 ALA2        0.0000 
      7 O         -73.0200   50.8600  -42.6400 O.2       2 ALA2        0.0000 
      8 O         -74.8000   51.9100  -42.1700 O.2       2 ALA2        0.0000 
      9 N         -77.3000   54.1500  -42.2800 N.am      2 ALA2        0.0000 
     10 O         -78.3500   54.0300  -41.2100 O.2       2 ALA2        0.0000 
     11 N         -77.2300   50.3800  -38.3900 N.am      2 ALA2        0.0000 
     12 O         -72.2400   51.7800  -41.7600 O.2       2 ALA2        0.0000 
     13 O         -72.9600   52.9600  -42.3500 O.2       2 ALA2        0.0000 
     14 N         -79.3400   56.0100  -39.8600 N.am      2 ALA2        0.0000 
     15 N         -80.4000   55.8900  -38.7900 N.am      2 ALA2        0.0000 
     16 OD1       -74.4700   47.3400  -40.2300 O.co2     3 ASP3        0.0000 
     17 OD1       -75.1900   48.5200  -40.8100 O.co2     3 ASP3        0.0000 
     18 OD1       -72.3000   49.6800  -42.0600 O.co2     3 ASP3        0.0000 
     19 OD1       -73.3500   49.5600  -40.9900 O.co2     3 ASP3        0.0000 
     20 OD1       -74.0800   50.7400  -41.5800 O.co2     3 ASP3        0.0000 
     21 OD1       -74.4100   49.4400  -39.9300 O.co2     3 ASP3        0.0000 
     22 OD1       -75.1300   50.6200  -40.5200 O.co2     3 ASP3        0.0000 
     23 OD1       -75.4600   49.3300  -38.8700 O.co2     3 ASP3        0.0000 
     24 OD1       -71.5100   50.6000  -41.1700 O.co2     3 ASP3        0.0000 
     25 OD1       -73.2900   51.6600  -40.7000 O.co2     3 ASP3        0.0000 
     26 OD1       -71.7800   51.4100  -39.2300 O.co2     3 ASP3        0.0000 
     27 OD1       -72.8300   51.2900  -38.1700 O.co2     3 ASP3        0.0000 
     28 OD1       -70.2700   51.1600  -37.7600 O.co2     3 ASP3        0.0000 
     29 CZ        -76.3100   52.1700  -43.6300 C.ar      4 PHE5        0.0000 
     30 CZ        -74.4700   53.2100  -43.8100 C.ar      4 PHE5        0.0000 
     31 CZ        -75.5200   53.0900  -42.7500 C.ar      4 PHE5        0.0000 
     32 CZ        -76.2500   54.2700  -43.3400 C.ar      4 PHE5        0.0000 
     33 CZ        -75.8500   51.8000  -41.1000 C.ar      4 PHE5        0.0000 
     34 CZ        -76.5800   52.9700  -41.6900 C.ar      4 PHE5        0.0000 
     35 CZ        -76.9100   51.6800  -40.0400 C.ar      4 PHE5        0.0000 
     36 CZ        -77.6300   52.8500  -40.6300 C.ar      4 PHE5        0.0000 
     37 CZ        -74.0100   52.8400  -41.2800 C.ar      4 PHE5        0.0000 
     38 CZ        -74.7400   54.0100  -41.8700 C.ar      4 PHE5        0.0000 
     39 CZ        -75.4600   55.1900  -42.4600 C.ar      4 PHE5        0.0000 
     40 CZ        -74.3400   51.5400  -39.6400 C.ar      4 PHE5        0.0000 
     41 CZ        -75.0700   52.7200  -40.2200 C.ar      4 PHE5        0.0000 
     42 CZ        -76.1200   52.6000  -39.1600 C.ar      4 PHE5        0.0000 
     43 CZ        -77.5700   54.9500  -40.3300 C.ar      4 PHE5        0.0000 
     44 CZ        -78.2900   56.1300  -40.9200 C.ar      4 PHE5        0.0000 
     45 CZ        -77.9000   53.6600  -38.6800 C.ar      4 PHE5        0.0000 
     46 CZ        -78.6200   54.8400  -39.2700 C.ar      4 PHE5        0.0000 
     47 CZ        -73.2300   53.7600  -40.4000 C.ar      4 PHE5        0.0000 
     48 CZ        -73.5600   52.4700  -38.7500 C.ar      4 PHE5        0.0000 
     49 CZ        -78.5600   56.9300  -38.9700 C.ar      4 PHE5        0.0000 
     50 CZ        -79.6100   56.8200  -37.9100 C.ar      4 PHE5        0.0000 
     51 CA        -74.8600   49.8100  -42.4600 C.3       5 GLY6        0.0000 
     52 CA        -75.5900   50.9900  -43.0500 C.3       5 GLY6        0.0000 
     53 CA        -75.9200   49.7000  -41.4000 C.3       5 GLY6        0.0000 
     54 CA        -76.6400   50.8700  -41.9900 C.3       5 GLY6        0.0000 
     55 CA        -76.9700   49.5800  -40.3400 C.3       5 GLY6        0.0000 
     56 CA        -77.6900   50.7500  -40.9200 C.3       5 GLY6        0.0000 
     57 CA        -78.0200   55.3200  -42.8600 C.3       5 GLY6        0.0000 
     58 CA        -79.0800   55.2100  -41.8000 C.3       5 GLY6        0.0000 
     59 CA        -77.9600   51.5600  -38.9800 C.3       5 GLY6        0.0000 
     60 CA        -78.6800   52.7400  -39.5700 C.3       5 GLY6        0.0000 
     61 CA        -79.4100   53.9100  -40.1500 C.3       5 GLY6        0.0000 
     62 CA        -80.1300   55.0900  -40.7400 C.3       5 GLY6        0.0000 
     63 CA        -79.0100   51.4400  -37.9200 C.3       5 GLY6        0.0000 
     64 CA        -73.6900   54.1300  -42.9300 C.3       5 GLY6        0.0000 
     65 CA        -71.4500   52.7000  -40.8800 C.3       5 GLY6        0.0000 
     66 CA        -72.1800   53.8800  -41.4600 C.3       5 GLY6        0.0000 
     67 CA        -72.5000   52.5900  -39.8200 C.3       5 GLY6        0.0000 
     68 CA        -70.9900   52.3300  -38.3500 C.3       5 GLY6        0.0000 
     69 CA        -72.0500   52.2200  -37.2900 C.3       5 GLY6        0.0000 
     70 DU        -76.2500   48.4000  -39.7500 H         6 CUB7        0.0000 
     71 DU        -76.1800   50.5000  -39.4600 H         6 CUB7        0.0000 
@<TRIPOS>BOND
@<TRIPOS>SUBSTRUCTURE
     1 SER1        1 GROUP   
     2 ALA2        4 GROUP   
     3 ASP3       16 GROUP   
     4 PHE5       29 GROUP   
     5 GLY6       51 GROUP   
     6 CUB7       70 GROUP   
@<TRIPOS>SET

