#    Name: 5olk_6_DTP
#    Modification time : Fri May 22 19:15:39 2020

@<TRIPOS>MOLECULE
5olk_6_DTP
   30    32     1     0     0
SMALL
NO_CHARGES


@<TRIPOS>ATOM
      1 PG        -37.3550   91.5420   14.1810 P.3       1 DTP1002     0.0000 
      2 O1G       -37.3410   91.8430   12.7170 O.co2     1 DTP1002     0.0000 
      3 O2G       -38.4160   90.3530   14.4530 O.co2     1 DTP1002     0.0000 
      4 O3G       -37.7000   92.8870   14.9980 O.co2     1 DTP1002     0.0000 
      5 PB        -35.1000   91.2540   15.9230 P.3       1 DTP1002     0.0000 
      6 O1B       -33.6630   90.7400   15.6880 O.co2     1 DTP1002     0.0000 
      7 O2B       -35.1210   92.6720   16.3220 O.co2     1 DTP1002     0.0000 
      8 O3B       -35.8730   91.0320   14.5980 O.3       1 DTP1002     0.0000 
      9 PA        -36.8270   90.6470   18.2670 P.3       1 DTP1002     0.0000 
     10 O1A       -37.4930   92.0540   18.0870 O.co2     1 DTP1002     0.0000 
     11 O2A       -37.8530   89.6250   18.5340 O.co2     1 DTP1002     0.0000 
     12 O3A       -35.9210   90.3290   16.9720 O.3       1 DTP1002     0.0000 
     13 O5'       -35.7740   90.8200   19.4840 O.3       1 DTP1002     0.0000 
     14 C5'       -34.7070   91.7560   19.5570 C.3       1 DTP1002     0.0000 
     15 C4'       -33.3750   91.0050   19.8520 C.3       1 DTP1002     0.0000 
     16 O4'       -33.4830   90.4810   21.1640 O.3       1 DTP1002     0.0000 
     17 C3'       -33.0500   89.7860   18.9300 C.3       1 DTP1002     0.0000 
     18 O3'       -32.2680   90.2650   17.9170 O.3       1 DTP1002     0.0000 
     19 C2'       -32.2450   88.8790   19.8850 C.3       1 DTP1002     0.0000 
     20 C1'       -32.9020   89.1860   21.2620 C.3       1 DTP1002     0.0000 
     21 N9        -33.9750   88.2310   21.6220 N.pl3     1 DTP1002     0.0000 
     22 C8        -35.3800   88.4500   21.7860 C.2       1 DTP1002     0.0000 
     23 N7        -36.0620   87.3090   22.0100 N.2       1 DTP1002     0.0000 
     24 C5        -35.0540   86.2950   22.0110 C.ar      1 DTP1002     0.0000 
     25 C6        -35.1010   84.8830   22.2050 C.ar      1 DTP1002     0.0000 
     26 N6        -36.3120   84.2350   22.3070 N.pl3     1 DTP1002     0.0000 
     27 N1        -33.9220   84.1320   22.2260 N.ar      1 DTP1002     0.0000 
     28 C2        -32.7620   84.7970   22.0060 C.ar      1 DTP1002     0.0000 
     29 N3        -32.5680   86.1180   21.7670 N.ar      1 DTP1002     0.0000 
     30 C4        -33.7600   86.8470   21.7870 C.ar      1 DTP1002     0.0000 
@<TRIPOS>BOND
     1    1    2 ar   
     2    1    3 ar   
     3    1    4 ar   
     4    1    8 1    
     5    5    6 ar   
     6    5    7 ar   
     7    5    8 1    
     8    5   12 1    
     9    9   10 ar   
    10    9   11 ar   
    11    9   12 1    
    12    9   13 1    
    13   13   14 1    
    14   14   15 1    
    15   15   16 1    
    16   15   17 1    
    17   16   20 1    
    18   17   18 1    
    19   17   19 1    
    20   19   20 1    
    21   20   21 1    
    22   21   22 1    
    23   21   30 1    
    24   22   23 2    
    25   23   24 1    
    26   24   25 ar   
    27   24   30 ar   
    28   25   26 1    
    29   25   27 ar   
    30   27   28 ar   
    31   28   29 ar   
    32   29   30 ar   
@<TRIPOS>SUBSTRUCTURE
     1 DTP1002     1 GROUP   
@<TRIPOS>SET

