#    Name: 5olk_3_DTP
#    Modification time : Fri May 22 19:15:28 2020

@<TRIPOS>MOLECULE
5olk_3_DTP
   30    32     1     0     0
SMALL
NO_CHARGES


@<TRIPOS>ATOM
      1 PG        -16.5130   65.1740    8.2520 P.3       1 DTP1001     0.0000 
      2 O1G       -17.3290   64.3490    7.3300 O.co2     1 DTP1001     0.0000 
      3 O2G       -16.7070   66.7150    7.8980 O.co2     1 DTP1001     0.0000 
      4 O3G       -15.0060   64.7470    8.1320 O.co2     1 DTP1001     0.0000 
      5 PB        -16.9970   65.8190   11.0430 P.3       1 DTP1001     0.0000 
      6 O1B       -17.8550   67.0550   10.6210 O.co2     1 DTP1001     0.0000 
      7 O2B       -17.5320   65.1500   12.2540 O.co2     1 DTP1001     0.0000 
      8 O3B       -16.9270   64.9000    9.7760 O.3       1 DTP1001     0.0000 
      9 PA        -14.8260   67.7700   11.3180 P.3       1 DTP1001     0.0000 
     10 O1A       -15.5000   68.6560   10.2140 O.co2     1 DTP1001     0.0000 
     11 O2A       -13.3790   67.6480   11.0560 O.co2     1 DTP1001     0.0000 
     12 O3A       -15.5210   66.3420   11.2880 O.3       1 DTP1001     0.0000 
     13 O5'       -15.0940   68.4600   12.7260 O.3       1 DTP1001     0.0000 
     14 C5'       -16.2930   69.0320   13.2170 C.3       1 DTP1001     0.0000 
     15 C4'       -16.2060   69.0500   14.7900 C.3       1 DTP1001     0.0000 
     16 O4'       -16.2520   67.7290   15.2790 O.3       1 DTP1001     0.0000 
     17 C3'       -14.9110   69.7140   15.3950 C.3       1 DTP1001     0.0000 
     18 O3'       -15.3170   70.3910   16.5480 O.3       1 DTP1001     0.0000 
     19 C2'       -14.0570   68.5200   15.8020 C.3       1 DTP1001     0.0000 
     20 C1'       -15.0980   67.4160   16.0440 C.3       1 DTP1001     0.0000 
     21 N9        -14.5920   66.1080   15.5770 N.pl3     1 DTP1001     0.0000 
     22 C8        -15.0070   65.3070   14.4780 C.2       1 DTP1001     0.0000 
     23 N7        -14.3320   64.1590   14.3940 N.2       1 DTP1001     0.0000 
     24 C5        -13.4310   64.1890   15.4730 C.ar      1 DTP1001     0.0000 
     25 C6        -12.4510   63.2550   15.9550 C.ar      1 DTP1001     0.0000 
     26 N6        -12.2460   62.0770   15.3330 N.pl3     1 DTP1001     0.0000 
     27 N1        -11.6960   63.5480   17.0830 N.ar      1 DTP1001     0.0000 
     28 C2        -11.9280   64.7690   17.6920 C.ar      1 DTP1001     0.0000 
     29 N3        -12.8170   65.7450   17.3450 N.ar      1 DTP1001     0.0000 
     30 C4        -13.5690   65.4030   16.2190 C.ar      1 DTP1001     0.0000 
@<TRIPOS>BOND
     1    1    2 ar   
     2    1    3 ar   
     3    1    4 ar   
     4    1    8 1    
     5    5    6 ar   
     6    5    7 ar   
     7    5    8 1    
     8    5   12 1    
     9    9   10 ar   
    10    9   11 ar   
    11    9   12 1    
    12    9   13 1    
    13   13   14 1    
    14   14   15 1    
    15   15   16 1    
    16   15   17 1    
    17   16   20 1    
    18   17   18 1    
    19   17   19 1    
    20   19   20 1    
    21   20   21 1    
    22   21   22 1    
    23   21   30 1    
    24   22   23 2    
    25   23   24 1    
    26   24   25 ar   
    27   24   30 ar   
    28   25   26 1    
    29   25   27 ar   
    30   27   28 ar   
    31   28   29 ar   
    32   29   30 ar   
@<TRIPOS>SUBSTRUCTURE
     1 DTP1001     1 GROUP   
@<TRIPOS>SET

