#    Name: 5olk_7_DTP_CAVITY_N1_4
#    Modification time : Fri May 22 19:15:46 2020

@<TRIPOS>MOLECULE
5olk_7_DTP_CAVITY_N1_4
   73     0     4     0     0
SMALL
NO_CHARGES


@<TRIPOS>ATOM
      1 N         -72.0600   75.6700  -51.6300 N.am      1 ALA2        0.0000 
      2 N         -73.5100   78.0200  -52.8100 N.am      1 ALA2        0.0000 
      3 N         -74.2300   79.2000  -53.3900 N.am      1 ALA2        0.0000 
      4 N         -74.9500   80.3700  -53.9800 N.am      1 ALA2        0.0000 
      5 N         -74.5600   77.9000  -51.7400 N.am      1 ALA2        0.0000 
      6 N         -76.3400   78.9600  -51.2700 N.am      1 ALA2        0.0000 
      7 N         -72.3900   80.2400  -53.5700 N.am      1 ALA2        0.0000 
      8 O         -71.2700   76.5900  -50.7500 O.2       1 ALA2        0.0000 
      9 N         -72.0000   77.7700  -51.3400 N.am      1 ALA2        0.0000 
     10 N         -73.4400   80.1200  -52.5100 N.am      1 ALA2        0.0000 
     11 O         -73.0500   77.6500  -50.2800 O.2       1 ALA2        0.0000 
     12 N         -73.7700   78.8300  -50.8600 N.am      1 ALA2        0.0000 
     13 N         -70.5500   81.2800  -53.7500 N.am      1 ALA2        0.0000 
     14 N         -75.4900   87.8500  -53.6800 N.am      1 ALA2        0.0000 
     15 N         -74.7000   88.7700  -52.8000 N.am      1 ALA2        0.0000 
     16 N         -75.4300   89.9500  -53.3800 N.am      1 ALA2        0.0000 
     17 OD1       -68.3800   77.7500  -51.9900 O.co2     2 ASP3        0.0000 
     18 OD1       -69.1100   78.9300  -52.5800 O.co2     2 ASP3        0.0000 
     19 OD1       -69.4300   77.6400  -50.9300 O.co2     2 ASP3        0.0000 
     20 OD1       -70.1600   78.8100  -51.5200 O.co2     2 ASP3        0.0000 
     21 OD1       -70.8800   79.9900  -52.1000 O.co2     2 ASP3        0.0000 
     22 OD1       -70.4900   77.5200  -49.8700 O.co2     2 ASP3        0.0000 
     23 OD1       -71.2100   78.6900  -50.4600 O.co2     2 ASP3        0.0000 
     24 OD1       -71.9300   79.8700  -51.0400 O.co2     2 ASP3        0.0000 
     25 OD1       -72.9900   79.7500  -49.9800 O.co2     2 ASP3        0.0000 
     26 OD1       -75.1600   83.2800  -51.7400 O.co2     2 ASP3        0.0000 
     27 OD1       -75.8800   84.4500  -52.3200 O.co2     2 ASP3        0.0000 
     28 OD1       -67.6000   78.6800  -51.1100 O.co2     2 ASP3        0.0000 
     29 OD1       -70.8200   82.0900  -51.8100 O.co2     2 ASP3        0.0000 
     30 OD1       -71.8700   81.9700  -50.7500 O.co2     2 ASP3        0.0000 
     31 OD1       -72.6000   83.1400  -51.3300 O.co2     2 ASP3        0.0000 
     32 OD1       -72.2000   80.6700  -49.1000 O.co2     2 ASP3        0.0000 
     33 OD1       -72.9200   81.8500  -49.6800 O.co2     2 ASP3        0.0000 
     34 OD1       -73.6500   83.0300  -50.2700 O.co2     2 ASP3        0.0000 
     35 OD1       -71.8100   84.0700  -50.4500 O.co2     2 ASP3        0.0000 
     36 OD1       -73.9800   87.6000  -52.2100 O.co2     2 ASP3        0.0000 
     37 OD1       -72.1400   82.7700  -48.8000 O.co2     2 ASP3        0.0000 
     38 OD1       -75.0300   87.4800  -51.1500 O.co2     2 ASP3        0.0000 
     39 OD1       -73.1900   82.6600  -47.7400 O.co2     2 ASP3        0.0000 
     40 CA        -75.6800   81.5500  -54.5600 C.3       3 GLY6        0.0000 
     41 CA        -76.4000   82.7300  -55.1500 C.3       3 GLY6        0.0000 
     42 CA        -75.2800   79.0800  -52.3300 C.3       3 GLY6        0.0000 
     43 CA        -76.0100   80.2600  -52.9200 C.3       3 GLY6        0.0000 
     44 CA        -76.7300   81.4300  -53.5000 C.3       3 GLY6        0.0000 
     45 CA        -77.4500   82.6100  -54.0900 C.3       3 GLY6        0.0000 
     46 CA        -77.0600   80.1400  -51.8500 C.3       3 GLY6        0.0000 
     47 CA        -69.8900   78.0100  -53.4600 C.3       3 GLY6        0.0000 
     48 CA        -70.6200   79.1800  -54.0500 C.3       3 GLY6        0.0000 
     49 CA        -70.2200   76.7100  -51.8100 C.3       3 GLY6        0.0000 
     50 CA        -70.9400   77.8900  -52.4000 C.3       3 GLY6        0.0000 
     51 CA        -71.6700   79.0600  -52.9900 C.3       3 GLY6        0.0000 
     52 CA        -74.1700   81.3000  -53.1000 C.3       3 GLY6        0.0000 
     53 CA        -74.8900   82.4700  -53.6800 C.3       3 GLY6        0.0000 
     54 CA        -74.5000   80.0000  -51.4500 C.3       3 GLY6        0.0000 
     55 CA        -75.9400   82.3600  -52.6200 C.3       3 GLY6        0.0000 
     56 CA        -76.6700   83.5300  -53.2100 C.3       3 GLY6        0.0000 
     57 CA        -75.5500   79.8900  -50.3900 C.3       3 GLY6        0.0000 
     58 CA        -76.2700   81.0600  -50.9700 C.3       3 GLY6        0.0000 
     59 CA        -72.3300   82.3400  -53.2800 C.3       3 GLY6        0.0000 
     60 CA        -73.3800   82.2200  -52.2100 C.3       3 GLY6        0.0000 
     61 CA        -73.7100   80.9300  -50.5700 C.3       3 GLY6        0.0000 
     62 CA        -74.4300   82.1000  -51.1500 C.3       3 GLY6        0.0000 
     63 CA        -76.2100   83.1600  -50.6800 C.3       3 GLY6        0.0000 
     64 CA        -74.4400   87.9700  -54.7400 C.3       3 GLY6        0.0000 
     65 CA        -74.7700   86.6700  -53.0900 C.3       3 GLY6        0.0000 
     66 CA        -73.9800   81.7300  -48.6200 C.3       3 GLY6        0.0000 
     67 CA        -74.7000   82.9100  -49.2100 C.3       3 GLY6        0.0000 
     68 CA        -75.7600   88.6500  -51.7300 C.3       3 GLY6        0.0000 
     69 DU        -72.7200   78.9500  -51.9200 H         4 CUB7        0.0000 
     70 DU        -75.2200   81.1800  -52.0300 H         4 CUB7        0.0000 
     71 DU        -69.8300   80.1100  -53.1700 H         4 CUB7        0.0000 
     72 DU        -71.6100   81.1600  -52.6900 H         4 CUB7        0.0000 
     73 DU        -72.6600   81.0500  -51.6300 H         4 CUB7        0.0000 
@<TRIPOS>BOND
@<TRIPOS>SUBSTRUCTURE
     1 ALA2        1 GROUP   
     2 ASP3       17 GROUP   
     3 GLY6       40 GROUP   
     4 CUB7       69 GROUP   
@<TRIPOS>SET

