#    Name: 6hqu_8_ADP_CAVITY_N1_4
#    Modification time : Fri May 22 19:29:40 2020

@<TRIPOS>MOLECULE
6hqu_8_ADP_CAVITY_N1_4
   54     0     5     0     0
SMALL
NO_CHARGES


@<TRIPOS>ATOM
      1 N          36.3700    0.6400   35.1400 N.am      1 ALA2        0.0000 
      2 O          36.6800    2.5600   34.2900 O.2       1 ALA2        0.0000 
      3 N          37.2200    1.1900   34.0400 N.am      1 ALA2        0.0000 
      4 O          35.5200    3.1000   37.7300 O.2       1 ALA2        0.0000 
      5 OD1        33.3100    2.5800   35.7700 O.co2     2 ASP3        0.0000 
      6 OD1        38.3300    1.4500   35.0200 O.co2     2 ASP3        0.0000 
      7 OD1        38.5200    1.9600   41.5300 O.co2     2 ASP3        0.0000 
      8 OD1        39.3800    2.5100   40.4300 O.co2     2 ASP3        0.0000 
      9 OD1        39.9300    1.1300   40.1800 O.co2     2 ASP3        0.0000 
     10 CZ         33.3100   -0.4200   34.2800 C.ar      3 PHE5        0.0000 
     11 CZ         31.6000    1.4900   37.9800 C.ar      3 PHE5        0.0000 
     12 CZ         32.4600    2.0400   36.8700 C.ar      3 PHE5        0.0000 
     13 CZ         33.0000    0.6700   36.6200 C.ar      3 PHE5        0.0000 
     14 CA         33.8600    1.2100   35.5200 C.3       4 GLY6        0.0000 
     15 CA         34.1700    3.1300   34.6600 C.3       4 GLY6        0.0000 
     16 CA         35.2600    0.3800   34.1600 C.3       4 GLY6        0.0000 
     17 CA         32.1600    3.1300   39.2100 C.3       4 GLY6        0.0000 
     18 CA         33.0100    3.6700   38.1100 C.3       4 GLY6        0.0000 
     19 CA         33.8700    4.2200   37.0100 C.3       4 GLY6        0.0000 
     20 CA         35.2700    3.3900   35.6500 C.3       4 GLY6        0.0000 
     21 CA         35.8200    2.0200   35.3900 C.3       4 GLY6        0.0000 
     22 CA         33.2600    3.3800   40.2000 C.3       4 GLY6        0.0000 
     23 CA         34.6600    2.5600   38.8400 C.3       4 GLY6        0.0000 
     24 CA         34.9700    4.4800   37.9900 C.3       4 GLY6        0.0000 
     25 CA         36.3800    3.6500   36.6300 C.3       4 GLY6        0.0000 
     26 CA         36.9200    2.2700   36.3800 C.3       4 GLY6        0.0000 
     27 CA         37.4700    0.9000   36.1200 C.3       4 GLY6        0.0000 
     28 CA         37.7800    2.8200   35.2700 C.3       4 GLY6        0.0000 
     29 CA         35.2200    4.1900   40.0800 C.3       4 GLY6        0.0000 
     30 CA         35.7700    2.8200   39.8200 C.3       4 GLY6        0.0000 
     31 CA         36.6200    3.3600   38.7200 C.3       4 GLY6        0.0000 
     32 CA         37.1700    1.9900   38.4600 C.3       4 GLY6        0.0000 
     33 CA         38.0300    2.5300   37.3600 C.3       4 GLY6        0.0000 
     34 CA         38.5700    1.1600   37.1100 C.3       4 GLY6        0.0000 
     35 CA         36.0100    2.5300   41.9100 C.3       4 GLY6        0.0000 
     36 CA         38.2700    2.2500   39.4500 C.3       4 GLY6        0.0000 
     37 CA         39.1300    2.7900   38.3400 C.3       4 GLY6        0.0000 
     38 CA         39.6800    1.4200   38.0900 C.3       4 GLY6        0.0000 
     39 CA         36.8100    0.8700   43.7400 C.3       4 GLY6        0.0000 
     40 CA         37.6700    1.4100   42.6400 C.3       4 GLY6        0.0000 
     41 DU         32.7000    1.7500   38.9600 H         5 CUB7        0.0000 
     42 DU         33.5600    2.3000   37.8600 H         5 CUB7        0.0000 
     43 DU         34.1100    0.9200   37.6000 H         5 CUB7        0.0000 
     44 DU         34.4200    2.8400   36.7500 H         5 CUB7        0.0000 
     45 DU         34.9600    1.4700   36.5000 H         5 CUB7        0.0000 
     46 DU         33.8100    2.0100   39.9400 H         5 CUB7        0.0000 
     47 DU         36.0700    1.7300   37.4800 H         5 CUB7        0.0000 
     48 DU         34.9100    2.2700   40.9300 H         5 CUB7        0.0000 
     49 DU         36.3100    1.4400   39.5700 H         5 CUB7        0.0000 
     50 DU         37.7200    0.6100   38.2100 H         5 CUB7        0.0000 
     51 DU         36.5600    1.1600   41.6600 H         5 CUB7        0.0000 
     52 DU         36.8700    3.0700   40.8000 H         5 CUB7        0.0000 
     53 DU         37.4200    1.7000   40.5500 H         5 CUB7        0.0000 
     54 DU         38.8200    0.8700   39.1900 H         5 CUB7        0.0000 
@<TRIPOS>BOND
@<TRIPOS>SUBSTRUCTURE
     1 ALA2        1 GROUP   
     2 ASP3        5 GROUP   
     3 PHE5       10 GROUP   
     4 GLY6       14 GROUP   
     5 CUB7       41 GROUP   
@<TRIPOS>SET

