#    Name: 6hqu_1_ADP_CAVITY_N1_12
#    Modification time : Fri May 22 19:29:26 2020

@<TRIPOS>MOLECULE
6hqu_1_ADP_CAVITY_N1_12
   87     0     6     0     0
SMALL
NO_CHARGES


@<TRIPOS>ATOM
      1 N         -49.0700    6.7400   12.6900 N.am      1 ALA2        0.0000 
      2 N         -48.8900    1.2400   16.2300 N.am      1 ALA2        0.0000 
      3 O         -45.4700    3.4300   11.8100 O.2       1 ALA2        0.0000 
      4 O         -44.6100    3.9700   10.7000 O.2       1 ALA2        0.0000 
      5 N         -49.1900    2.3300   18.5700 N.am      1 ALA2        0.0000 
      6 O         -49.7900    4.5000   23.2500 O.2       1 ALA2        0.0000 
      7 N         -46.0000   13.8100   16.5300 N.am      1 ALA2        0.0000 
      8 N         -44.9000   11.0700   16.0200 N.am      1 ALA2        0.0000 
      9 O         -43.5000   10.2400   14.6700 O.2       1 ALA2        0.0000 
     10 N         -43.4900   13.2500   16.1600 N.am      1 ALA2        0.0000 
     11 OD1       -49.4400    2.6200   16.4800 O.co2     2 ASP3        0.0000 
     12 OD1       -48.5900    3.1600   15.3800 O.co2     2 ASP3        0.0000 
     13 OD1       -48.2800    5.0800   14.5300 O.co2     2 ASP3        0.0000 
     14 OD1       -49.7400    3.7000   18.8200 O.co2     2 ASP3        0.0000 
     15 OD1       -48.8900    4.2500   17.7200 O.co2     2 ASP3        0.0000 
     16 OD1       -48.3400    2.8800   17.4600 O.co2     2 ASP3        0.0000 
     17 OD1       -45.4500   12.4400   16.2800 O.co2     2 ASP3        0.0000 
     18 NZ        -48.0300    4.7900   16.6100 N.4       3 LYS4        0.0000 
     19 NZ        -47.4800    3.4200   16.3600 N.4       3 LYS4        0.0000 
     20 NZ        -47.1700    5.3400   15.5100 N.4       3 LYS4        0.0000 
     21 NZ        -46.3200    5.8900   14.4000 N.4       3 LYS4        0.0000 
     22 NZ        -45.7700    4.5100   14.1500 N.4       3 LYS4        0.0000 
     23 NZ        -45.4600    6.4300   13.3000 N.4       3 LYS4        0.0000 
     24 NZ        -44.9100    5.0600   13.0500 N.4       3 LYS4        0.0000 
     25 NZ        -44.3700    3.6800   12.7900 N.4       3 LYS4        0.0000 
     26 NZ        -44.6100    6.9800   12.1900 N.4       3 LYS4        0.0000 
     27 NZ        -44.0600    5.6000   11.9400 N.4       3 LYS4        0.0000 
     28 NZ        -43.5100    4.2300   11.6900 N.4       3 LYS4        0.0000 
     29 NZ        -48.6400    3.9600   19.8000 N.4       3 LYS4        0.0000 
     30 NZ        -44.9100    8.0600   14.5300 N.4       3 LYS4        0.0000 
     31 NZ        -44.0500    8.6100   13.4300 N.4       3 LYS4        0.0000 
     32 CZ        -45.4000    8.6400   10.3600 C.ar      4 PHE5        0.0000 
     33 CZ        -44.5500    9.1800    9.2600 C.ar      4 PHE5        0.0000 
     34 CZ        -43.6900    9.7300    8.1500 C.ar      4 PHE5        0.0000 
     35 CZ        -43.3800   11.6400    7.3000 C.ar      4 PHE5        0.0000 
     36 CZ        -44.3000    8.8900   11.3400 C.ar      4 PHE5        0.0000 
     37 CZ        -43.4400    9.4400   10.2400 C.ar      4 PHE5        0.0000 
     38 CZ        -42.8900    8.0700    9.9800 C.ar      4 PHE5        0.0000 
     39 CZ        -42.5900    9.9900    9.1300 C.ar      4 PHE5        0.0000 
     40 CZ        -42.0400    8.6100    8.8800 C.ar      4 PHE5        0.0000 
     41 CZ        -41.7300   10.5300    8.0300 C.ar      4 PHE5        0.0000 
     42 CZ        -44.6000    9.9800   13.6800 C.ar      4 PHE5        0.0000 
     43 CZ        -43.2000    9.1500   12.3300 C.ar      4 PHE5        0.0000 
     44 CZ        -45.1400   14.3600   15.4300 C.ar      4 PHE5        0.0000 
     45 CZ        -44.5900   12.9900   15.1700 C.ar      4 PHE5        0.0000 
     46 CZ        -44.0400   11.6100   14.9200 C.ar      4 PHE5        0.0000 
     47 CZ        -42.6300   13.7900   15.0500 C.ar      4 PHE5        0.0000 
     48 CA        -49.6300    5.1100   11.4600 C.3       5 GLY6        0.0000 
     49 CA        -49.3200    7.0300   10.6000 C.3       5 GLY6        0.0000 
     50 CA        -48.7700    5.6500   10.3500 C.3       5 GLY6        0.0000 
     51 CA        -49.3800    4.8200   13.5400 C.3       5 GLY6        0.0000 
     52 CA        -48.8300    3.4500   13.2900 C.3       5 GLY6        0.0000 
     53 CA        -48.2800    2.0800   13.0400 C.3       5 GLY6        0.0000 
     54 CA        -48.5200    5.3700   12.4400 C.3       5 GLY6        0.0000 
     55 CA        -47.9800    3.9900   12.1800 C.3       5 GLY6        0.0000 
     56 CA        -47.4300    2.6200   11.9300 C.3       5 GLY6        0.0000 
     57 CA        -48.2200    7.2900   11.5900 C.3       5 GLY6        0.0000 
     58 CA        -47.6700    5.9100   11.3300 C.3       5 GLY6        0.0000 
     59 CA        -47.1200    4.5400   11.0800 C.3       5 GLY6        0.0000 
     60 CA        -47.3600    7.8300   10.4800 C.3       5 GLY6        0.0000 
     61 CA        -48.0400    1.7900   15.1200 C.3       5 GLY6        0.0000 
     62 CA        -47.1800    2.3300   14.0200 C.3       5 GLY6        0.0000 
     63 CA        -47.1100    7.5500   12.5700 C.3       5 GLY6        0.0000 
     64 CA        -46.2600    8.0900   11.4600 C.3       5 GLY6        0.0000 
     65 CA        -43.1400    8.3500    7.9000 C.3       5 GLY6        0.0000 
     66 CA        -42.8300   10.2700    7.0500 C.3       5 GLY6        0.0000 
     67 CA        -50.0500    1.7900   19.6700 C.3       5 GLY6        0.0000 
     68 CA        -46.0100    7.8000   13.5500 C.3       5 GLY6        0.0000 
     69 CA        -45.7000    9.7200   12.7000 C.3       5 GLY6        0.0000 
     70 CA        -45.1500    8.3500   12.4500 C.3       5 GLY6        0.0000 
     71 CA        -41.1800    9.1600    7.7800 C.3       5 GLY6        0.0000 
     72 CA        -40.3300    9.7000    6.6700 C.3       5 GLY6        0.0000 
     73 CA        -49.4900    3.4200   20.9100 C.3       5 GLY6        0.0000 
     74 CA        -46.0000   10.8100   15.0400 C.3       5 GLY6        0.0000 
     75 CA        -48.9400    5.0500   22.1500 C.3       5 GLY6        0.0000 
     76 DU        -47.7300    3.7100   14.2700 H         6 CUB7        0.0000 
     77 DU        -47.4200    5.6300   13.4200 H         6 CUB7        0.0000 
     78 DU        -46.8700    4.2500   13.1700 H         6 CUB7        0.0000 
     79 DU        -46.3300    2.8800   12.9100 H         6 CUB7        0.0000 
     80 DU        -46.5700    6.1700   12.3200 H         6 CUB7        0.0000 
     81 DU        -46.0200    4.8000   12.0600 H         6 CUB7        0.0000 
     82 DU        -45.7100    6.7200   11.2100 H         6 CUB7        0.0000 
     83 DU        -45.1600    5.3400   10.9600 H         6 CUB7        0.0000 
     84 DU        -44.8500    7.2600   10.1100 H         6 CUB7        0.0000 
     85 DU        -44.0000    7.8100    9.0000 H         6 CUB7        0.0000 
     86 DU        -46.6300    3.9700   15.2500 H         6 CUB7        0.0000 
     87 DU        -43.7500    7.5200   11.0900 H         6 CUB7        0.0000 
@<TRIPOS>BOND
@<TRIPOS>SUBSTRUCTURE
     1 ALA2        1 GROUP   
     2 ASP3       11 GROUP   
     3 LYS4       18 GROUP   
     4 PHE5       32 GROUP   
     5 GLY6       48 GROUP   
     6 CUB7       76 GROUP   
@<TRIPOS>SET

