#    Name: 6hqu_1_ADP
#    Modification time : Fri May 22 19:29:24 2020

@<TRIPOS>MOLECULE
6hqu_1_ADP
   27    29     1     0     1
SMALL
NO_CHARGES


@<TRIPOS>ATOM
      1 PB        -49.1110    9.8460    9.2340 P.3       1 ADP401      0.0000 
      2 O1B       -49.0220    9.3340    7.8490 O.co2     1 ADP401      0.0000 
      3 O2B       -50.4300   10.4060    9.6240 O.co2     1 ADP401      0.0000 
      4 O3B       -47.9420   10.6800    9.5790 O.co2     1 ADP401      0.0000 
      5 PA        -48.3470    7.1480    9.8280 P.3       1 ADP401      0.0000 
      6 O1A       -49.3820    6.3590    9.1230 O.co2     1 ADP401      0.0000 
      7 O2A       -47.0460    7.3070    9.1350 O.co2     1 ADP401      0.0000 
      8 O3A       -49.0240    8.5550   10.1770 O.3       1 ADP401      0.0000 
      9 O5'       -48.0660    6.5240   11.2660 O.3       1 ADP401      0.0000 
     10 C5'       -49.1420    6.1940   12.1310 C.3       1 ADP401      0.0000 
     11 C4'       -48.6830    5.3760   13.3380 C.3       1 ADP401      0.0000 
     12 O4'       -48.4640    4.0230   12.9710 O.3       1 ADP401      0.0000 
     13 C3'       -47.4030    5.8460   14.0150 C.3       1 ADP401      0.0000 
     14 O3'       -47.7330    6.1760   15.3620 O.3       1 ADP401      0.0000 
     15 C2'       -46.4700    4.6510   13.9850 C.3       1 ADP401      0.0000 
     16 O2'       -45.7320    4.4740   15.1920 O.3       1 ADP401      0.0000 
     17 C1'       -47.4190    3.4940   13.7680 C.3       1 ADP401      0.0000 
     18 N9        -46.7820    2.3280   13.1220 N.pl3     1 ADP401      0.0000 
     19 C8        -45.8520    2.3430   12.1580 C.2       1 ADP401      0.0000 
     20 N7        -45.4940    1.0870   11.8190 N.2       1 ADP401      0.0000 
     21 C5        -46.2040    0.2480   12.5820 C.ar      1 ADP401      0.0000 
     22 C6        -46.3230   -1.2130   12.7420 C.ar      1 ADP401      0.0000 
     23 N6        -45.5830   -2.0480   11.9950 N.pl3     1 ADP401      0.0000 
     24 N1        -47.1870   -1.6820   13.6580 N.ar      1 ADP401      0.0000 
     25 C2        -47.9270   -0.8610   14.4100 C.ar      1 ADP401      0.0000 
     26 N3        -47.8730    0.4730   14.3200 N.ar      1 ADP401      0.0000 
     27 C4        -47.0480    1.0720   13.4430 C.ar      1 ADP401      0.0000 
@<TRIPOS>BOND
     1    1    2 ar   
     2    1    3 ar   
     3    1    4 ar   
     4    1    8 1    
     5    5    6 ar   
     6    5    7 ar   
     7    5    8 1    
     8    5    9 1    
     9    9   10 1    
    10   10   11 1    
    11   11   12 1    
    12   11   13 1    
    13   12   17 1    
    14   13   14 1    
    15   13   15 1    
    16   15   16 1    
    17   15   17 1    
    18   17   18 1    
    19   18   19 1    
    20   18   27 1    
    21   19   20 2    
    22   20   21 1    
    23   21   22 ar   
    24   21   27 ar   
    25   22   23 1    
    26   22   24 ar   
    27   24   25 ar   
    28   25   26 ar   
    29   26   27 ar   
@<TRIPOS>SUBSTRUCTURE
     1 ADP401      1 GROUP   
@<TRIPOS>SET
ATOM$ORANGE STATIC     ATOMS   COLORGROUP SYSTEM 
20 10 10 11 11 13 13 15 15 17 17 19 19 21 21 22 22 25 \
25 27 27 

