#    Name: 6hqu_3_ADP
#    Modification time : Fri May 22 19:29:33 2020

@<TRIPOS>MOLECULE
6hqu_3_ADP
   27    29     1     0     1
SMALL
NO_CHARGES


@<TRIPOS>ATOM
      1 PB        -40.3470  -10.1080   17.3390 P.3       1 ADP401      0.0000 
      2 O1B       -40.7930  -10.9110   16.1700 O.co2     1 ADP401      0.0000 
      3 O2B       -39.0000   -9.5140   17.2170 O.co2     1 ADP401      0.0000 
      4 O3B       -40.5910  -10.7320   18.6650 O.co2     1 ADP401      0.0000 
      5 PA        -40.9650   -7.3860   16.8070 P.3       1 ADP401      0.0000 
      6 O1A       -40.6810   -7.4780   15.3540 O.co2     1 ADP401      0.0000 
      7 O2A       -39.9850   -6.7010   17.6830 O.co2     1 ADP401      0.0000 
      8 O3A       -41.3170   -8.8390   17.3870 O.3       1 ADP401      0.0000 
      9 O5'       -42.3770   -6.7140   17.0490 O.3       1 ADP401      0.0000 
     10 C5'       -43.3590   -6.6470   16.0370 C.3       1 ADP401      0.0000 
     11 C4'       -44.5530   -5.9310   16.6390 C.3       1 ADP401      0.0000 
     12 O4'       -44.2000   -4.5790   16.9000 O.3       1 ADP401      0.0000 
     13 C3'       -45.7200   -5.9300   15.6780 C.3       1 ADP401      0.0000 
     14 O3'       -46.8630   -6.3920   16.3890 O.3       1 ADP401      0.0000 
     15 C2'       -45.8760   -4.4830   15.2720 C.3       1 ADP401      0.0000 
     16 O2'       -47.2450   -4.1050   15.1370 O.3       1 ADP401      0.0000 
     17 C1'       -45.1720   -3.7030   16.3700 C.3       1 ADP401      0.0000 
     18 N9        -44.5420   -2.5030   15.7870 N.pl3     1 ADP401      0.0000 
     19 C8        -43.6010   -2.4980   14.8380 C.2       1 ADP401      0.0000 
     20 N7        -43.2540   -1.2400   14.5050 N.2       1 ADP401      0.0000 
     21 C5        -43.9950   -0.4160   15.2530 C.ar      1 ADP401      0.0000 
     22 C6        -44.1280    1.0420   15.3990 C.ar      1 ADP401      0.0000 
     23 N6        -43.3720    1.8720   14.6570 N.pl3     1 ADP401      0.0000 
     24 N1        -45.0190    1.5050   16.2910 N.ar      1 ADP401      0.0000 
     25 C2        -45.7670    0.6760   17.0310 C.ar      1 ADP401      0.0000 
     26 N3        -45.7000   -0.6570   16.9520 N.ar      1 ADP401      0.0000 
     27 C4        -44.8470   -1.2520   16.0940 C.ar      1 ADP401      0.0000 
@<TRIPOS>BOND
     1    1    2 ar   
     2    1    3 ar   
     3    1    4 ar   
     4    1    8 1    
     5    5    6 ar   
     6    5    7 ar   
     7    5    8 1    
     8    5    9 1    
     9    9   10 1    
    10   10   11 1    
    11   11   12 1    
    12   11   13 1    
    13   12   17 1    
    14   13   14 1    
    15   13   15 1    
    16   15   16 1    
    17   15   17 1    
    18   17   18 1    
    19   18   19 1    
    20   18   27 1    
    21   19   20 2    
    22   20   21 1    
    23   21   22 ar   
    24   21   27 ar   
    25   22   23 1    
    26   22   24 ar   
    27   24   25 ar   
    28   25   26 ar   
    29   26   27 ar   
@<TRIPOS>SUBSTRUCTURE
     1 ADP401      1 GROUP   
@<TRIPOS>SET
ATOM$ORANGE STATIC     ATOMS   COLORGROUP SYSTEM 
20 10 10 11 11 13 13 15 15 17 17 19 19 21 21 22 22 25 \
25 27 27 

