#    Name: 6hqu_1_ADP_CAVITY_N1_4
#    Modification time : Fri May 22 19:29:26 2020

@<TRIPOS>MOLECULE
6hqu_1_ADP_CAVITY_N1_4
   56     0     6     0     0
SMALL
NO_CHARGES


@<TRIPOS>ATOM
      1 N         -49.0700    6.7400   12.6900 N.am      1 ALA2        0.0000 
      2 N         -48.8900    1.2400   16.2300 N.am      1 ALA2        0.0000 
      3 O         -45.4700    3.4300   11.8100 O.2       1 ALA2        0.0000 
      4 O         -44.6100    3.9700   10.7000 O.2       1 ALA2        0.0000 
      5 OD1       -49.4400    2.6200   16.4800 O.co2     2 ASP3        0.0000 
      6 OD1       -48.5900    3.1600   15.3800 O.co2     2 ASP3        0.0000 
      7 OD1       -48.2800    5.0800   14.5300 O.co2     2 ASP3        0.0000 
      8 OD1       -48.8900    4.2500   17.7200 O.co2     2 ASP3        0.0000 
      9 OD1       -48.3400    2.8800   17.4600 O.co2     2 ASP3        0.0000 
     10 NZ        -48.0300    4.7900   16.6100 N.4       3 LYS4        0.0000 
     11 NZ        -47.4800    3.4200   16.3600 N.4       3 LYS4        0.0000 
     12 NZ        -47.1700    5.3400   15.5100 N.4       3 LYS4        0.0000 
     13 NZ        -46.3200    5.8900   14.4000 N.4       3 LYS4        0.0000 
     14 NZ        -45.7700    4.5100   14.1500 N.4       3 LYS4        0.0000 
     15 NZ        -45.4600    6.4300   13.3000 N.4       3 LYS4        0.0000 
     16 NZ        -44.9100    5.0600   13.0500 N.4       3 LYS4        0.0000 
     17 NZ        -44.3700    3.6800   12.7900 N.4       3 LYS4        0.0000 
     18 NZ        -44.6100    6.9800   12.1900 N.4       3 LYS4        0.0000 
     19 NZ        -44.0600    5.6000   11.9400 N.4       3 LYS4        0.0000 
     20 NZ        -43.5100    4.2300   11.6900 N.4       3 LYS4        0.0000 
     21 NZ        -44.9100    8.0600   14.5300 N.4       3 LYS4        0.0000 
     22 CZ        -45.4000    8.6400   10.3600 C.ar      4 PHE5        0.0000 
     23 CZ        -44.5500    9.1800    9.2600 C.ar      4 PHE5        0.0000 
     24 CZ        -44.3000    8.8900   11.3400 C.ar      4 PHE5        0.0000 
     25 CA        -49.6300    5.1100   11.4600 C.3       5 GLY6        0.0000 
     26 CA        -49.3200    7.0300   10.6000 C.3       5 GLY6        0.0000 
     27 CA        -48.7700    5.6500   10.3500 C.3       5 GLY6        0.0000 
     28 CA        -49.3800    4.8200   13.5400 C.3       5 GLY6        0.0000 
     29 CA        -48.8300    3.4500   13.2900 C.3       5 GLY6        0.0000 
     30 CA        -48.2800    2.0800   13.0400 C.3       5 GLY6        0.0000 
     31 CA        -48.5200    5.3700   12.4400 C.3       5 GLY6        0.0000 
     32 CA        -47.9800    3.9900   12.1800 C.3       5 GLY6        0.0000 
     33 CA        -47.4300    2.6200   11.9300 C.3       5 GLY6        0.0000 
     34 CA        -48.2200    7.2900   11.5900 C.3       5 GLY6        0.0000 
     35 CA        -47.6700    5.9100   11.3300 C.3       5 GLY6        0.0000 
     36 CA        -47.1200    4.5400   11.0800 C.3       5 GLY6        0.0000 
     37 CA        -47.3600    7.8300   10.4800 C.3       5 GLY6        0.0000 
     38 CA        -48.0400    1.7900   15.1200 C.3       5 GLY6        0.0000 
     39 CA        -47.1800    2.3300   14.0200 C.3       5 GLY6        0.0000 
     40 CA        -47.1100    7.5500   12.5700 C.3       5 GLY6        0.0000 
     41 CA        -46.2600    8.0900   11.4600 C.3       5 GLY6        0.0000 
     42 CA        -46.0100    7.8000   13.5500 C.3       5 GLY6        0.0000 
     43 CA        -45.7000    9.7200   12.7000 C.3       5 GLY6        0.0000 
     44 CA        -45.1500    8.3500   12.4500 C.3       5 GLY6        0.0000 
     45 DU        -47.7300    3.7100   14.2700 H         6 CUB7        0.0000 
     46 DU        -47.4200    5.6300   13.4200 H         6 CUB7        0.0000 
     47 DU        -46.8700    4.2500   13.1700 H         6 CUB7        0.0000 
     48 DU        -46.3300    2.8800   12.9100 H         6 CUB7        0.0000 
     49 DU        -46.5700    6.1700   12.3200 H         6 CUB7        0.0000 
     50 DU        -46.0200    4.8000   12.0600 H         6 CUB7        0.0000 
     51 DU        -45.7100    6.7200   11.2100 H         6 CUB7        0.0000 
     52 DU        -45.1600    5.3400   10.9600 H         6 CUB7        0.0000 
     53 DU        -44.8500    7.2600   10.1100 H         6 CUB7        0.0000 
     54 DU        -44.0000    7.8100    9.0000 H         6 CUB7        0.0000 
     55 DU        -46.6300    3.9700   15.2500 H         6 CUB7        0.0000 
     56 DU        -43.7500    7.5200   11.0900 H         6 CUB7        0.0000 
@<TRIPOS>BOND
@<TRIPOS>SUBSTRUCTURE
     1 ALA2        1 GROUP   
     2 ASP3        5 GROUP   
     3 LYS4       10 GROUP   
     4 PHE5       22 GROUP   
     5 GLY6       25 GROUP   
     6 CUB7       45 GROUP   
@<TRIPOS>SET

