#    Name: 6hqu_8_ADP
#    Modification time : Fri May 22 19:29:38 2020

@<TRIPOS>MOLECULE
6hqu_8_ADP
   27    29     1     0     1
SMALL
NO_CHARGES


@<TRIPOS>ATOM
      1 PB         33.1210    4.8150   33.9810 P.3       1 ADP401      0.0000 
      2 O1B        33.2900    5.1260   32.5170 O.co2     1 ADP401      0.0000 
      3 O2B        31.8860    4.0940   34.3780 O.co2     1 ADP401      0.0000 
      4 O3B        33.3000    5.9550   34.9200 O.co2     1 ADP401      0.0000 
      5 PA         34.6820    3.4520   35.8680 P.3       1 ADP401      0.0000 
      6 O1A        35.4380    4.6160   36.4320 O.co2     1 ADP401      0.0000 
      7 O2A        33.4550    2.9950   36.6150 O.co2     1 ADP401      0.0000 
      8 O3A        34.3370    3.8360   34.3450 O.3       1 ADP401      0.0000 
      9 O5'        35.6810    2.2010   35.6830 O.3       1 ADP401      0.0000 
     10 C5'        37.0340    2.4310   35.2990 C.3       1 ADP401      0.0000 
     11 C4'        37.9110    1.1770   35.3130 C.3       1 ADP401      0.0000 
     12 O4'        38.6650    1.1080   36.5230 O.3       1 ADP401      0.0000 
     13 C3'        37.1670   -0.1410   35.1620 C.3       1 ADP401      0.0000 
     14 O3'        37.4610   -0.6760   33.8710 O.3       1 ADP401      0.0000 
     15 C2'        37.6930   -1.0430   36.2750 C.3       1 ADP401      0.0000 
     16 O2'        38.1980   -2.3050   35.8060 O.3       1 ADP401      0.0000 
     17 C1'        38.8030   -0.2470   36.9460 C.3       1 ADP401      0.0000 
     18 N9         38.6840   -0.3330   38.4210 N.pl3     1 ADP401      0.0000 
     19 C8         37.5350   -0.3920   39.1230 C.2       1 ADP401      0.0000 
     20 N7         37.7800   -0.4680   40.4550 N.2       1 ADP401      0.0000 
     21 C5         39.1160   -0.4620   40.6150 C.ar      1 ADP401      0.0000 
     22 C6         40.0510   -0.5210   41.7600 C.ar      1 ADP401      0.0000 
     23 N6         39.5960   -0.6010   43.0320 N.pl3     1 ADP401      0.0000 
     24 N1         41.3730   -0.4900   41.4850 N.ar      1 ADP401      0.0000 
     25 C2         41.8420   -0.4070   40.2250 C.ar      1 ADP401      0.0000 
     26 N3         41.0510   -0.3510   39.1410 N.ar      1 ADP401      0.0000 
     27 C4         39.7060   -0.3780   39.2710 C.ar      1 ADP401      0.0000 
@<TRIPOS>BOND
     1    1    2 ar   
     2    1    3 ar   
     3    1    4 ar   
     4    1    8 1    
     5    5    6 ar   
     6    5    7 ar   
     7    5    8 1    
     8    5    9 1    
     9    9   10 1    
    10   10   11 1    
    11   11   12 1    
    12   11   13 1    
    13   12   17 1    
    14   13   14 1    
    15   13   15 1    
    16   15   16 1    
    17   15   17 1    
    18   17   18 1    
    19   18   19 1    
    20   18   27 1    
    21   19   20 2    
    22   20   21 1    
    23   21   22 ar   
    24   21   27 ar   
    25   22   23 1    
    26   22   24 ar   
    27   24   25 ar   
    28   25   26 ar   
    29   26   27 ar   
@<TRIPOS>SUBSTRUCTURE
     1 ADP401      1 GROUP   
@<TRIPOS>SET
ATOM$ORANGE STATIC     ATOMS   COLORGROUP SYSTEM 
20 10 10 11 11 13 13 15 15 17 17 19 19 21 21 22 22 25 \
25 27 27 

