#    Name: 6hqu_3_ADP_CAVITY_N1_6
#    Modification time : Fri May 22 19:29:35 2020

@<TRIPOS>MOLECULE
6hqu_3_ADP_CAVITY_N1_6
   49     0     4     0     0
SMALL
NO_CHARGES


@<TRIPOS>ATOM
      1 O         -44.6200    0.9700    9.2200 O.2       1 ALA2        0.0000 
      2 O         -41.0700   -1.5500   12.7600 O.2       1 ALA2        0.0000 
      3 O         -40.5200   -2.9200   12.5100 O.2       1 ALA2        0.0000 
      4 N         -38.5700   -5.1200   10.9000 N.am      1 ALA2        0.0000 
      5 N         -38.0200   -3.4900   12.1300 N.am      1 ALA2        0.0000 
      6 NZ        -42.4900   -6.7300   11.1400 N.4       2 LYS4        0.0000 
      7 NZ        -41.9400   -8.1100   10.8900 N.4       2 LYS4        0.0000 
      8 NZ        -43.2800   -2.0700   10.8000 N.4       2 LYS4        0.0000 
      9 NZ        -42.7300   -3.4400   10.5400 N.4       2 LYS4        0.0000 
     10 NZ        -42.1100    3.4000   10.3300 N.4       2 LYS4        0.0000 
     11 NZ        -41.5600    2.0300   10.0800 N.4       2 LYS4        0.0000 
     12 NZ        -41.3100    1.7400   12.1600 N.4       2 LYS4        0.0000 
     13 NZ        -40.4600    2.2900   11.0600 N.4       2 LYS4        0.0000 
     14 CA        -44.0700   -0.4100    8.9600 C.3       3 GLY6        0.0000 
     15 CA        -43.5300   -1.7800    8.7100 C.3       3 GLY6        0.0000 
     16 CA        -39.1300   -6.7600    9.6600 C.3       3 GLY6        0.0000 
     17 CA        -42.1700    1.2000   13.2700 C.3       3 GLY6        0.0000 
     18 CA        -41.6200   -0.1800   13.0100 C.3       3 GLY6        0.0000 
     19 CA        -40.7600    0.3700   11.9100 C.3       3 GLY6        0.0000 
     20 CA        -39.6700   -2.3800   11.4000 C.3       3 GLY6        0.0000 
     21 CA        -39.1200   -3.7500   11.1500 C.3       3 GLY6        0.0000 
     22 CA        -38.0200   -6.5000   10.6400 C.3       3 GLY6        0.0000 
     23 CA        -39.3600   -0.4600   10.5500 C.3       3 GLY6        0.0000 
     24 CA        -39.6600    0.6300   12.8900 C.3       3 GLY6        0.0000 
     25 CA        -39.1100   -0.7500   12.6400 C.3       3 GLY6        0.0000 
     26 CA        -38.5600   -2.1200   12.3900 C.3       3 GLY6        0.0000 
     27 CA        -39.3500    2.5500   12.0400 C.3       3 GLY6        0.0000 
     28 CA        -38.8000    1.1700   11.7900 C.3       3 GLY6        0.0000 
     29 CA        -38.2600   -0.2000   11.5300 C.3       3 GLY6        0.0000 
     30 DU        -41.6300   -6.1900   10.0400 H         4 CUB7        0.0000 
     31 DU        -41.0900   -7.5600    9.7800 H         4 CUB7        0.0000 
     32 DU        -43.5200    1.2200   10.2000 H         4 CUB7        0.0000 
     33 DU        -42.9700   -0.1500    9.9400 H         4 CUB7        0.0000 
     34 DU        -42.4200   -1.5200    9.6900 H         4 CUB7        0.0000 
     35 DU        -41.8700   -2.9000    9.4400 H         4 CUB7        0.0000 
     36 DU        -43.2100    3.1400    9.3500 H         4 CUB7        0.0000 
     37 DU        -42.6600    1.7700    9.0900 H         4 CUB7        0.0000 
     38 DU        -43.5800   -0.9800   13.1400 H         4 CUB7        0.0000 
     39 DU        -43.0300   -2.3500   12.8800 H         4 CUB7        0.0000 
     40 DU        -42.1700   -1.8100   11.7800 H         4 CUB7        0.0000 
     41 DU        -42.4100    1.4800   11.1800 H         4 CUB7        0.0000 
     42 DU        -40.7700   -2.6400   10.4200 H         4 CUB7        0.0000 
     43 DU        -40.2200   -4.0100   10.1700 H         4 CUB7        0.0000 
     44 DU        -39.6800   -5.3800    9.9100 H         4 CUB7        0.0000 
     45 DU        -41.0100    0.6600    9.8200 H         4 CUB7        0.0000 
     46 DU        -40.4600   -0.7200    9.5700 H         4 CUB7        0.0000 
     47 DU        -39.4300   -5.6700   12.0000 H         4 CUB7        0.0000 
     48 DU        -40.2200   -1.0000   11.6600 H         4 CUB7        0.0000 
     49 DU        -39.9100    0.9100   10.8100 H         4 CUB7        0.0000 
@<TRIPOS>BOND
@<TRIPOS>SUBSTRUCTURE
     1 ALA2        1 GROUP   
     2 LYS4        6 GROUP   
     3 GLY6       14 GROUP   
     4 CUB7       30 GROUP   
@<TRIPOS>SET

