#    Name: 6kcm_1_PE0
#    Modification time : Fri May 22 19:26:20 2020

@<TRIPOS>MOLECULE
6kcm_1_PE0
   12    13     1     0     0
SMALL
NO_CHARGES


@<TRIPOS>ATOM
      1 C1          1.6760  102.7820   34.6760 C.ar      1 PE0801      0.0000 
      2 C4          1.7080  101.9530   35.9310 C.2       1 PE0801      0.0000 
      3 O4          2.7400  101.3360   36.2810 O.2       1 PE0801      0.0000 
      4 N2          0.5920  101.9040   36.6910 N.am      1 PE0801      0.0000 
      5 C3         -0.5490  102.5920   36.3720 C.2       1 PE0801      0.0000 
      6 N6         -1.6250  102.5460   37.2150 N.pl3     1 PE0801      0.0000 
      7 N1         -0.6410  103.3320   35.2350 N.2       1 PE0801      0.0000 
      8 C2          0.4010  103.4910   34.3730 C.ar      1 PE0801      0.0000 
      9 N3          0.3200  104.2550   33.2300 N.ar      1 PE0801      0.0000 
     10 C6          1.3760  104.3410   32.4010 C.ar      1 PE0801      0.0000 
     11 C5          2.5830  103.6680   32.6860 C.ar      1 PE0801      0.0000 
     12 N4          2.7210  102.9060   33.8020 N.ar      1 PE0801      0.0000 
@<TRIPOS>BOND
     1    1    2 1    
     2    1    8 ar   
     3    1   12 ar   
     4    2    3 2    
     5    2    4 am   
     6    4    5 1    
     7    5    6 1    
     8    5    7 2    
     9    7    8 1    
    10    8    9 ar   
    11    9   10 ar   
    12   10   11 ar   
    13   11   12 ar   
@<TRIPOS>SUBSTRUCTURE
     1 PE0801      1 GROUP   
@<TRIPOS>SET

