#    Name: 6kcm_2_PHB
#    Modification time : Fri May 22 19:26:27 2020

@<TRIPOS>MOLECULE
6kcm_2_PHB
   10    10     1     0     0
SMALL
NO_CHARGES


@<TRIPOS>ATOM
      1 C1'        10.1900  103.6500   32.4720 C.2       1 PHB802      0.0000 
      2 O1'        10.7130  103.1690   31.4370 O.co2     1 PHB802      0.0000 
      3 O2'        10.8330  103.7790   33.5330 O.co2     1 PHB802      0.0000 
      4 C1          8.7450  104.0390   32.4230 C.ar      1 PHB802      0.0000 
      5 C2          8.0800  103.8940   31.2060 C.ar      1 PHB802      0.0000 
      6 C3          6.7350  104.2240   31.0880 C.ar      1 PHB802      0.0000 
      7 C4          6.0290  104.6950   32.1900 C.ar      1 PHB802      0.0000 
      8 C5          6.6930  104.8560   33.4190 C.ar      1 PHB802      0.0000 
      9 C6          8.0540  104.5220   33.5450 C.ar      1 PHB802      0.0000 
     10 O4          4.6910  104.9970   32.0300 O.3       1 PHB802      0.0000 
@<TRIPOS>BOND
     1    1    2 ar   
     2    1    3 ar   
     3    1    4 1    
     4    4    5 ar   
     5    4    9 ar   
     6    5    6 ar   
     7    6    7 ar   
     8    7    8 ar   
     9    7   10 1    
    10    8    9 ar   
@<TRIPOS>SUBSTRUCTURE
     1 PHB802      1 GROUP   
@<TRIPOS>SET

