#    Name: 6kcm_2_PHB_CAVITY_N1_4
#    Modification time : Fri May 22 19:26:28 2020

@<TRIPOS>MOLECULE
6kcm_2_PHB_CAVITY_N1_4
   83     0     7     0     0
SMALL
NO_CHARGES


@<TRIPOS>ATOM
      1 OG          4.8500  102.4600   28.2900 O.3       1 SER1        0.0000 
      2 OG          4.2700  105.9100   29.4100 O.3       1 SER1        0.0000 
      3 OG          5.1200  105.0300   28.5400 O.3       1 SER1        0.0000 
      4 OG          5.4900  106.6100   29.9100 O.3       1 SER1        0.0000 
      5 OG          6.7200  107.3000   30.4200 O.3       1 SER1        0.0000 
      6 OG         13.6700  105.3500   34.0500 O.3       1 SER1        0.0000 
      7 OG         13.7700  104.3500   35.1700 O.3       1 SER1        0.0000 
      8 OG         14.5200  104.4700   33.1900 O.3       1 SER1        0.0000 
      9 N           4.9600  101.4600   29.4100 N.am      2 ALA2        0.0000 
     10 N           3.4100  106.7900   30.2700 N.am      2 ALA2        0.0000 
     11 N           6.1900  102.1600   29.9100 N.am      2 ALA2        0.0000 
     12 N           6.9300  102.2800   27.9300 N.am      2 ALA2        0.0000 
     13 N           7.0400  101.2800   29.0400 N.am      2 ALA2        0.0000 
     14 N           8.2700  101.9800   29.5500 N.am      2 ALA2        0.0000 
     15 N           5.8700  108.1800   31.2800 N.am      2 ALA2        0.0000 
     16 N           9.5000  102.6800   30.0500 N.am      2 ALA2        0.0000 
     17 N           8.2700  105.0100   34.2700 N.am      2 ALA2        0.0000 
     18 O          10.7300  103.3700   30.5600 O.2       2 ALA2        0.0000 
     19 N          10.2500  105.8300   32.7900 N.am      2 ALA2        0.0000 
     20 N          10.3500  104.8300   33.9100 N.am      2 ALA2        0.0000 
     21 O          11.2100  103.9500   33.0400 O.2       2 ALA2        0.0000 
     22 N          11.4800  106.5300   33.3000 N.am      2 ALA2        0.0000 
     23 N          11.5800  105.5300   34.4100 N.am      2 ALA2        0.0000 
     24 OD1         2.4000  104.1000   32.0000 O.co2     3 ASP3        0.0000 
     25 OD1         2.5000  103.1000   33.1200 O.co2     3 ASP3        0.0000 
     26 OD1         3.2500  103.2200   31.1400 O.co2     3 ASP3        0.0000 
     27 OD1         4.1000  102.3400   30.2700 O.co2     3 ASP3        0.0000 
     28 OD1         9.7700  105.2500   30.3100 O.co2     3 ASP3        0.0000 
     29 OD1        10.1400  106.8200   31.6800 O.co2     3 ASP3        0.0000 
     30 OD1        10.9900  105.9500   30.8100 O.co2     3 ASP3        0.0000 
     31 NZ          1.4400  105.9700   31.7500 N.4       4 LYS4        0.0000 
     32 NZ         12.7000  107.2200   33.8000 N.4       4 LYS4        0.0000 
     33 NZ         12.8100  106.2300   34.9200 N.4       4 LYS4        0.0000 
     34 CZ          1.5400  104.9800   32.8700 C.ar      5 PHE5        0.0000 
     35 CZ          1.6500  103.9800   33.9800 C.ar      5 PHE5        0.0000 
     36 CZ          2.6600  106.6700   32.2500 C.ar      5 PHE5        0.0000 
     37 CZ          3.5200  105.7900   31.3900 C.ar      5 PHE5        0.0000 
     38 CZ          3.6300  104.8000   32.5100 C.ar      5 PHE5        0.0000 
     39 CZ          3.7300  103.8000   33.6200 C.ar      5 PHE5        0.0000 
     40 CZ          3.8900  107.3700   32.7600 C.ar      5 PHE5        0.0000 
     41 CZ          4.7500  106.4900   31.8900 C.ar      5 PHE5        0.0000 
     42 CZ          4.8500  105.4900   33.0100 C.ar      5 PHE5        0.0000 
     43 CZ          5.1200  108.0700   33.2600 C.ar      5 PHE5        0.0000 
     44 CZ          5.9800  107.1900   32.4000 C.ar      5 PHE5        0.0000 
     45 CA          2.1800  106.0900   29.7700 C.3       6 GLY6        0.0000 
     46 CA          4.4800  103.9200   31.6400 C.3       6 GLY6        0.0000 
     47 CA          5.3300  103.0400   30.7800 C.3       6 GLY6        0.0000 
     48 CA          6.2900  101.1600   31.0300 C.3       6 GLY6        0.0000 
     49 CA          5.7100  104.6200   32.1400 C.3       6 GLY6        0.0000 
     50 CA          6.5600  103.7400   31.2800 C.3       6 GLY6        0.0000 
     51 CA          7.4200  102.8600   30.4100 C.3       6 GLY6        0.0000 
     52 CA          7.0400  104.3200   33.7700 C.3       6 GLY6        0.0000 
     53 CA          7.9000  103.4400   32.9000 C.3       6 GLY6        0.0000 
     54 CA          8.6400  103.5600   30.9200 C.3       6 GLY6        0.0000 
     55 CA          8.7500  102.5600   32.0400 C.3       6 GLY6        0.0000 
     56 CA          7.2000  107.8800   32.9000 C.3       6 GLY6        0.0000 
     57 CA          8.0600  107.0100   32.0400 C.3       6 GLY6        0.0000 
     58 CA          8.1700  106.0100   33.1500 C.3       6 GLY6        0.0000 
     59 CA          9.1300  104.1400   33.4000 C.3       6 GLY6        0.0000 
     60 CA          9.2300  103.1400   34.5200 C.3       6 GLY6        0.0000 
     61 CA          9.9800  103.2600   32.5400 C.3       6 GLY6        0.0000 
     62 CA          9.2900  107.7000   32.5400 C.3       6 GLY6        0.0000 
     63 CA          9.3900  106.7100   33.6600 C.3       6 GLY6        0.0000 
     64 CA         11.1000  104.9500   31.9300 C.3       6 GLY6        0.0000 
     65 CA         10.6200  107.4000   34.1600 C.3       6 GLY6        0.0000 
     66 CA         12.3300  105.6500   32.4300 C.3       6 GLY6        0.0000 
     67 CA         12.4400  104.6500   33.5500 C.3       6 GLY6        0.0000 
     68 CA         13.5600  106.3400   32.9400 C.3       6 GLY6        0.0000 
     69 DU          2.2900  105.1000   30.8800 H         7 CUB7        0.0000 
     70 DU          3.0400  105.2100   28.9000 H         7 CUB7        0.0000 
     71 DU          3.1400  104.2200   30.0200 H         7 CUB7        0.0000 
     72 DU          4.0000  103.3400   29.1500 H         7 CUB7        0.0000 
     73 DU          4.3700  104.9100   30.5200 H         7 CUB7        0.0000 
     74 DU          6.0800  103.1600   28.7900 H         7 CUB7        0.0000 
     75 DU          5.6000  105.6100   31.0300 H         7 CUB7        0.0000 
     76 DU          7.3100  103.8500   29.3000 H         7 CUB7        0.0000 
     77 DU          6.8300  106.3100   31.5300 H         7 CUB7        0.0000 
     78 DU          6.9400  105.3100   32.6500 H         7 CUB7        0.0000 
     79 DU          7.7900  104.4300   31.7800 H         7 CUB7        0.0000 
     80 DU          7.9500  108.0000   30.9200 H         7 CUB7        0.0000 
     81 DU          8.9100  106.1300   31.1700 H         7 CUB7        0.0000 
     82 DU          9.0200  105.1300   32.2900 H         7 CUB7        0.0000 
     83 DU          9.8700  104.2500   31.4200 H         7 CUB7        0.0000 
@<TRIPOS>BOND
@<TRIPOS>SUBSTRUCTURE
     1 SER1        1 GROUP   
     2 ALA2        9 GROUP   
     3 ASP3       24 GROUP   
     4 LYS4       31 GROUP   
     5 PHE5       34 GROUP   
     6 GLY6       45 GROUP   
     7 CUB7       69 GROUP   
@<TRIPOS>SET

