#    Name: 6kcm_1_PE0_CAVITY_N1_4
#    Modification time : Fri May 22 19:26:21 2020

@<TRIPOS>MOLECULE
6kcm_1_PE0_CAVITY_N1_4
   41     0     6     0     0
SMALL
NO_CHARGES


@<TRIPOS>ATOM
      1 O          -0.3300  103.1700   35.4600 O.2       1 ALA2        0.0000 
      2 N           0.9500  105.3900   29.2600 N.am      1 ALA2        0.0000 
      3 N           1.9200  103.5200   29.5200 N.am      1 ALA2        0.0000 
      4 N           1.3300  106.9700   30.6300 N.am      1 ALA2        0.0000 
      5 N           3.4100  106.7900   30.2700 N.am      1 ALA2        0.0000 
      6 OD1         0.4200  103.2800   33.4800 O.co2     2 ASP3        0.0000 
      7 OD1         0.5300  102.2900   34.6000 O.co2     2 ASP3        0.0000 
      8 OD1         1.0600  104.4000   30.3800 O.co2     2 ASP3        0.0000 
      9 OD1         2.4000  104.1000   32.0000 O.co2     2 ASP3        0.0000 
     10 OD1         2.5000  103.1000   33.1200 O.co2     2 ASP3        0.0000 
     11 OD1         3.2500  103.2200   31.1400 O.co2     2 ASP3        0.0000 
     12 OD1         4.1000  102.3400   30.2700 O.co2     2 ASP3        0.0000 
     13 NZ         -0.4300  104.1600   34.3400 N.4       3 LYS4        0.0000 
     14 NZ          0.2100  105.2800   31.2500 N.4       3 LYS4        0.0000 
     15 NZ          0.3100  104.2800   32.3600 N.4       3 LYS4        0.0000 
     16 NZ          0.5800  106.8500   32.6200 N.4       3 LYS4        0.0000 
     17 NZ          1.4400  105.9700   31.7500 N.4       3 LYS4        0.0000 
     18 CZ          1.5400  104.9800   32.8700 C.ar      4 PHE5        0.0000 
     19 CZ          1.6500  103.9800   33.9800 C.ar      4 PHE5        0.0000 
     20 CZ          1.7600  102.9900   35.1000 C.ar      4 PHE5        0.0000 
     21 CZ          1.8100  107.5500   33.1200 C.ar      4 PHE5        0.0000 
     22 CZ          2.6600  106.6700   32.2500 C.ar      4 PHE5        0.0000 
     23 CZ          3.5200  105.7900   31.3900 C.ar      4 PHE5        0.0000 
     24 CZ          3.6300  104.8000   32.5100 C.ar      4 PHE5        0.0000 
     25 CZ          3.7300  103.8000   33.6200 C.ar      4 PHE5        0.0000 
     26 CZ          3.8900  107.3700   32.7600 C.ar      4 PHE5        0.0000 
     27 CZ          4.7500  106.4900   31.8900 C.ar      4 PHE5        0.0000 
     28 CZ          4.8500  105.4900   33.0100 C.ar      4 PHE5        0.0000 
     29 CA          0.6900  105.8600   33.7300 C.3       5 GLY6        0.0000 
     30 CA          0.8000  104.8600   34.8500 C.3       5 GLY6        0.0000 
     31 CA          0.9000  103.8700   35.9700 C.3       5 GLY6        0.0000 
     32 CA          2.1800  106.0900   29.7700 C.3       5 GLY6        0.0000 
     33 CA          4.4800  103.9200   31.6400 C.3       5 GLY6        0.0000 
     34 CA          5.3300  103.0400   30.7800 C.3       5 GLY6        0.0000 
     35 CA          5.7100  104.6200   32.1400 C.3       5 GLY6        0.0000 
     36 DU          2.2900  105.1000   30.8800 H         6 CUB7        0.0000 
     37 DU          3.0400  105.2100   28.9000 H         6 CUB7        0.0000 
     38 DU          3.1400  104.2200   30.0200 H         6 CUB7        0.0000 
     39 DU          4.0000  103.3400   29.1500 H         6 CUB7        0.0000 
     40 DU          4.3700  104.9100   30.5200 H         6 CUB7        0.0000 
     41 DU          5.6000  105.6100   31.0300 H         6 CUB7        0.0000 
@<TRIPOS>BOND
@<TRIPOS>SUBSTRUCTURE
     1 ALA2        1 GROUP   
     2 ASP3        6 GROUP   
     3 LYS4       13 GROUP   
     4 PHE5       18 GROUP   
     5 GLY6       29 GROUP   
     6 CUB7       36 GROUP   
@<TRIPOS>SET

