#    Name: 6kcm_1_PE0_CAVITY_N1_6
#    Modification time : Fri May 22 19:26:21 2020

@<TRIPOS>MOLECULE
6kcm_1_PE0_CAVITY_N1_6
   70     0     7     0     0
SMALL
NO_CHARGES


@<TRIPOS>ATOM
      1 OG          2.9300  106.2100   27.7900 O.3       1 SER1        0.0000 
      2 OG          4.8500  102.4600   28.2900 O.3       1 SER1        0.0000 
      3 OG          4.2700  105.9100   29.4100 O.3       1 SER1        0.0000 
      4 OG          5.1200  105.0300   28.5400 O.3       1 SER1        0.0000 
      5 OG          5.4900  106.6100   29.9100 O.3       1 SER1        0.0000 
      6 OG          6.7200  107.3000   30.4200 O.3       1 SER1        0.0000 
      7 O          -0.3300  103.1700   35.4600 O.2       2 ALA2        0.0000 
      8 N           0.9500  105.3900   29.2600 N.am      2 ALA2        0.0000 
      9 N           1.7000  105.5100   27.2800 N.am      2 ALA2        0.0000 
     10 N           1.8100  104.5100   28.4000 N.am      2 ALA2        0.0000 
     11 N           1.9200  103.5200   29.5200 N.am      2 ALA2        0.0000 
     12 O           2.7700  102.6400   28.6500 O.2       2 ALA2        0.0000 
     13 N           1.3300  106.9700   30.6300 N.am      2 ALA2        0.0000 
     14 O           3.8900  104.3300   28.0400 O.2       2 ALA2        0.0000 
     15 N           4.9600  101.4600   29.4100 N.am      2 ALA2        0.0000 
     16 N           1.7000  108.5500   32.0000 N.am      2 ALA2        0.0000 
     17 N           3.4100  106.7900   30.2700 N.am      2 ALA2        0.0000 
     18 N           6.1900  102.1600   29.9100 N.am      2 ALA2        0.0000 
     19 N           5.8700  108.1800   31.2800 N.am      2 ALA2        0.0000 
     20 N           8.2700  105.0100   34.2700 N.am      2 ALA2        0.0000 
     21 OD1         0.4200  103.2800   33.4800 O.co2     3 ASP3        0.0000 
     22 OD1         0.5300  102.2900   34.6000 O.co2     3 ASP3        0.0000 
     23 OD1         1.0600  104.4000   30.3800 O.co2     3 ASP3        0.0000 
     24 OD1         2.4000  104.1000   32.0000 O.co2     3 ASP3        0.0000 
     25 OD1         2.5000  103.1000   33.1200 O.co2     3 ASP3        0.0000 
     26 OD1         3.2500  103.2200   31.1400 O.co2     3 ASP3        0.0000 
     27 OD1         4.1000  102.3400   30.2700 O.co2     3 ASP3        0.0000 
     28 NZ         -0.4300  104.1600   34.3400 N.4       4 LYS4        0.0000 
     29 NZ          0.2100  105.2800   31.2500 N.4       4 LYS4        0.0000 
     30 NZ          0.3100  104.2800   32.3600 N.4       4 LYS4        0.0000 
     31 NZ          0.5800  106.8500   32.6200 N.4       4 LYS4        0.0000 
     32 NZ          1.4400  105.9700   31.7500 N.4       4 LYS4        0.0000 
     33 CZ          1.5400  104.9800   32.8700 C.ar      5 PHE5        0.0000 
     34 CZ          1.6500  103.9800   33.9800 C.ar      5 PHE5        0.0000 
     35 CZ          1.7600  102.9900   35.1000 C.ar      5 PHE5        0.0000 
     36 CZ          1.8100  107.5500   33.1200 C.ar      5 PHE5        0.0000 
     37 CZ          2.6600  106.6700   32.2500 C.ar      5 PHE5        0.0000 
     38 CZ          3.5200  105.7900   31.3900 C.ar      5 PHE5        0.0000 
     39 CZ          3.6300  104.8000   32.5100 C.ar      5 PHE5        0.0000 
     40 CZ          3.7300  103.8000   33.6200 C.ar      5 PHE5        0.0000 
     41 CZ          3.8900  107.3700   32.7600 C.ar      5 PHE5        0.0000 
     42 CZ          4.7500  106.4900   31.8900 C.ar      5 PHE5        0.0000 
     43 CZ          4.8500  105.4900   33.0100 C.ar      5 PHE5        0.0000 
     44 CZ          5.1200  108.0700   33.2600 C.ar      5 PHE5        0.0000 
     45 CZ          5.9800  107.1900   32.4000 C.ar      5 PHE5        0.0000 
     46 CA          0.6900  105.8600   33.7300 C.3       6 GLY6        0.0000 
     47 CA          0.8000  104.8600   34.8500 C.3       6 GLY6        0.0000 
     48 CA          0.9000  103.8700   35.9700 C.3       6 GLY6        0.0000 
     49 CA          2.1800  106.0900   29.7700 C.3       6 GLY6        0.0000 
     50 CA          0.8500  109.4200   32.8700 C.3       6 GLY6        0.0000 
     51 CA          4.4800  103.9200   31.6400 C.3       6 GLY6        0.0000 
     52 CA          5.3300  103.0400   30.7800 C.3       6 GLY6        0.0000 
     53 CA          6.2900  101.1600   31.0300 C.3       6 GLY6        0.0000 
     54 CA          2.0800  110.1200   33.3700 C.3       6 GLY6        0.0000 
     55 CA          5.7100  104.6200   32.1400 C.3       6 GLY6        0.0000 
     56 CA          6.5600  103.7400   31.2800 C.3       6 GLY6        0.0000 
     57 CA          7.4200  102.8600   30.4100 C.3       6 GLY6        0.0000 
     58 CA          7.0400  104.3200   33.7700 C.3       6 GLY6        0.0000 
     59 CA          7.9000  103.4400   32.9000 C.3       6 GLY6        0.0000 
     60 DU          2.2900  105.1000   30.8800 H         7 CUB7        0.0000 
     61 DU          3.0400  105.2100   28.9000 H         7 CUB7        0.0000 
     62 DU          3.1400  104.2200   30.0200 H         7 CUB7        0.0000 
     63 DU          4.0000  103.3400   29.1500 H         7 CUB7        0.0000 
     64 DU          4.3700  104.9100   30.5200 H         7 CUB7        0.0000 
     65 DU          6.0800  103.1600   28.7900 H         7 CUB7        0.0000 
     66 DU          5.6000  105.6100   31.0300 H         7 CUB7        0.0000 
     67 DU          7.3100  103.8500   29.3000 H         7 CUB7        0.0000 
     68 DU          6.8300  106.3100   31.5300 H         7 CUB7        0.0000 
     69 DU          6.9400  105.3100   32.6500 H         7 CUB7        0.0000 
     70 DU          7.7900  104.4300   31.7800 H         7 CUB7        0.0000 
@<TRIPOS>BOND
@<TRIPOS>SUBSTRUCTURE
     1 SER1        1 GROUP   
     2 ALA2        7 GROUP   
     3 ASP3       21 GROUP   
     4 LYS4       28 GROUP   
     5 PHE5       33 GROUP   
     6 GLY6       46 GROUP   
     7 CUB7       60 GROUP   
@<TRIPOS>SET

