#    Name: 6hmj_3_FMN
#    Modification time : Fri May 22 19:29:41 2020

@<TRIPOS>MOLECULE
6hmj_3_FMN
   50    52     1     0     1
SMALL
NO_CHARGES


@<TRIPOS>ATOM
      1 N1        -16.1490   74.8070  179.9780 N.2       1 FMN400      0.0000 
      2 C2        -16.5250   74.7860  178.6760 C.2       1 FMN400      0.0000 
      3 O2        -16.1960   73.8020  177.9790 O.2       1 FMN400      0.0000 
      4 N3        -17.2350   75.7770  178.1090 N.am      1 FMN400      0.0000 
      5 C4        -17.6170   76.8580  178.7990 C.2       1 FMN400      0.0000 
      6 O4        -18.2770   77.7630  178.2470 O.2       1 FMN400      0.0000 
      7 C4A       -17.2470   76.9570  180.2300 C.2       1 FMN400      0.0000 
      8 N5        -17.5990   78.0140  180.9890 N.2       1 FMN400      0.0000 
      9 C5A       -17.2460   78.0800  182.2920 C.ar      1 FMN400      0.0000 
     10 C6        -17.6310   79.1910  183.0340 C.ar      1 FMN400      0.0000 
     11 C7        -17.2900   79.2940  184.3750 C.ar      1 FMN400      0.0000 
     12 C7M       -17.7160   80.5050  185.1610 C.3       1 FMN400      0.0000 
     13 C8        -16.5040   78.2080  185.0200 C.ar      1 FMN400      0.0000 
     14 C8M       -16.1170   78.2900  186.4720 C.3       1 FMN400      0.0000 
     15 C9        -16.1170   77.0960  184.2820 C.ar      1 FMN400      0.0000 
     16 C9A       -16.4570   76.9840  182.9330 C.ar      1 FMN400      0.0000 
     17 N10       -16.0820   75.8620  182.1490 N.pl3     1 FMN400      0.0000 
     18 C10       -16.4680   75.8350  180.7940 C.2       1 FMN400      0.0000 
     19 C1'       -15.3000   74.7400  182.6850 C.3       1 FMN400      0.0000 
     20 C2'       -16.1990   73.6390  183.2400 C.3       1 FMN400      0.0000 
     21 O2'       -17.3410   74.1820  183.9130 O.3       1 FMN400      0.0000 
     22 C3'       -15.4240   72.7420  184.2030 C.3       1 FMN400      0.0000 
     23 O3'       -15.1930   73.4140  185.4500 O.3       1 FMN400      0.0000 
     24 C4'       -14.0910   72.3100  183.6030 C.3       1 FMN400      0.0000 
     25 O4'       -14.2640   71.9590  182.2250 O.3       1 FMN400      0.0000 
     26 C5'       -13.5470   71.1070  184.3530 C.3       1 FMN400      0.0000 
     27 O5'       -14.4580   70.0350  184.1330 O.3       1 FMN400      0.0000 
     28 P         -14.2980   68.6500  184.9180 P.3       1 FMN400      0.0000 
     29 O1P       -15.2190   67.7190  184.1680 O.co2     1 FMN400      0.0000 
     30 O2P       -14.7410   68.9730  186.3260 O.co2     1 FMN400      0.0000 
     31 O3P       -12.8270   68.3480  184.7590 O.co2     1 FMN400      0.0000 
     32 HN3       -17.4950   75.7010  177.1040 H         1 FMN400      0.0000 
     33 H6        -18.2010   79.9820  182.5610 H         1 FMN400      0.0000 
     34 HM71      -18.5770   80.2700  185.7320 H         1 FMN400      0.0000 
     35 HM72      -17.9390   81.2970  184.4960 H         1 FMN400      0.0000 
     36 HM73      -16.9320   80.7990  185.8100 H         1 FMN400      0.0000 
     37 HM81      -15.1900   78.7950  186.5610 H         1 FMN400      0.0000 
     38 HM82      -16.8610   78.8220  187.0060 H         1 FMN400      0.0000 
     39 HM83      -16.0270   77.3130  186.8690 H         1 FMN400      0.0000 
     40 H9        -15.5450   76.3090  184.7570 H         1 FMN400      0.0000 
     41 H1'1      -14.6440   75.1050  183.4780 H         1 FMN400      0.0000 
     42 H1'2      -14.6720   74.3280  181.8920 H         1 FMN400      0.0000 
     43 H2'       -16.5520   73.0450  182.3850 H         1 FMN400      0.0000 
     44 HO2'      -17.0590   74.6050  184.7360 H         1 FMN400      0.0000 
     45 H3'       -16.0360   71.8480  184.3890 H         1 FMN400      0.0000 
     46 HO3'      -14.5330   74.1100  185.3230 H         1 FMN400      0.0000 
     47 H4'       -13.3830   73.1470  183.6790 H         1 FMN400      0.0000 
     48 HO4'      -14.9500   71.2820  182.1480 H         1 FMN400      0.0000 
     49 H5'1      -12.5530   70.8440  183.9870 H         1 FMN400      0.0000 
     50 H5'2      -13.4660   71.3260  185.4200 H         1 FMN400      0.0000 
@<TRIPOS>BOND
     1    1    2 1    
     2    1   18 2    
     3    2    3 2    
     4    2    4 am   
     5    4    5 am   
     6    4   32 1    
     7    5    6 2    
     8    5    7 1    
     9    7    8 2    
    10    7   18 1    
    11    8    9 1    
    12    9   10 ar   
    13    9   16 ar   
    14   10   11 ar   
    15   10   33 1    
    16   11   12 1    
    17   11   13 ar   
    18   12   34 1    
    19   12   35 1    
    20   12   36 1    
    21   13   14 1    
    22   13   15 ar   
    23   14   37 1    
    24   14   38 1    
    25   14   39 1    
    26   15   16 ar   
    27   15   40 1    
    28   16   17 1    
    29   17   18 1    
    30   17   19 1    
    31   19   20 1    
    32   19   41 1    
    33   19   42 1    
    34   20   21 1    
    35   20   22 1    
    36   20   43 1    
    37   21   44 1    
    38   22   23 1    
    39   22   24 1    
    40   22   45 1    
    41   23   46 1    
    42   24   25 1    
    43   24   26 1    
    44   24   47 1    
    45   25   48 1    
    46   26   27 1    
    47   26   49 1    
    48   26   50 1    
    49   27   28 1    
    50   28   29 ar   
    51   28   30 ar   
    52   28   31 ar   
@<TRIPOS>SUBSTRUCTURE
     1 FMN400      1 GROUP   
@<TRIPOS>SET
ATOM$ORANGE STATIC     ATOMS   COLORGROUP SYSTEM 
34 2 2 5 5 7 7 9 9 10 10 11 11 12 12 13 13 14 \
14 15 15 16 16 18 18 19 19 20 20 22 22 24 24 26 26 

