#    Name: 6hmj_4_FMN
#    Modification time : Fri May 22 19:29:48 2020

@<TRIPOS>MOLECULE
6hmj_4_FMN
   50    52     1     0     1
SMALL
NO_CHARGES


@<TRIPOS>ATOM
      1 N1         36.6530   66.5590  104.0680 N.2       1 FMN400      0.0000 
      2 C2         35.6960   67.0660  104.8770 C.2       1 FMN400      0.0000 
      3 O2         35.5050   68.3030  104.8870 O.2       1 FMN400      0.0000 
      4 N3         34.9400   66.2920  105.6710 N.am      1 FMN400      0.0000 
      5 C4         35.0750   64.9640  105.7250 C.2       1 FMN400      0.0000 
      6 O4         34.3490   64.2790  106.4800 O.2       1 FMN400      0.0000 
      7 C4A        36.1000   64.3310  104.8700 C.2       1 FMN400      0.0000 
      8 N5         36.2990   62.9990  104.8650 N.2       1 FMN400      0.0000 
      9 C5A        37.2470   62.4550  104.0730 C.ar      1 FMN400      0.0000 
     10 C6         37.4120   61.0780  104.1020 C.ar      1 FMN400      0.0000 
     11 C7         38.3690   60.4700  103.3050 C.ar      1 FMN400      0.0000 
     12 C7M        38.5280   58.9740  103.3600 C.3       1 FMN400      0.0000 
     13 C8         39.2210   61.3040  102.4140 C.ar      1 FMN400      0.0000 
     14 C8M        40.2720   60.6830  101.5340 C.3       1 FMN400      0.0000 
     15 C9         39.0570   62.6830  102.3820 C.ar      1 FMN400      0.0000 
     16 C9A        38.0960   63.3010  103.1800 C.ar      1 FMN400      0.0000 
     17 N10        37.8930   64.7080  103.1710 N.pl3     1 FMN400      0.0000 
     18 C10        36.9000   65.2340  104.0180 C.2       1 FMN400      0.0000 
     19 C1'        38.6700   65.6480  102.3490 C.3       1 FMN400      0.0000 
     20 C2'        38.0000   65.9870  101.0150 C.3       1 FMN400      0.0000 
     21 O2'        37.3480   64.8420  100.4600 O.3       1 FMN400      0.0000 
     22 C3'        39.0310   66.4960  100.0050 C.3       1 FMN400      0.0000 
     23 O3'        39.9990   65.4720   99.7330 O.3       1 FMN400      0.0000 
     24 C4'        39.6860   67.7710  100.5370 C.3       1 FMN400      0.0000 
     25 O4'        38.6710   68.7670  100.7460 O.3       1 FMN400      0.0000 
     26 C5'        40.7430   68.3730   99.6220 C.3       1 FMN400      0.0000 
     27 O5'        40.4330   68.1760   98.2480 O.3       1 FMN400      0.0000 
     28 P          40.0530   69.4370   97.3230 P.3       1 FMN400      0.0000 
     29 O1P        38.6910   69.8920   97.7970 O.co2     1 FMN400      0.0000 
     30 O2P        40.0260   68.8180   95.9490 O.co2     1 FMN400      0.0000 
     31 O3P        41.1860   70.4100   97.5450 O.co2     1 FMN400      0.0000 
     32 HN3        34.2200   66.7440  106.2700 H         1 FMN400      0.0000 
     33 H6         36.7900   60.4740  104.7520 H         1 FMN400      0.0000 
     34 HM71       37.9420   58.5290  102.5990 H         1 FMN400      0.0000 
     35 HM72       38.2080   58.6190  104.3050 H         1 FMN400      0.0000 
     36 HM73       39.5460   58.7220  103.2140 H         1 FMN400      0.0000 
     37 HM81       41.1770   60.5920  102.0760 H         1 FMN400      0.0000 
     38 HM82       39.9490   59.7240  101.2220 H         1 FMN400      0.0000 
     39 HM83       40.4290   61.2960  100.6850 H         1 FMN400      0.0000 
     40 H9         39.6820   63.2830  101.7320 H         1 FMN400      0.0000 
     41 H1'1       39.6520   65.2140  102.1500 H         1 FMN400      0.0000 
     42 H1'2       38.8190   66.5710  102.9130 H         1 FMN400      0.0000 
     43 H2'        37.2520   66.7670  101.2140 H         1 FMN400      0.0000 
     44 HO2'       37.9950   64.1370  100.3220 H         1 FMN400      0.0000 
     45 H3'        38.5370   66.7390   99.0530 H         1 FMN400      0.0000 
     46 HO3'       40.7020   65.5080  100.3960 H         1 FMN400      0.0000 
     47 H4'        40.1910   67.4790  101.4690 H         1 FMN400      0.0000 
     48 HO4'       38.1820   68.9070   99.9240 H         1 FMN400      0.0000 
     49 H5'1       40.8240   69.4430   99.8220 H         1 FMN400      0.0000 
     50 H5'2       41.7100   67.9160   99.8410 H         1 FMN400      0.0000 
@<TRIPOS>BOND
     1    1    2 1    
     2    1   18 2    
     3    2    3 2    
     4    2    4 am   
     5    4    5 am   
     6    4   32 1    
     7    5    6 2    
     8    5    7 1    
     9    7    8 2    
    10    7   18 1    
    11    8    9 1    
    12    9   10 ar   
    13    9   16 ar   
    14   10   11 ar   
    15   10   33 1    
    16   11   12 1    
    17   11   13 ar   
    18   12   34 1    
    19   12   35 1    
    20   12   36 1    
    21   13   14 1    
    22   13   15 ar   
    23   14   37 1    
    24   14   38 1    
    25   14   39 1    
    26   15   16 ar   
    27   15   40 1    
    28   16   17 1    
    29   17   18 1    
    30   17   19 1    
    31   19   20 1    
    32   19   41 1    
    33   19   42 1    
    34   20   21 1    
    35   20   22 1    
    36   20   43 1    
    37   21   44 1    
    38   22   23 1    
    39   22   24 1    
    40   22   45 1    
    41   23   46 1    
    42   24   25 1    
    43   24   26 1    
    44   24   47 1    
    45   25   48 1    
    46   26   27 1    
    47   26   49 1    
    48   26   50 1    
    49   27   28 1    
    50   28   29 ar   
    51   28   30 ar   
    52   28   31 ar   
@<TRIPOS>SUBSTRUCTURE
     1 FMN400      1 GROUP   
@<TRIPOS>SET
ATOM$ORANGE STATIC     ATOMS   COLORGROUP SYSTEM 
34 2 2 5 5 7 7 9 9 10 10 11 11 12 12 13 13 14 \
14 15 15 16 16 18 18 19 19 20 20 22 22 24 24 26 26 

