#    Name: 6hmj_2_FMN
#    Modification time : Fri May 22 19:29:36 2020

@<TRIPOS>MOLECULE
6hmj_2_FMN
   49    51     1     0     1
SMALL
NO_CHARGES


@<TRIPOS>ATOM
      1 N1        -24.2550  108.6980  170.2610 N.2       1 FMN400      0.0000 
      2 C2        -23.2850  108.3240  169.3980 C.2       1 FMN400      0.0000 
      3 O2        -23.1670  108.9380  168.3160 O.2       1 FMN400      0.0000 
      4 N3        -22.4380  107.3130  169.6560 N.am      1 FMN400      0.0000 
      5 C4        -22.4900  106.5990  170.7840 C.2       1 FMN400      0.0000 
      6 O4        -21.6850  105.6660  170.9890 O.2       1 FMN400      0.0000 
      7 C4A       -23.5220  106.9440  171.7840 C.2       1 FMN400      0.0000 
      8 N5        -23.6410  106.2760  172.9470 N.2       1 FMN400      0.0000 
      9 C5A       -24.5980  106.6180  173.8400 C.ar      1 FMN400      0.0000 
     10 C6        -24.6940  105.9020  175.0290 C.ar      1 FMN400      0.0000 
     11 C7        -25.6610  106.2290  175.9680 C.ar      1 FMN400      0.0000 
     12 C7M       -25.7450  105.4440  177.2500 C.3       1 FMN400      0.0000 
     13 C8        -26.6050  107.3450  175.6940 C.ar      1 FMN400      0.0000 
     14 C8M       -27.6740  107.7300  176.6820 C.3       1 FMN400      0.0000 
     15 C9        -26.5150  108.0560  174.5070 C.ar      1 FMN400      0.0000 
     16 C9A       -25.5450  107.7400  173.5600 C.ar      1 FMN400      0.0000 
     17 N10       -25.4260  108.4520  172.3380 N.pl3     1 FMN400      0.0000 
     18 C10       -24.4230  108.0630  171.4390 C.2       1 FMN400      0.0000 
     19 C1'       -26.3050  109.5600  171.9490 C.3       1 FMN400      0.0000 
     20 C2'       -25.6790  110.8930  172.3070 C.3       1 FMN400      0.0000 
     21 O2'       -24.9500  110.8000  173.5330 O.3       1 FMN400      0.0000 
     22 C3'       -26.7760  111.9310  172.4450 C.3       1 FMN400      0.0000 
     23 O3'       -27.6910  111.5060  173.4670 O.3       1 FMN400      0.0000 
     24 C4'       -27.5660  112.1450  171.1630 C.3       1 FMN400      0.0000 
     25 O4'       -26.6930  112.5360  170.1030 O.3       1 FMN400      0.0000 
     26 C5'       -28.6110  113.2060  171.4740 C.3       1 FMN400      0.0000 
     27 O5'       -28.6290  114.2380  170.4980 O.3       1 FMN400      0.0000 
     28 P         -27.9270  115.6430  170.8310 P.3       1 FMN400      0.0000 
     29 O1P       -28.1490  116.4200  169.5590 O.co2     1 FMN400      0.0000 
     30 O2P       -28.6900  116.1500  172.0320 O.co2     1 FMN400      0.0000 
     31 O3P       -26.4950  115.3000  171.1620 O.co2     1 FMN400      0.0000 
     32 HN3       -21.7130  107.0780  168.9490 H         1 FMN400      0.0000 
     33 H6        -24.0100  105.0850  175.2230 H         1 FMN400      0.0000 
     34 HM71      -25.2460  105.9720  178.0200 H         1 FMN400      0.0000 
     35 HM72      -25.2860  104.4990  177.1160 H         1 FMN400      0.0000 
     36 HM73      -26.7610  105.3090  177.5150 H         1 FMN400      0.0000 
     37 HM81      -28.5510  107.1690  176.4900 H         1 FMN400      0.0000 
     38 HM82      -27.3350  107.5300  177.6650 H         1 FMN400      0.0000 
     39 HM83      -27.8870  108.7630  176.5860 H         1 FMN400      0.0000 
     40 H9        -27.2070  108.8670  174.3150 H         1 FMN400      0.0000 
     41 H1'1      -27.2660  109.4590  172.4570 H         1 FMN400      0.0000 
     42 H1'2      -26.4880  109.5190  170.8730 H         1 FMN400      0.0000 
     43 H2'       -24.9760  111.1840  171.5140 H         1 FMN400      0.0000 
     44 HO2'      -25.5630  110.6250  174.2600 H         1 FMN400      0.0000 
     45 H3'       -26.2890  112.8810  172.7020 H         1 FMN400      0.0000 
     46 H4'       -28.0550  111.2230  170.8190 H         1 FMN400      0.0000 
     47 HO4'      -26.0240  113.1450  170.4440 H         1 FMN400      0.0000 
     48 H5'1      -29.5960  112.7380  171.5200 H         1 FMN400      0.0000 
     49 H5'2      -28.4000  113.6420  172.4530 H         1 FMN400      0.0000 
@<TRIPOS>BOND
     1    1    2 1    
     2    1   18 2    
     3    2    3 2    
     4    2    4 am   
     5    4    5 am   
     6    4   32 1    
     7    5    6 2    
     8    5    7 1    
     9    7    8 2    
    10    7   18 1    
    11    8    9 1    
    12    9   10 ar   
    13    9   16 ar   
    14   10   11 ar   
    15   10   33 1    
    16   11   12 1    
    17   11   13 ar   
    18   12   34 1    
    19   12   35 1    
    20   12   36 1    
    21   13   14 1    
    22   13   15 ar   
    23   14   37 1    
    24   14   38 1    
    25   14   39 1    
    26   15   16 ar   
    27   15   40 1    
    28   16   17 1    
    29   17   18 1    
    30   17   19 1    
    31   19   20 1    
    32   19   41 1    
    33   19   42 1    
    34   20   21 1    
    35   20   22 1    
    36   20   43 1    
    37   21   44 1    
    38   22   23 1    
    39   22   24 1    
    40   22   45 1    
    41   24   25 1    
    42   24   26 1    
    43   24   46 1    
    44   25   47 1    
    45   26   27 1    
    46   26   48 1    
    47   26   49 1    
    48   27   28 1    
    49   28   29 ar   
    50   28   30 ar   
    51   28   31 ar   
@<TRIPOS>SUBSTRUCTURE
     1 FMN400      1 GROUP   
@<TRIPOS>SET
ATOM$ORANGE STATIC     ATOMS   COLORGROUP SYSTEM 
34 2 2 5 5 7 7 9 9 10 10 11 11 12 12 13 13 14 \
14 15 15 16 16 18 18 19 19 20 20 22 22 24 24 26 26 

