#    Name: 6fe1_2_V14
#    Modification time : Fri May 22 19:24:41 2020

@<TRIPOS>MOLECULE
6fe1_2_V14
   28    29     1     0     0
SMALL
NO_CHARGES


@<TRIPOS>ATOM
      1 F20        23.3460  -19.1860  -24.5100           1 V14302      0.0000 
      2 C5         24.0170  -18.6890  -23.4780           1 V14302      0.0000 
      3 C4         23.5000  -17.3940  -22.9630           1 V14302      0.0000 
      4 S7         22.1460  -16.7030  -23.5290           1 V14302      0.0000 
      5 O9         22.2930  -16.0330  -24.7910           1 V14302      0.0000 
      6 N10        21.5450  -15.6220  -22.4600           1 V14302      0.0000 
      7 O8         21.2350  -17.8080  -23.4990           1 V14302      0.0000 
      8 C3         24.2150  -16.8280  -21.8040           1 V14302      0.0000 
      9 F12        23.7950  -15.7060  -21.2710           1 V14302      0.0000 
     10 C2         25.3810  -17.4630  -21.1790           1 V14302      0.0000 
     11 F13        25.9320  -16.8410  -20.1440           1 V14302      0.0000 
     12 C6         25.2150  -19.3780  -22.8380           1 V14302      0.0000 
     13 C1         25.9340  -18.7360  -21.6880           1 V14302      0.0000 
     14 S11        27.2170  -19.4410  -20.9580           1 V14302      0.0000 
     15 O16        26.7100  -19.9860  -19.7160           1 V14302      0.0000 
     16 O17        27.7190  -20.5370  -21.7350           1 V14302      0.0000 
     17 C15        28.4990  -18.4300  -20.6250           1 V14302      0.0000 
     18 C18        28.8190  -17.5250  -21.8040           1 V14302      0.0000 
     19 O21        28.9090  -18.3510  -22.9580           1 V14302      0.0000 
     20 N19        25.8650  -20.5020  -23.2540           1 V14302      0.0000 
     21 C14        25.9220  -21.1220  -24.5520           1 V14302      0.0000 
     22 C28        24.7910  -22.1050  -24.7470           1 V14302      0.0000 
     23 C27        25.1360  -23.1050  -25.8490           1 V14302      0.0000 
     24 C26        24.7740  -22.5220  -27.2160           1 V14302      0.0000 
     25 C25        25.9850  -22.1120  -28.0240           1 V14302      0.0000 
     26 C24        26.4050  -20.6660  -27.9490           1 V14302      0.0000 
     27 C23        27.0950  -20.3250  -26.6490           1 V14302      0.0000 
     28 C22        26.0450  -20.0220  -25.6020           1 V14302      0.0000 
@<TRIPOS>BOND
     1    1    2 du   
     2    2    3 du   
     3    2   12 du   
     4    3    4 du   
     5    3    8 du   
     6    4    5 du   
     7    4    6 du   
     8    4    7 du   
     9    8    9 du   
    10    8   10 du   
    11   10   11 du   
    12   10   13 du   
    13   12   13 du   
    14   12   20 du   
    15   13   14 du   
    16   14   15 du   
    17   14   16 du   
    18   14   17 du   
    19   17   18 du   
    20   18   19 du   
    21   20   21 du   
    22   21   22 du   
    23   21   28 du   
    24   22   23 du   
    25   23   24 du   
    26   24   25 du   
    27   25   26 du   
    28   26   27 du   
    29   27   28 du   
@<TRIPOS>SUBSTRUCTURE
     1 V14302      1 GROUP   
@<TRIPOS>SET

