#    Name: 6fe1_3_V14
#    Modification time : Fri May 22 19:24:45 2020

@<TRIPOS>MOLECULE
6fe1_3_V14
   28    29     1     0     0
SMALL
NO_CHARGES


@<TRIPOS>ATOM
      1 F20        38.3450  -24.7310  -55.2350           1 V14302      0.0000 
      2 C5         38.8440  -25.2840  -54.0980           1 V14302      0.0000 
      3 C4         40.2660  -25.6400  -54.0400           1 V14302      0.0000 
      4 S7         41.2400  -25.2610  -55.2710           1 V14302      0.0000 
      5 O9         40.9650  -26.0410  -56.4440           1 V14302      0.0000 
      6 N10        42.7660  -25.3390  -54.7960           1 V14302      0.0000 
      7 O8         41.0590  -23.8680  -55.5390           1 V14302      0.0000 
      8 C3         40.7250  -26.2590  -52.7900           1 V14302      0.0000 
      9 F12        42.0120  -26.5870  -52.6970           1 V14302      0.0000 
     10 C2         39.7920  -26.4810  -51.6530           1 V14302      0.0000 
     11 F13        40.3190  -27.0370  -50.5600           1 V14302      0.0000 
     12 C6         37.8830  -25.4670  -52.9710           1 V14302      0.0000 
     13 C1         38.3290  -26.1440  -51.7040           1 V14302      0.0000 
     14 S11        37.4800  -26.3830  -50.3280           1 V14302      0.0000 
     15 O16        36.1230  -25.8970  -50.4750           1 V14302      0.0000 
     16 O17        38.1220  -25.4820  -49.4190           1 V14302      0.0000 
     17 C15        37.5330  -27.8980  -49.6140           1 V14302      0.0000 
     18 C18        37.5110  -29.0190  -50.6320           1 V14302      0.0000 
     19 O21        36.2850  -28.9130  -51.3470           1 V14302      0.0000 
     20 N19        36.7470  -25.0650  -53.5800           1 V14302      0.0000 
     21 C14        35.4270  -25.5290  -53.8330           1 V14302      0.0000 
     22 C28        34.3400  -24.4890  -53.5190           1 V14302      0.0000 
     23 C27        33.3370  -24.3000  -54.6740           1 V14302      0.0000 
     24 C26        33.7570  -24.7430  -56.0910           1 V14302      0.0000 
     25 C25        33.4540  -26.2260  -56.4000           1 V14302      0.0000 
     26 C24        34.3700  -27.3450  -55.8790           1 V14302      0.0000 
     27 C23        34.1600  -27.6480  -54.3930           1 V14302      0.0000 
     28 C22        35.1330  -26.9660  -53.4270           1 V14302      0.0000 
@<TRIPOS>BOND
     1    1    2 du   
     2    2    3 du   
     3    2   12 du   
     4    3    4 du   
     5    3    8 du   
     6    4    5 du   
     7    4    6 du   
     8    4    7 du   
     9    8    9 du   
    10    8   10 du   
    11   10   11 du   
    12   10   13 du   
    13   12   13 du   
    14   12   20 du   
    15   13   14 du   
    16   14   15 du   
    17   14   16 du   
    18   14   17 du   
    19   17   18 du   
    20   18   19 du   
    21   20   21 du   
    22   21   22 du   
    23   21   28 du   
    24   22   23 du   
    25   23   24 du   
    26   24   25 du   
    27   25   26 du   
    28   26   27 du   
    29   27   28 du   
@<TRIPOS>SUBSTRUCTURE
     1 V14302      1 GROUP   
@<TRIPOS>SET

