#    Name: 6fe1_4_V14
#    Modification time : Fri May 22 19:24:49 2020

@<TRIPOS>MOLECULE
6fe1_4_V14
   28    29     1     0     0
SMALL
NO_CHARGES


@<TRIPOS>ATOM
      1 F20        26.0990  -18.4920  -86.2560           1 V14302      0.0000 
      2 C5         25.4090  -17.9970  -87.2840           1 V14302      0.0000 
      3 C4         25.9150  -16.7270  -87.8510           1 V14302      0.0000 
      4 S7         27.2640  -16.0500  -87.2950           1 V14302      0.0000 
      5 O9         27.1650  -15.4300  -86.0060           1 V14302      0.0000 
      6 N10        27.7290  -14.8600  -88.2710           1 V14302      0.0000 
      7 O8         28.3070  -17.0240  -87.2290           1 V14302      0.0000 
      8 C3         25.1800  -16.1450  -89.0110           1 V14302      0.0000 
      9 F12        25.5890  -15.0030  -89.5670           1 V14302      0.0000 
     10 C2         23.9830  -16.7850  -89.5780           1 V14302      0.0000 
     11 F13        23.3620  -16.2080  -90.6150           1 V14302      0.0000 
     12 C6         24.1960  -18.6720  -87.8610           1 V14302      0.0000 
     13 C1         23.4630  -18.0350  -89.0020           1 V14302      0.0000 
     14 S11        22.1610  -18.7070  -89.6890           1 V14302      0.0000 
     15 O16        22.6170  -19.0510  -91.0230           1 V14302      0.0000 
     16 O17        21.7730  -19.9390  -89.0730           1 V14302      0.0000 
     17 C15        20.7930  -17.7480  -89.7540           1 V14302      0.0000 
     18 C18        20.0390  -17.7230  -88.4330           1 V14302      0.0000 
     19 O21        20.9080  -17.2420  -87.4120           1 V14302      0.0000 
     20 N19        23.5780  -19.7860  -87.3730           1 V14302      0.0000 
     21 C14        23.6010  -20.3580  -86.0380           1 V14302      0.0000 
     22 C28        24.7810  -21.3060  -85.8390           1 V14302      0.0000 
     23 C27        24.4880  -22.4170  -84.8370           1 V14302      0.0000 
     24 C26        24.3440  -21.8790  -83.4170           1 V14302      0.0000 
     25 C25        22.8850  -21.5920  -83.0650           1 V14302      0.0000 
     26 C24        22.5880  -20.1260  -82.8180           1 V14302      0.0000 
     27 C23        22.2220  -19.4140  -84.1090           1 V14302      0.0000 
     28 C22        23.4480  -19.2400  -84.9960           1 V14302      0.0000 
@<TRIPOS>BOND
     1    1    2 du   
     2    2    3 du   
     3    2   12 du   
     4    3    4 du   
     5    3    8 du   
     6    4    5 du   
     7    4    6 du   
     8    4    7 du   
     9    8    9 du   
    10    8   10 du   
    11   10   11 du   
    12   10   13 du   
    13   12   13 du   
    14   12   20 du   
    15   13   14 du   
    16   14   15 du   
    17   14   16 du   
    18   14   17 du   
    19   17   18 du   
    20   18   19 du   
    21   20   21 du   
    22   21   22 du   
    23   21   28 du   
    24   22   23 du   
    25   23   24 du   
    26   24   25 du   
    27   25   26 du   
    28   26   27 du   
    29   27   28 du   
@<TRIPOS>SUBSTRUCTURE
     1 V14302      1 GROUP   
@<TRIPOS>SET

