#    Name: 6fe1_1_V14
#    Modification time : Fri May 22 19:24:37 2020

@<TRIPOS>MOLECULE
6fe1_1_V14
   28    29     1     0     0
SMALL
NO_CHARGES


@<TRIPOS>ATOM
      1 F20        11.7100  -25.7520  -55.6830           1 V14302      0.0000 
      2 C5         11.2210  -26.2820  -56.8000           1 V14302      0.0000 
      3 C4          9.8130  -26.7280  -56.8110           1 V14302      0.0000 
      4 S7          8.7780  -26.4080  -55.5870           1 V14302      0.0000 
      5 O9          8.9670  -27.2010  -54.4020           1 V14302      0.0000 
      6 N10         7.2800  -26.5260  -56.1820           1 V14302      0.0000 
      7 O8          8.9550  -24.9930  -55.3500           1 V14302      0.0000 
      8 C3          9.3460  -27.3400  -58.0710           1 V14302      0.0000 
      9 F12         8.1260  -27.7760  -58.2240           1 V14302      0.0000 
     10 C2         10.1720  -27.5110  -59.2540           1 V14302      0.0000 
     11 F13         9.6450  -28.0530  -60.3670           1 V14302      0.0000 
     12 C6         12.0860  -26.4400  -58.0210           1 V14302      0.0000 
     13 C1         11.5590  -27.0890  -59.2420           1 V14302      0.0000 
     14 S11        12.3940  -27.2640  -60.6330           1 V14302      0.0000 
     15 O16        13.6530  -26.5840  -60.5460           1 V14302      0.0000 
     16 O17        11.5980  -26.6160  -61.6300           1 V14302      0.0000 
     17 C15        12.6010  -28.8780  -61.0410           1 V14302      0.0000 
     18 C18        13.6200  -29.5700  -60.1530           1 V14302      0.0000 
     19 O21        12.9580  -29.9140  -58.9490           1 V14302      0.0000 
     20 N19        13.4020  -26.1890  -58.1310           1 V14302      0.0000 
     21 C14        14.4680  -26.2890  -57.1730           1 V14302      0.0000 
     22 C28        14.2620  -27.4870  -56.2340           1 V14302      0.0000 
     23 C27        15.5580  -28.1430  -55.7560           1 V14302      0.0000 
     24 C26        16.3000  -27.4930  -54.5850           1 V14302      0.0000 
     25 C25        15.7320  -26.1930  -53.9880           1 V14302      0.0000 
     26 C24        16.2790  -24.9170  -54.6180           1 V14302      0.0000 
     27 C23        16.2100  -24.8600  -56.1270           1 V14302      0.0000 
     28 C22        14.7490  -24.9300  -56.5650           1 V14302      0.0000 
@<TRIPOS>BOND
     1    1    2 du   
     2    2    3 du   
     3    2   12 du   
     4    3    4 du   
     5    3    8 du   
     6    4    5 du   
     7    4    6 du   
     8    4    7 du   
     9    8    9 du   
    10    8   10 du   
    11   10   11 du   
    12   10   13 du   
    13   12   13 du   
    14   12   20 du   
    15   13   14 du   
    16   14   15 du   
    17   14   16 du   
    18   14   17 du   
    19   17   18 du   
    20   18   19 du   
    21   20   21 du   
    22   21   22 du   
    23   21   28 du   
    24   22   23 du   
    25   23   24 du   
    26   24   25 du   
    27   25   26 du   
    28   26   27 du   
    29   27   28 du   
@<TRIPOS>SUBSTRUCTURE
     1 V14302      1 GROUP   
@<TRIPOS>SET

