#    Name: 6ray_2_ADP
#    Modification time : Fri May 22 19:30:27 2020

@<TRIPOS>MOLECULE
6ray_2_ADP
   27    29     1     0     1
SMALL
NO_CHARGES


@<TRIPOS>ATOM
      1 PB        234.6830  217.4830  217.1340 P.3       1 ADP801      0.0000 
      2 O1B       233.6260  217.6790  216.0770 O.co2     1 ADP801      0.0000 
      3 O2B       235.0400  216.0370  217.3320 O.co2     1 ADP801      0.0000 
      4 O3B       234.4110  218.2770  218.3820 O.co2     1 ADP801      0.0000 
      5 PA        236.4450  217.3340  215.0870 P.3       1 ADP801      0.0000 
      6 O1A       235.3480  217.4950  214.0660 O.co2     1 ADP801      0.0000 
      7 O2A       236.9160  215.9530  215.4590 O.co2     1 ADP801      0.0000 
      8 O3A       236.0000  218.0830  216.4360 O.3       1 ADP801      0.0000 
      9 O5'       237.6840  218.1580  214.4750 O.3       1 ADP801      0.0000 
     10 C5'       238.1960  217.6420  213.2470 C.3       1 ADP801      0.0000 
     11 C4'       239.3720  218.4070  212.6480 C.3       1 ADP801      0.0000 
     12 O4'       240.4960  218.4300  213.5290 O.3       1 ADP801      0.0000 
     13 C3'       239.8670  217.7260  211.3850 C.3       1 ADP801      0.0000 
     14 O3'       239.4540  218.4790  210.2430 O.3       1 ADP801      0.0000 
     15 C2'       241.3770  217.7300  211.4710 C.3       1 ADP801      0.0000 
     16 O2'       241.9260  218.4390  210.3580 O.3       1 ADP801      0.0000 
     17 C1'       241.7140  218.4490  212.7690 C.3       1 ADP801      0.0000 
     18 N9        242.7970  217.8110  213.5730 N.pl3     1 ADP801      0.0000 
     19 C8        243.0770  218.1580  214.8390 C.2       1 ADP801      0.0000 
     20 N7        244.1240  217.4700  215.3510 N.2       1 ADP801      0.0000 
     21 C5        244.5690  216.6640  214.3810 C.ar      1 ADP801      0.0000 
     22 C6        245.6570  215.6700  214.2640 C.ar      1 ADP801      0.0000 
     23 N6        246.4870  215.4050  215.3020 N.pl3     1 ADP801      0.0000 
     24 N1        245.7910  215.0370  213.0830 N.ar      1 ADP801      0.0000 
     25 C2        244.9660  215.2950  212.0530 C.ar      1 ADP801      0.0000 
     26 N3        243.9610  216.1840  212.0840 N.ar      1 ADP801      0.0000 
     27 C4        243.7080  216.8990  213.2040 C.ar      1 ADP801      0.0000 
@<TRIPOS>BOND
     1    1    2 ar   
     2    1    3 ar   
     3    1    4 ar   
     4    1    8 1    
     5    5    6 ar   
     6    5    7 ar   
     7    5    8 1    
     8    5    9 1    
     9    9   10 1    
    10   10   11 1    
    11   11   12 1    
    12   11   13 1    
    13   12   17 1    
    14   13   14 1    
    15   13   15 1    
    16   15   16 1    
    17   15   17 1    
    18   17   18 1    
    19   18   19 1    
    20   18   27 1    
    21   19   20 2    
    22   20   21 1    
    23   21   22 ar   
    24   21   27 ar   
    25   22   23 1    
    26   22   24 ar   
    27   24   25 ar   
    28   25   26 ar   
    29   26   27 ar   
@<TRIPOS>SUBSTRUCTURE
     1 ADP801      1 GROUP   
@<TRIPOS>SET
ATOM$ORANGE STATIC     ATOMS   COLORGROUP SYSTEM 
20 10 10 11 11 13 13 15 15 17 17 19 19 21 21 22 22 25 \
25 27 27 

