#    Name: 6gu6_1_1QK
#    Modification time : Fri May 22 19:30:35 2020

@<TRIPOS>MOLECULE
6gu6_1_1QK
   29    32     1     0     0
SMALL
NO_CHARGES


@<TRIPOS>ATOM
      1 C10        23.8040   22.1230   -1.3320 C.2       1 1QK301      0.0000 
      2 N12        23.6830   24.5230   -1.7840 N.pl3     1 1QK301      0.0000 
      3 C13        24.9840   24.8500   -1.2390 C.3       1 1QK301      0.0000 
      4 C15        27.0660   23.6290   -1.9470 C.ar      1 1QK301      0.0000 
      5 C17        28.4410   24.4750   -3.7080 C.ar      1 1QK301      0.0000 
      6 C22        25.1920   19.8470   -0.2950 C.3       1 1QK301      0.0000 
      7 C24        25.6640   17.7860   -1.5250 C.3       1 1QK301      0.0000 
      8 C26        23.2550   18.3940   -1.0240 C.3       1 1QK301      0.0000 
      9 C28        21.1330   17.9010    0.2600 C.3       1 1QK301      0.0000 
     10 C01        17.8770   20.8080   -2.0380 C.3       1 1QK301      0.0000 
     11 C02        19.0040   20.9420   -3.0480 C.3       1 1QK301      0.0000 
     12 C03        20.0040   22.0250   -2.7670 C.2       1 1QK301      0.0000 
     13 C04        19.8990   23.3830   -2.9810 C.2       1 1QK301      0.0000 
     14 N05        21.0200   24.0400   -2.6850 N.2       1 1QK301      0.0000 
     15 N06        21.8680   23.0670   -2.2260 N.pl3     1 1QK301      0.0000 
     16 C07        21.2820   21.8090   -2.2720 C.2       1 1QK301      0.0000 
     17 N08        21.9330   20.7000   -1.8490 N.2       1 1QK301      0.0000 
     18 C09        23.1970   20.8580   -1.3830 C.2       1 1QK301      0.0000 
     19 C11        23.1320   23.2580   -1.7670 C.2       1 1QK301      0.0000 
     20 C14        26.1560   24.6510   -2.1710 C.ar      1 1QK301      0.0000 
     21 C16        28.2140   23.5470   -2.7230 C.ar      1 1QK301      0.0000 
     22 N18        27.5410   25.4520   -3.9350 N.pl3     1 1QK301      0.0000 
     23 C19        26.3870   25.5100   -3.2280 C.ar      1 1QK301      0.0000 
     24 O20        27.7920   26.3560   -4.8590 O.2       1 1QK301      0.0000 
     25 N21        23.8760   19.7390   -0.9460 N.3       1 1QK301      0.0000 
     26 C23        25.9010   18.5230   -0.2510 C.3       1 1QK301      0.0000 
     27 C25        24.2140   17.3400   -1.5710 C.3       1 1QK301      0.0000 
     28 C27        22.6370   18.0120    0.3240 C.3       1 1QK301      0.0000 
     29 O29        20.5090   19.0930   -0.2030 O.3       1 1QK301      0.0000 
@<TRIPOS>BOND
     1    1   18 1    
     2    1   19 2    
     3    2    3 1    
     4    2   19 1    
     5    3   20 1    
     6    4   20 ar   
     7    4   21 ar   
     8    5   21 ar   
     9    5   22 ar   
    10    6   25 1    
    11    6   26 1    
    12    7   26 1    
    13    7   27 1    
    14    8   25 1    
    15    8   27 1    
    16    8   28 1    
    17    9   28 1    
    18    9   29 1    
    19   10   11 1    
    20   11   12 1    
    21   12   13 1    
    22   12   16 2    
    23   13   14 2    
    24   14   15 1    
    25   15   16 1    
    26   15   19 1    
    27   16   17 1    
    28   17   18 2    
    29   18   25 1    
    30   20   23 ar   
    31   22   23 ar   
    32   22   24 1    
@<TRIPOS>SUBSTRUCTURE
     1 1QK301      1 GROUP   
@<TRIPOS>SET

