#    Name: 5ztb_1_ATP
#    Modification time : Fri May 22 19:23:35 2020

@<TRIPOS>MOLECULE
5ztb_1_ATP
   31    33     1     0     1
SMALL
NO_CHARGES


@<TRIPOS>ATOM
      1 PG       -297.1850  -49.3580  -86.0030 P.3       1 ATP404      0.0000 
      2 O1G      -296.6750  -49.6420  -87.3900 O.co2     1 ATP404      0.0000 
      3 O2G      -296.9060  -47.9740  -85.4640 O.co2     1 ATP404      0.0000 
      4 O3G      -298.5960  -49.8330  -85.7550 O.co2     1 ATP404      0.0000 
      5 PB       -296.7700  -51.6720  -84.4280 P.3       1 ATP404      0.0000 
      6 O1B      -297.8080  -52.3320  -85.3060 O.co2     1 ATP404      0.0000 
      7 O2B      -297.0780  -51.4090  -82.9740 O.co2     1 ATP404      0.0000 
      8 O3B      -296.2500  -50.3090  -85.1040 O.3       1 ATP404      0.0000 
      9 PA       -295.4380  -54.1150  -84.7460 P.3       1 ATP404      0.0000 
     10 O1A      -294.0150  -54.6260  -84.7210 O.co2     1 ATP404      0.0000 
     11 O2A      -296.4710  -54.6450  -83.7770 O.co2     1 ATP404      0.0000 
     12 O3A      -295.4040  -52.5230  -84.5400 O.3       1 ATP404      0.0000 
     13 O5'      -295.9910  -54.2960  -86.2490 O.3       1 ATP404      0.0000 
     14 C5'      -295.3040  -53.6940  -87.3440 C.3       1 ATP404      0.0000 
     15 C4'      -296.1990  -53.6380  -88.5780 C.3       1 ATP404      0.0000 
     16 O4'      -296.9770  -54.8330  -88.7360 O.3       1 ATP404      0.0000 
     17 C3'      -297.2050  -52.5050  -88.4860 C.3       1 ATP404      0.0000 
     18 O3'      -296.6720  -51.2780  -88.9970 O.3       1 ATP404      0.0000 
     19 C2'      -298.3510  -53.0010  -89.3310 C.3       1 ATP404      0.0000 
     20 O2'      -298.0960  -52.6430  -90.6940 O.3       1 ATP404      0.0000 
     21 C1'      -298.3010  -54.5120  -89.1770 C.3       1 ATP404      0.0000 
     22 N9       -299.3040  -54.8970  -88.1440 N.pl3     1 ATP404      0.0000 
     23 C8       -299.0630  -55.0310  -86.8250 C.2       1 ATP404      0.0000 
     24 N7       -300.1860  -55.3820  -86.1470 N.2       1 ATP404      0.0000 
     25 C5       -301.1860  -55.4770  -87.0400 C.ar      1 ATP404      0.0000 
     26 C6       -302.6340  -55.8120  -86.9930 C.ar      1 ATP404      0.0000 
     27 N6       -303.2490  -56.1240  -85.8240 N.pl3     1 ATP404      0.0000 
     28 N1       -303.3200  -55.7960  -88.1580 N.ar      1 ATP404      0.0000 
     29 C2       -302.7210  -55.4880  -89.3250 C.ar      1 ATP404      0.0000 
     30 N3       -301.4150  -55.1760  -89.4380 N.ar      1 ATP404      0.0000 
     31 C4       -300.6010  -55.1540  -88.3540 C.ar      1 ATP404      0.0000 
@<TRIPOS>BOND
     1    1    2 ar   
     2    1    3 ar   
     3    1    4 ar   
     4    1    8 1    
     5    5    6 ar   
     6    5    7 ar   
     7    5    8 1    
     8    5   12 1    
     9    9   10 ar   
    10    9   11 ar   
    11    9   12 1    
    12    9   13 1    
    13   13   14 1    
    14   14   15 1    
    15   15   16 1    
    16   15   17 1    
    17   16   21 1    
    18   17   18 1    
    19   17   19 1    
    20   19   20 1    
    21   19   21 1    
    22   21   22 1    
    23   22   23 1    
    24   22   31 1    
    25   23   24 2    
    26   24   25 1    
    27   25   26 ar   
    28   25   31 ar   
    29   26   27 1    
    30   26   28 ar   
    31   28   29 ar   
    32   29   30 ar   
    33   30   31 ar   
@<TRIPOS>SUBSTRUCTURE
     1 ATP404      1 GROUP   
@<TRIPOS>SET
ATOM$ORANGE STATIC     ATOMS   COLORGROUP SYSTEM 
20 14 14 15 15 17 17 19 19 21 21 23 23 25 25 26 26 29 \
29 31 31 

