#    Name: 5ztb_3_ATP
#    Modification time : Fri May 22 19:23:44 2020

@<TRIPOS>MOLECULE
5ztb_3_ATP
   31    33     1     0     1
SMALL
NO_CHARGES


@<TRIPOS>ATOM
      1 PG       -250.0570  -25.7180 -115.6590 P.3       1 ATP404      0.0000 
      2 O1G      -251.3400  -26.1900 -116.3020 O.co2     1 ATP404      0.0000 
      3 O2G      -249.3280  -26.8000 -114.9050 O.co2     1 ATP404      0.0000 
      4 O3G      -250.1890  -24.4020 -114.9320 O.co2     1 ATP404      0.0000 
      5 PB       -249.5310  -25.3030 -118.4230 P.3       1 ATP404      0.0000 
      6 O1B      -248.2770  -25.1190 -119.2440 O.co2     1 ATP404      0.0000 
      7 O2B      -250.6380  -24.2780 -118.5030 O.co2     1 ATP404      0.0000 
      8 O3B      -249.0560  -25.4040 -116.8840 O.3       1 ATP404      0.0000 
      9 PA       -250.2560  -27.4410 -120.1880 P.3       1 ATP404      0.0000 
     10 O1A      -249.3090  -26.7540 -121.1440 O.co2     1 ATP404      0.0000 
     11 O2A      -251.7180  -27.5620 -120.5430 O.co2     1 ATP404      0.0000 
     12 O3A      -250.1680  -26.7570 -118.7270 O.3       1 ATP404      0.0000 
     13 O5'      -249.6910  -28.9140 -119.8650 O.3       1 ATP404      0.0000 
     14 C5'      -250.3290  -29.6900 -118.8520 C.3       1 ATP404      0.0000 
     15 C4'      -249.3140  -30.4190 -117.9790 C.3       1 ATP404      0.0000 
     16 O4'      -248.1560  -30.8040 -118.7250 O.3       1 ATP404      0.0000 
     17 C3'      -248.8080  -29.5370 -116.8500 C.3       1 ATP404      0.0000 
     18 O3'      -249.6030  -29.6860 -115.6700 O.3       1 ATP404      0.0000 
     19 C2'      -247.3920  -30.0150 -116.6220 C.3       1 ATP404      0.0000 
     20 O2'      -247.3790  -30.9950 -115.5790 O.3       1 ATP404      0.0000 
     21 C1'      -246.9750  -30.6670 -117.9290 C.3       1 ATP404      0.0000 
     22 N9       -246.0110  -29.7550 -118.5970 N.pl3     1 ATP404      0.0000 
     23 C8       -246.3350  -28.7540 -119.4380 C.2       1 ATP404      0.0000 
     24 N7       -245.2270  -28.1010 -119.8760 N.2       1 ATP404      0.0000 
     25 C5       -244.1620  -28.6880 -119.3020 C.ar      1 ATP404      0.0000 
     26 C6       -242.6930  -28.4900 -119.3320 C.ar      1 ATP404      0.0000 
     27 N6       -242.1360  -27.5090 -120.0860 N.pl3     1 ATP404      0.0000 
     28 N1       -241.9320  -29.3230 -118.5840 N.ar      1 ATP404      0.0000 
     29 C2       -242.4780  -30.3020 -117.8350 C.ar      1 ATP404      0.0000 
     30 N3       -243.8010  -30.5350 -117.7590 N.ar      1 ATP404      0.0000 
     31 C4       -244.6820  -29.7760 -118.4580 C.ar      1 ATP404      0.0000 
@<TRIPOS>BOND
     1    1    2 ar   
     2    1    3 ar   
     3    1    4 ar   
     4    1    8 1    
     5    5    6 ar   
     6    5    7 ar   
     7    5    8 1    
     8    5   12 1    
     9    9   10 ar   
    10    9   11 ar   
    11    9   12 1    
    12    9   13 1    
    13   13   14 1    
    14   14   15 1    
    15   15   16 1    
    16   15   17 1    
    17   16   21 1    
    18   17   18 1    
    19   17   19 1    
    20   19   20 1    
    21   19   21 1    
    22   21   22 1    
    23   22   23 1    
    24   22   31 1    
    25   23   24 2    
    26   24   25 1    
    27   25   26 ar   
    28   25   31 ar   
    29   26   27 1    
    30   26   28 ar   
    31   28   29 ar   
    32   29   30 ar   
    33   30   31 ar   
@<TRIPOS>SUBSTRUCTURE
     1 ATP404      1 GROUP   
@<TRIPOS>SET
ATOM$ORANGE STATIC     ATOMS   COLORGROUP SYSTEM 
20 14 14 15 15 17 17 19 19 21 21 23 23 25 25 26 26 29 \
29 31 31 

