#    Name: 5ztb_2_ATP
#    Modification time : Fri May 22 19:23:39 2020

@<TRIPOS>MOLECULE
5ztb_2_ATP
   31    33     1     0     1
SMALL
NO_CHARGES


@<TRIPOS>ATOM
      1 PG       -255.2790  -53.3790  -70.4370 P.3       1 ATP404      0.0000 
      2 O1G      -255.6950  -53.8000  -71.8270 O.co2     1 ATP404      0.0000 
      3 O2G      -253.8380  -53.6900  -70.1230 O.co2     1 ATP404      0.0000 
      4 O3G      -256.2480  -53.6940  -69.3190 O.co2     1 ATP404      0.0000 
      5 PB       -254.9990  -50.8900  -71.7250 P.3       1 ATP404      0.0000 
      6 O1B      -253.6640  -51.4060  -72.2090 O.co2     1 ATP404      0.0000 
      7 O2B      -255.1570  -49.4550  -71.2770 O.co2     1 ATP404      0.0000 
      8 O3B      -255.3970  -51.7770  -70.4470 O.3       1 ATP404      0.0000 
      9 PA       -255.8670  -50.8730  -74.4340 P.3       1 ATP404      0.0000 
     10 O1A      -257.0980  -51.2980  -75.1990 O.co2     1 ATP404      0.0000 
     11 O2A      -255.3620  -49.4560  -74.5770 O.co2     1 ATP404      0.0000 
     12 O3A      -256.1110  -51.2010  -72.8620 O.3       1 ATP404      0.0000 
     13 O5'      -254.6710  -51.8620  -74.8670 O.3       1 ATP404      0.0000 
     14 C5'      -254.9160  -53.0610  -75.5950 C.3       1 ATP404      0.0000 
     15 C4'      -253.6910  -53.9600  -75.4880 C.3       1 ATP404      0.0000 
     16 O4'      -252.5650  -53.3640  -76.1350 O.3       1 ATP404      0.0000 
     17 C3'      -253.2600  -54.1610  -74.0450 C.3       1 ATP404      0.0000 
     18 O3'      -253.9240  -55.2720  -73.4350 O.3       1 ATP404      0.0000 
     19 C2'      -251.7700  -54.3840  -74.1590 C.3       1 ATP404      0.0000 
     20 O2'      -251.5050  -55.7700  -74.4170 O.3       1 ATP404      0.0000 
     21 C1'      -251.3720  -53.5650  -75.3710 C.3       1 ATP404      0.0000 
     22 N9       -250.8510  -52.2610  -74.8840 N.pl3     1 ATP404      0.0000 
     23 C8       -251.5900  -51.1620  -74.6320 C.2       1 ATP404      0.0000 
     24 N7       -250.8080  -50.1420  -74.1950 N.2       1 ATP404      0.0000 
     25 C5       -249.5390  -50.5750  -74.1590 C.ar      1 ATP404      0.0000 
     26 C6       -248.2190  -50.0050  -73.7900 C.ar      1 ATP404      0.0000 
     27 N6       -248.0910  -48.7190  -73.3590 N.pl3     1 ATP404      0.0000 
     28 N1       -247.1410  -50.8170  -73.8980 N.ar      1 ATP404      0.0000 
     29 C2       -247.2440  -52.0900  -74.3240 C.ar      1 ATP404      0.0000 
     30 N3       -248.4060  -52.6660  -74.6720 N.ar      1 ATP404      0.0000 
     31 C4       -249.5720  -51.9780  -74.6130 C.ar      1 ATP404      0.0000 
@<TRIPOS>BOND
     1    1    2 ar   
     2    1    3 ar   
     3    1    4 ar   
     4    1    8 1    
     5    5    6 ar   
     6    5    7 ar   
     7    5    8 1    
     8    5   12 1    
     9    9   10 ar   
    10    9   11 ar   
    11    9   12 1    
    12    9   13 1    
    13   13   14 1    
    14   14   15 1    
    15   15   16 1    
    16   15   17 1    
    17   16   21 1    
    18   17   18 1    
    19   17   19 1    
    20   19   20 1    
    21   19   21 1    
    22   21   22 1    
    23   22   23 1    
    24   22   31 1    
    25   23   24 2    
    26   24   25 1    
    27   25   26 ar   
    28   25   31 ar   
    29   26   27 1    
    30   26   28 ar   
    31   28   29 ar   
    32   29   30 ar   
    33   30   31 ar   
@<TRIPOS>SUBSTRUCTURE
     1 ATP404      1 GROUP   
@<TRIPOS>SET
ATOM$ORANGE STATIC     ATOMS   COLORGROUP SYSTEM 
20 14 14 15 15 17 17 19 19 21 21 23 23 25 25 26 26 29 \
29 31 31 

