#    Name: 6jpl_1_SAM
#    Modification time : Fri May 22 19:36:59 2020

@<TRIPOS>MOLECULE
6jpl_1_SAM
   27    29     1     0     0
SMALL
NO_CHARGES


@<TRIPOS>ATOM
      1 N         -70.5920   54.5280   27.8460 N.4       1 SAM401      0.0000 
      2 CA        -69.9080   55.6750   28.4410 C.3       1 SAM401      0.0000 
      3 C         -69.0180   56.3870   27.3990 C.2       1 SAM401      0.0000 
      4 O         -68.8830   57.6360   27.3410 O.co2     1 SAM401      0.0000 
      5 OXT       -68.4080   55.6880   26.5770 O.co2     1 SAM401      0.0000 
      6 CB        -69.1500   55.2760   29.7260 C.3       1 SAM401      0.0000 
      7 CG        -69.9890   54.6200   30.8350 C.3       1 SAM401      0.0000 
      8 SD        -69.3470   54.8650   32.5290 S.3       1 SAM401      0.0000 
      9 CE        -67.8380   53.8590   32.4420 C.3       1 SAM401      0.0000 
     10 C5'       -70.4800   53.9330   33.6270 C.3       1 SAM401      0.0000 
     11 C4'       -71.9430   54.4260   33.6550 C.3       1 SAM401      0.0000 
     12 O4'       -72.8540   53.4220   34.0960 O.3       1 SAM401      0.0000 
     13 C3'       -72.2150   55.6310   34.5570 C.3       1 SAM401      0.0000 
     14 O3'       -72.5620   56.7360   33.7470 O.3       1 SAM401      0.0000 
     15 C2'       -73.3980   55.2320   35.4280 C.3       1 SAM401      0.0000 
     16 O2'       -74.3350   56.2740   35.5380 O.3       1 SAM401      0.0000 
     17 C1'       -73.9890   54.0690   34.6500 C.3       1 SAM401      0.0000 
     18 N9        -74.8990   53.1830   35.4230 N.pl3     1 SAM401      0.0000 
     19 C8        -74.5790   52.4050   36.5090 C.2       1 SAM401      0.0000 
     20 N7        -75.7010   51.7510   36.9140 N.2       1 SAM401      0.0000 
     21 C5        -76.7430   52.0940   36.1140 C.ar      1 SAM401      0.0000 
     22 C6        -78.1000   51.7230   36.0870 C.ar      1 SAM401      0.0000 
     23 N6        -78.5990   50.8630   36.9810 N.pl3     1 SAM401      0.0000 
     24 N1        -78.9440   52.2550   35.1180 N.ar      1 SAM401      0.0000 
     25 C2        -78.4320   53.1460   34.1920 C.ar      1 SAM401      0.0000 
     26 N3        -77.0910   53.5040   34.2290 N.ar      1 SAM401      0.0000 
     27 C4        -76.2490   52.9940   35.1690 C.ar      1 SAM401      0.0000 
@<TRIPOS>BOND
     1    1    2 1    
     2    2    3 1    
     3    2    6 1    
     4    3    4 ar   
     5    3    5 ar   
     6    6    7 1    
     7    7    8 1    
     8    8    9 1    
     9    8   10 1    
    10   10   11 1    
    11   11   12 1    
    12   11   13 1    
    13   12   17 1    
    14   13   14 1    
    15   13   15 1    
    16   15   16 1    
    17   15   17 1    
    18   17   18 1    
    19   18   19 1    
    20   18   27 1    
    21   19   20 2    
    22   20   21 1    
    23   21   22 ar   
    24   21   27 ar   
    25   22   23 1    
    26   22   24 ar   
    27   24   25 ar   
    28   25   26 ar   
    29   26   27 ar   
@<TRIPOS>SUBSTRUCTURE
     1 SAM401      1 GROUP   
@<TRIPOS>SET

