#    Name: 6jpl_2_SAM
#    Modification time : Fri May 22 19:37:07 2020

@<TRIPOS>MOLECULE
6jpl_2_SAM
   27    29     1     0     0
SMALL
NO_CHARGES


@<TRIPOS>ATOM
      1 N         -70.5640   77.4420   38.9000 N.4       1 SAM401      0.0000 
      2 CA        -69.8380   76.3170   38.3120 C.3       1 SAM401      0.0000 
      3 C         -68.9230   75.6450   39.3540 C.2       1 SAM401      0.0000 
      4 O         -68.8180   74.4010   39.4540 O.co2     1 SAM401      0.0000 
      5 OXT       -68.2720   76.3620   40.1250 O.co2     1 SAM401      0.0000 
      6 CB        -69.0920   76.7190   37.0190 C.3       1 SAM401      0.0000 
      7 CG        -69.9690   77.3440   35.9180 C.3       1 SAM401      0.0000 
      8 SD        -69.3250   77.1520   34.2170 S.3       1 SAM401      0.0000 
      9 CE        -67.8240   78.1660   34.3400 C.3       1 SAM401      0.0000 
     10 C5'       -70.4760   78.1250   33.1770 C.3       1 SAM401      0.0000 
     11 C4'       -71.9400   77.6340   33.1250 C.3       1 SAM401      0.0000 
     12 O4'       -72.8520   78.6460   32.7080 O.3       1 SAM401      0.0000 
     13 C3'       -72.2090   76.4560   32.1840 C.3       1 SAM401      0.0000 
     14 O3'       -72.4740   75.3030   32.9600 O.3       1 SAM401      0.0000 
     15 C2'       -73.4300   76.8590   31.3590 C.3       1 SAM401      0.0000 
     16 O2'       -74.3840   75.8300   31.2300 O.3       1 SAM401      0.0000 
     17 C1'       -73.9970   77.9960   32.1870 C.3       1 SAM401      0.0000 
     18 N9        -74.9320   78.8820   31.4560 N.pl3     1 SAM401      0.0000 
     19 C8        -74.6500   79.6640   30.3620 C.2       1 SAM401      0.0000 
     20 N7        -75.7880   80.3190   30.0050 N.2       1 SAM401      0.0000 
     21 C5        -76.7980   79.9710   30.8440 C.ar      1 SAM401      0.0000 
     22 C6        -78.1520   80.3450   30.9280 C.ar      1 SAM401      0.0000 
     23 N6        -78.6870   81.2020   30.0510 N.pl3     1 SAM401      0.0000 
     24 N1        -78.9590   79.8050   31.9200 N.ar      1 SAM401      0.0000 
     25 C2        -78.4090   78.9060   32.8190 C.ar      1 SAM401      0.0000 
     26 N3        -77.0700   78.5490   32.7300 N.ar      1 SAM401      0.0000 
     27 C4        -76.2680   79.0640   31.7620 C.ar      1 SAM401      0.0000 
@<TRIPOS>BOND
     1    1    2 1    
     2    2    3 1    
     3    2    6 1    
     4    3    4 ar   
     5    3    5 ar   
     6    6    7 1    
     7    7    8 1    
     8    8    9 1    
     9    8   10 1    
    10   10   11 1    
    11   11   12 1    
    12   11   13 1    
    13   12   17 1    
    14   13   14 1    
    15   13   15 1    
    16   15   16 1    
    17   15   17 1    
    18   17   18 1    
    19   18   19 1    
    20   18   27 1    
    21   19   20 2    
    22   20   21 1    
    23   21   22 ar   
    24   21   27 ar   
    25   22   23 1    
    26   22   24 ar   
    27   24   25 ar   
    28   25   26 ar   
    29   26   27 ar   
@<TRIPOS>SUBSTRUCTURE
     1 SAM401      1 GROUP   
@<TRIPOS>SET

