#    Name: 6izr_18_ADP
#    Modification time : Fri May 22 19:29:31 2020

@<TRIPOS>MOLECULE
6izr_18_ADP
   27    29     1     0     1
SMALL
NO_CHARGES


@<TRIPOS>ATOM
      1 PB        230.5350  179.2500   81.6210 P.3       1 ADP401      0.0000 
      2 O1B       230.5150  179.7330   80.1830 O.co2     1 ADP401      0.0000 
      3 O2B       229.9350  180.1590   82.6840 O.co2     1 ADP401      0.0000 
      4 O3B       231.8850  178.6940   81.9990 O.co2     1 ADP401      0.0000 
      5 PA        228.2020  177.7010   80.8880 P.3       1 ADP401      0.0000 
      6 O1A       227.9140  178.8620   79.9720 O.co2     1 ADP401      0.0000 
      7 O2A       227.1470  177.2550   81.8700 O.co2     1 ADP401      0.0000 
      8 O3A       229.5520  177.9720   81.7320 O.3       1 ADP401      0.0000 
      9 O5'       228.6630  176.4340   80.0050 O.3       1 ADP401      0.0000 
     10 C5'       228.2500  176.2760   78.6470 C.3       1 ADP401      0.0000 
     11 C4'       228.9300  175.0520   78.0410 C.3       1 ADP401      0.0000 
     12 O4'       228.0550  173.9430   78.2070 O.3       1 ADP401      0.0000 
     13 C3'       229.1700  175.1720   76.5400 C.3       1 ADP401      0.0000 
     14 O3'       230.5420  175.4340   76.2360 O.3       1 ADP401      0.0000 
     15 C2'       228.7220  173.8600   75.9180 C.3       1 ADP401      0.0000 
     16 O2'       229.8060  173.0210   75.5050 O.3       1 ADP401      0.0000 
     17 C1'       227.9790  173.1490   77.0220 C.3       1 ADP401      0.0000 
     18 N9        226.5750  172.9910   76.5890 N.pl3     1 ADP401      0.0000 
     19 C8        225.5280  173.7800   76.8930 C.2       1 ADP401      0.0000 
     20 N7        224.3910  173.3150   76.3200 N.2       1 ADP401      0.0000 
     21 C5        224.7220  172.2050   75.6370 C.ar      1 ADP401      0.0000 
     22 C6        224.0130  171.2180   74.8020 C.ar      1 ADP401      0.0000 
     23 N6        222.6780  171.3250   74.5780 N.pl3     1 ADP401      0.0000 
     24 N1        224.7450  170.2110   74.2760 N.ar      1 ADP401      0.0000 
     25 C2        226.0690  170.0910   74.4900 C.ar      1 ADP401      0.0000 
     26 N3        226.7760  170.9480   75.2370 N.ar      1 ADP401      0.0000 
     27 C4        226.1610  172.0010   75.8160 C.ar      1 ADP401      0.0000 
@<TRIPOS>BOND
     1    1    2 ar   
     2    1    3 ar   
     3    1    4 ar   
     4    1    8 1    
     5    5    6 ar   
     6    5    7 ar   
     7    5    8 1    
     8    5    9 1    
     9    9   10 1    
    10   10   11 1    
    11   11   12 1    
    12   11   13 1    
    13   12   17 1    
    14   13   14 1    
    15   13   15 1    
    16   15   16 1    
    17   15   17 1    
    18   17   18 1    
    19   18   19 1    
    20   18   27 1    
    21   19   20 2    
    22   20   21 1    
    23   21   22 ar   
    24   21   27 ar   
    25   22   23 1    
    26   22   24 ar   
    27   24   25 ar   
    28   25   26 ar   
    29   26   27 ar   
@<TRIPOS>SUBSTRUCTURE
     1 ADP401      1 GROUP   
@<TRIPOS>SET
ATOM$ORANGE STATIC     ATOMS   COLORGROUP SYSTEM 
20 10 10 11 11 13 13 15 15 17 17 19 19 21 21 22 22 25 \
25 27 27 

