#    Name: 6izr_1_ADP
#    Modification time : Fri May 22 19:26:10 2020

@<TRIPOS>MOLECULE
6izr_1_ADP
   27    29     1     0     1
SMALL
NO_CHARGES


@<TRIPOS>ATOM
      1 PB        143.0140  138.9280  124.8570 P.3       1 ADP401      0.0000 
      2 O1B       143.2800  138.7880  123.3690 O.co2     1 ADP401      0.0000 
      3 O2B       144.1340  139.4690  125.7330 O.co2     1 ADP401      0.0000 
      4 O3B       142.3560  137.6920  125.4190 O.co2     1 ADP401      0.0000 
      5 PA        141.6720  141.3930  124.1490 P.3       1 ADP401      0.0000 
      6 O1A       142.7140  141.4630  123.0640 O.co2     1 ADP401      0.0000 
      7 O2A       141.5070  142.5600  125.0910 O.co2     1 ADP401      0.0000 
      8 O3A       141.8960  140.0770  125.0600 O.3       1 ADP401      0.0000 
      9 O5'       140.2440  141.0490  123.4880 O.3       1 ADP401      0.0000 
     10 C5'       139.9420  141.3900  122.1350 C.3       1 ADP401      0.0000 
     11 C4'       138.5690  140.8410  121.7590 C.3       1 ADP401      0.0000 
     12 O4'       137.6130  141.8660  122.0010 O.3       1 ADP401      0.0000 
     13 C3'       138.4380  140.4910  120.2820 C.3       1 ADP401      0.0000 
     14 O3'       138.4820  139.0780  120.0610 O.3       1 ADP401      0.0000 
     15 C2'       137.1140  141.0670  119.8090 C.3       1 ADP401      0.0000 
     16 O2'       136.0970  140.0800  119.6070 O.3       1 ADP401      0.0000 
     17 C1'       136.6690  141.9690  120.9340 C.3       1 ADP401      0.0000 
     18 N9        136.6230  143.3510  120.4100 N.pl3     1 ADP401      0.0000 
     19 C8        137.5710  144.3010  120.5160 C.2       1 ADP401      0.0000 
     20 N7        137.1690  145.4490  119.9180 N.2       1 ADP401      0.0000 
     21 C5        135.9410  145.2260  119.4230 C.ar      1 ADP401      0.0000 
     22 C6        134.9370  146.0050  118.6740 C.ar      1 ADP401      0.0000 
     23 N6        135.1740  147.2950  118.3270 N.pl3     1 ADP401      0.0000 
     24 N1        133.7820  145.3800  118.3530 N.ar      1 ADP401      0.0000 
     25 C2        133.5330  144.1020  118.6900 C.ar      1 ADP401      0.0000 
     26 N3        134.3950  143.3360  119.3700 N.ar      1 ADP401      0.0000 
     27 C4        135.5880  143.8410  119.7470 C.ar      1 ADP401      0.0000 
@<TRIPOS>BOND
     1    1    2 ar   
     2    1    3 ar   
     3    1    4 ar   
     4    1    8 1    
     5    5    6 ar   
     6    5    7 ar   
     7    5    8 1    
     8    5    9 1    
     9    9   10 1    
    10   10   11 1    
    11   11   12 1    
    12   11   13 1    
    13   12   17 1    
    14   13   14 1    
    15   13   15 1    
    16   15   16 1    
    17   15   17 1    
    18   17   18 1    
    19   18   19 1    
    20   18   27 1    
    21   19   20 2    
    22   20   21 1    
    23   21   22 ar   
    24   21   27 ar   
    25   22   23 1    
    26   22   24 ar   
    27   24   25 ar   
    28   25   26 ar   
    29   26   27 ar   
@<TRIPOS>SUBSTRUCTURE
     1 ADP401      1 GROUP   
@<TRIPOS>SET
ATOM$ORANGE STATIC     ATOMS   COLORGROUP SYSTEM 
20 10 10 11 11 13 13 15 15 17 17 19 19 21 21 22 22 25 \
25 27 27 

