#    Name: 6izr_23_ADP
#    Modification time : Fri May 22 19:30:28 2020

@<TRIPOS>MOLECULE
6izr_23_ADP
   27    29     1     0     1
SMALL
NO_CHARGES


@<TRIPOS>ATOM
      1 PB         57.8940  191.2980  130.2530 P.3       1 ADP401      0.0000 
      2 O1B        57.9950  191.1490  128.7450 O.co2     1 ADP401      0.0000 
      3 O2B        58.4170  192.5840  130.8770 O.co2     1 ADP401      0.0000 
      4 O3B        58.3600  190.0510  130.9640 O.co2     1 ADP401      0.0000 
      5 PA         55.1400  192.0430  129.7610 P.3       1 ADP401      0.0000 
      6 O1A        55.6920  192.6350  128.4910 O.co2     1 ADP401      0.0000 
      7 O2A        54.3250  192.9110  130.6880 O.co2     1 ADP401      0.0000 
      8 O3A        56.3280  191.3930  130.6410 O.3       1 ADP401      0.0000 
      9 O5'        54.2900  190.7230  129.4020 O.3       1 ADP401      0.0000 
     10 C5'        53.6700  190.5530  128.1260 C.3       1 ADP401      0.0000 
     11 C4'        53.0380  189.1660  128.0410 C.3       1 ADP401      0.0000 
     12 O4'        51.6780  189.2870  128.4400 O.3       1 ADP401      0.0000 
     13 C3'        53.0070  188.5990  126.6260 C.3       1 ADP401      0.0000 
     14 O3'        53.9940  187.5810  126.4360 O.3       1 ADP401      0.0000 
     15 C2'        51.6120  188.0370  126.4080 C.3       1 ADP401      0.0000 
     16 O2'        51.5570  186.6070  126.4320 O.3       1 ADP401      0.0000 
     17 C1'        50.8080  188.5540  127.5760 C.3       1 ADP401      0.0000 
     18 N9         49.7470  189.4310  127.0370 N.pl3     1 ADP401      0.0000 
     19 C8         49.7670  190.7730  126.9320 C.2       1 ADP401      0.0000 
     20 N7         48.6090  191.2310  126.3960 N.2       1 ADP401      0.0000 
     21 C5         47.8360  190.1580  126.1570 C.ar      1 ADP401      0.0000 
     22 C6         46.4910  189.9180  125.6010 C.ar      1 ADP401      0.0000 
     23 N6         45.7160  190.9510  125.1810 N.pl3     1 ADP401      0.0000 
     24 N1         46.0720  188.6360  125.5280 N.ar      1 ADP401      0.0000 
     25 C2         46.8290  187.6020  125.9390 C.ar      1 ADP401      0.0000 
     26 N3         48.0570  187.7450  126.4550 N.ar      1 ADP401      0.0000 
     27 C4         48.5940  188.9770  126.5780 C.ar      1 ADP401      0.0000 
@<TRIPOS>BOND
     1    1    2 ar   
     2    1    3 ar   
     3    1    4 ar   
     4    1    8 1    
     5    5    6 ar   
     6    5    7 ar   
     7    5    8 1    
     8    5    9 1    
     9    9   10 1    
    10   10   11 1    
    11   11   12 1    
    12   11   13 1    
    13   12   17 1    
    14   13   14 1    
    15   13   15 1    
    16   15   16 1    
    17   15   17 1    
    18   17   18 1    
    19   18   19 1    
    20   18   27 1    
    21   19   20 2    
    22   20   21 1    
    23   21   22 ar   
    24   21   27 ar   
    25   22   23 1    
    26   22   24 ar   
    27   24   25 ar   
    28   25   26 ar   
    29   26   27 ar   
@<TRIPOS>SUBSTRUCTURE
     1 ADP401      1 GROUP   
@<TRIPOS>SET
ATOM$ORANGE STATIC     ATOMS   COLORGROUP SYSTEM 
20 10 10 11 11 13 13 15 15 17 17 19 19 21 21 22 22 25 \
25 27 27 

