#    Name: 6izr_27_ADP
#    Modification time : Fri May 22 19:31:12 2020

@<TRIPOS>MOLECULE
6izr_27_ADP
   27    29     1     0     1
SMALL
NO_CHARGES


@<TRIPOS>ATOM
      1 PB         94.5880   57.9610  131.1830 P.3       1 ADP401      0.0000 
      2 O1B        95.0530   57.9330  129.7390 O.co2     1 ADP401      0.0000 
      3 O2B        94.8660   59.2190  131.9950 O.co2     1 ADP401      0.0000 
      4 O3B        94.9520   56.6870  131.9060 O.co2     1 ADP401      0.0000 
      5 PA         91.9880   58.6110  130.0920 P.3       1 ADP401      0.0000 
      6 O1A        92.7860   59.3220  129.0320 O.co2     1 ADP401      0.0000 
      7 O2A        90.9250   59.3680  130.8490 O.co2     1 ADP401      0.0000 
      8 O3A        92.9720   57.9520  131.1890 O.3       1 ADP401      0.0000 
      9 O5'        91.3320   57.2830  129.4570 O.3       1 ADP401      0.0000 
     10 C5'        91.0450   57.1820  128.0620 C.3       1 ADP401      0.0000 
     11 C4'        90.5400   55.7780  127.7410 C.3       1 ADP401      0.0000 
     12 O4'        89.1190   55.8040  127.8070 O.3       1 ADP401      0.0000 
     13 C3'        90.8810   55.3190  126.3280 C.3       1 ADP401      0.0000 
     14 O3'        91.9480   54.3670  126.3170 O.3       1 ADP401      0.0000 
     15 C2'        89.6150   54.7110  125.7460 C.3       1 ADP401      0.0000 
     16 O2'        89.6470   53.2820  125.6680 O.3       1 ADP401      0.0000 
     17 C1'        88.5260   55.1000  126.7160 C.3       1 ADP401      0.0000 
     18 N9         87.5690   55.9660  125.9940 N.pl3     1 ADP401      0.0000 
     19 C8         87.5290   57.3110  125.9810 C.2       1 ADP401      0.0000 
     20 N7         86.5040   57.7530  125.2120 N.2       1 ADP401      0.0000 
     21 C5         85.8790   56.6670  124.7270 C.ar      1 ADP401      0.0000 
     22 C6         84.7220   56.4080  123.8500 C.ar      1 ADP401      0.0000 
     23 N6         84.0040   57.4310  123.3220 N.pl3     1 ADP401      0.0000 
     24 N1         84.4140   55.1160  123.6000 N.ar      1 ADP401      0.0000 
     25 C2         85.1170   54.0900  124.1140 C.ar      1 ADP401      0.0000 
     26 N3         86.1750   54.2510  124.9180 N.ar      1 ADP401      0.0000 
     27 C4         86.5880   55.4940  125.2440 C.ar      1 ADP401      0.0000 
@<TRIPOS>BOND
     1    1    2 ar   
     2    1    3 ar   
     3    1    4 ar   
     4    1    8 1    
     5    5    6 ar   
     6    5    7 ar   
     7    5    8 1    
     8    5    9 1    
     9    9   10 1    
    10   10   11 1    
    11   11   12 1    
    12   11   13 1    
    13   12   17 1    
    14   13   14 1    
    15   13   15 1    
    16   15   16 1    
    17   15   17 1    
    18   17   18 1    
    19   18   19 1    
    20   18   27 1    
    21   19   20 2    
    22   20   21 1    
    23   21   22 ar   
    24   21   27 ar   
    25   22   23 1    
    26   22   24 ar   
    27   24   25 ar   
    28   25   26 ar   
    29   26   27 ar   
@<TRIPOS>SUBSTRUCTURE
     1 ADP401      1 GROUP   
@<TRIPOS>SET
ATOM$ORANGE STATIC     ATOMS   COLORGROUP SYSTEM 
20 10 10 11 11 13 13 15 15 17 17 19 19 21 21 22 22 25 \
25 27 27 

