#    Name: 6izr_24_ADP_CAVITY_N1_4
#    Modification time : Fri May 22 19:30:41 2020

@<TRIPOS>MOLECULE
6izr_24_ADP_CAVITY_N1_4
   79     0     7     0     0
SMALL
NO_CHARGES


@<TRIPOS>ATOM
      1 OG         46.4700  174.4200   75.2000 O.3       1 SER1        0.0000 
      2 OG         46.0000  175.2000   74.0200 O.3       1 SER1        0.0000 
      3 OG         46.9800  174.4800   73.1400 O.3       1 SER1        0.0000 
      4 OG         47.9800  174.6800   76.6700 O.3       1 SER1        0.0000 
      5 OG         46.5300  176.1900   76.3600 O.3       1 SER1        0.0000 
      6 OG         47.0300  176.2500   74.3000 O.3       1 SER1        0.0000 
      7 OG         47.5600  177.2400   76.6500 O.3       1 SER1        0.0000 
      8 OG         49.5700  177.5600   76.0600 O.3       1 SER1        0.0000 
      9 N          42.3100  169.3700   77.3000 N.am      2 ALA2        0.0000 
     10 N          45.9100  172.5800   76.1000 N.am      2 ALA2        0.0000 
     11 N          44.0100  175.8100   79.0100 N.am      2 ALA2        0.0000 
     12 N          44.9900  175.0800   78.1300 N.am      2 ALA2        0.0000 
     13 O          44.5100  175.8700   76.9500 O.2       2 ALA2        0.0000 
     14 O          43.0600  177.3800   76.6400 O.2       2 ALA2        0.0000 
     15 O          44.0400  176.6600   75.7600 O.2       2 ALA2        0.0000 
     16 N          43.5700  177.4500   74.5800 N.am      2 ALA2        0.0000 
     17 N          46.4900  175.3400   79.6100 N.am      2 ALA2        0.0000 
     18 O          44.5700  177.6500   78.1100 O.2       2 ALA2        0.0000 
     19 O          45.5500  176.9200   77.2300 O.2       2 ALA2        0.0000 
     20 N          46.0500  176.9800   75.1800 N.am      2 ALA2        0.0000 
     21 O          47.5200  176.3900   79.8900 O.2       2 ALA2        0.0000 
     22 O          47.0500  177.1800   78.7100 O.2       2 ALA2        0.0000 
     23 O          46.5800  177.9700   77.5200 O.2       2 ALA2        0.0000 
     24 N          47.0900  178.0300   75.4600 N.am      2 ALA2        0.0000 
     25 O          48.5600  177.4400   80.1800 O.2       2 ALA2        0.0000 
     26 O          47.1100  178.9600   79.8600 O.2       2 ALA2        0.0000 
     27 O          48.0900  178.2300   78.9900 O.2       2 ALA2        0.0000 
     28 O          45.6500  180.4700   79.5500 O.2       2 ALA2        0.0000 
     29 O          46.6300  179.7500   78.6800 O.2       2 ALA2        0.0000 
     30 O          47.6100  179.0200   77.8100 O.2       2 ALA2        0.0000 
     31 O          47.1600  180.7300   81.0200 O.2       2 ALA2        0.0000 
     32 O          48.1400  180.0100   80.1500 O.2       2 ALA2        0.0000 
     33 O          49.1200  179.2800   79.2800 O.2       2 ALA2        0.0000 
     34 O          48.1700  180.8600   76.9100 O.2       2 ALA2        0.0000 
     35 O          48.7000  181.8400   79.2500 O.2       2 ALA2        0.0000 
     36 OD1        44.3200  169.6900   76.7200 O.co2     3 ASP3        0.0000 
     37 OD1        42.5000  175.5500   77.5400 O.co2     3 ASP3        0.0000 
     38 OD1        42.0300  176.3400   76.3500 O.co2     3 ASP3        0.0000 
     39 OD1        46.6900  181.5200   79.8400 O.co2     3 ASP3        0.0000 
     40 NZ         42.4500  173.7700   76.3800 N.4       4 LYS4        0.0000 
     41 NZ         41.5000  175.3500   74.0000 N.4       4 LYS4        0.0000 
     42 NZ         43.9900  174.8800   74.6000 N.4       4 LYS4        0.0000 
     43 NZ         44.9700  174.1600   73.7300 N.4       4 LYS4        0.0000 
     44 NZ         42.5400  176.4000   74.2900 N.4       4 LYS4        0.0000 
     45 NZ         43.5200  175.6700   73.4200 N.4       4 LYS4        0.0000 
     46 NZ         43.5300  176.6000   77.8200 N.4       4 LYS4        0.0000 
     47 CZ         48.5900  178.2900   76.9300 C.ar      5 PHE5        0.0000 
     48 CA         43.3400  170.4200   77.5900 C.3       6 GLY6        0.0000 
     49 CA         42.8700  171.2100   76.4000 C.3       6 GLY6        0.0000 
     50 CA         44.3700  171.4700   77.8800 C.3       6 GLY6        0.0000 
     51 CA         41.9400  173.7100   78.4400 C.3       6 GLY6        0.0000 
     52 CA         42.9200  172.9800   77.5600 C.3       6 GLY6        0.0000 
     53 CA         43.9000  172.2600   76.6900 C.3       6 GLY6        0.0000 
     54 CA         44.8800  171.5300   75.8200 C.3       6 GLY6        0.0000 
     55 CA         43.4300  173.0400   75.5000 C.3       6 GLY6        0.0000 
     56 CA         45.4100  172.5200   78.1600 C.3       6 GLY6        0.0000 
     57 CA         43.9500  174.0300   77.8500 C.3       6 GLY6        0.0000 
     58 CA         44.9300  173.3100   76.9800 C.3       6 GLY6        0.0000 
     59 CA         45.4400  173.3700   74.9200 C.3       6 GLY6        0.0000 
     60 CA         45.4600  174.2900   79.3200 C.3       6 GLY6        0.0000 
     61 CA         46.4400  173.5700   78.4500 C.3       6 GLY6        0.0000 
     62 CA         45.9700  174.3600   77.2600 C.3       6 GLY6        0.0000 
     63 CA         46.9500  173.6300   76.3900 C.3       6 GLY6        0.0000 
     64 CA         47.4700  174.6200   78.7300 C.3       6 GLY6        0.0000 
     65 CA         46.0200  176.1300   78.4200 C.3       6 GLY6        0.0000 
     66 CA         47.0000  175.4100   77.5500 C.3       6 GLY6        0.0000 
     67 CA         46.5600  177.0400   73.1200 C.3       6 GLY6        0.0000 
     68 CA         48.0300  176.4500   77.8300 C.3       6 GLY6        0.0000 
     69 CA         49.0100  175.7300   76.9600 C.3       6 GLY6        0.0000 
     70 CA         49.0700  177.5000   78.1200 C.3       6 GLY6        0.0000 
     71 CA         48.1200  179.0800   75.7500 C.3       6 GLY6        0.0000 
     72 CA         47.6700  180.7900   78.9600 C.3       6 GLY6        0.0000 
     73 CA         48.6500  180.0700   78.0900 C.3       6 GLY6        0.0000 
     74 CA         49.6300  179.3400   77.2200 C.3       6 GLY6        0.0000 
     75 DU         43.4800  174.8200   76.6600 H         7 CUB7        0.0000 
     76 DU         44.4600  174.0900   75.7900 H         7 CUB7        0.0000 
     77 DU         43.0100  175.6100   75.4800 H         7 CUB7        0.0000 
     78 DU         45.4900  175.1400   76.0800 H         7 CUB7        0.0000 
     79 DU         45.0200  175.9300   74.8900 H         7 CUB7        0.0000 
@<TRIPOS>BOND
@<TRIPOS>SUBSTRUCTURE
     1 SER1        1 GROUP   
     2 ALA2        9 GROUP   
     3 ASP3       36 GROUP   
     4 LYS4       40 GROUP   
     5 PHE5       47 GROUP   
     6 GLY6       48 GROUP   
     7 CUB7       75 GROUP   
@<TRIPOS>SET

