#    Name: 6izr_14_ADP
#    Modification time : Fri May 22 19:28:44 2020

@<TRIPOS>MOLECULE
6izr_14_ADP
   27    29     1     0     1
SMALL
NO_CHARGES


@<TRIPOS>ATOM
      1 PB        135.3840   82.8240  112.7800 P.3       1 ADP401      0.0000 
      2 O1B       135.3620   81.5880  111.8920 O.co2     1 ADP401      0.0000 
      3 O2B       135.8560   82.6580  114.2140 O.co2     1 ADP401      0.0000 
      4 O3B       136.0190   84.0240  112.1240 O.co2     1 ADP401      0.0000 
      5 PA        132.7130   82.7120  113.8920 P.3       1 ADP401      0.0000 
      6 O1A       131.4990   82.2630  113.1170 O.co2     1 ADP401      0.0000 
      7 O2A       133.3390   81.7760  114.8900 O.co2     1 ADP401      0.0000 
      8 O3A       133.8120   83.1970  112.8120 O.3       1 ADP401      0.0000 
      9 O5'       132.3820   84.1120  114.6160 O.3       1 ADP401      0.0000 
     10 C5'       132.1370   84.1900  116.0200 C.3       1 ADP401      0.0000 
     11 C4'       131.9670   85.6490  116.4350 C.3       1 ADP401      0.0000 
     12 O4'       130.5760   85.9480  116.3990 O.3       1 ADP401      0.0000 
     13 C3'       132.4160   85.9330  117.8630 C.3       1 ADP401      0.0000 
     14 O3'       133.6710   86.6160  117.9040 O.3       1 ADP401      0.0000 
     15 C2'       131.3260   86.7730  118.5080 C.3       1 ADP401      0.0000 
     16 O2'       131.6820   88.1500  118.6680 O.3       1 ADP401      0.0000 
     17 C1'       130.1690   86.7010  117.5420 C.3       1 ADP401      0.0000 
     18 N9        129.0480   86.0310  118.2340 N.pl3     1 ADP401      0.0000 
     19 C8        128.7030   84.7310  118.1720 C.2       1 ADP401      0.0000 
     20 N7        127.6110   84.4860  118.9370 N.2       1 ADP401      0.0000 
     21 C5        127.2540   85.6530  119.4970 C.ar      1 ADP401      0.0000 
     22 C6        126.1940   86.1140  120.4140 C.ar      1 ADP401      0.0000 
     23 N6        125.2670   85.2490  120.8980 N.pl3     1 ADP401      0.0000 
     24 N1        126.1880   87.4240  120.7460 N.ar      1 ADP401      0.0000 
     25 C2        127.1010   88.2940  120.2740 C.ar      1 ADP401      0.0000 
     26 N3        128.0890   87.9480  119.4390 N.ar      1 ADP401      0.0000 
     27 C4        128.2060   86.6660  119.0330 C.ar      1 ADP401      0.0000 
@<TRIPOS>BOND
     1    1    2 ar   
     2    1    3 ar   
     3    1    4 ar   
     4    1    8 1    
     5    5    6 ar   
     6    5    7 ar   
     7    5    8 1    
     8    5    9 1    
     9    9   10 1    
    10   10   11 1    
    11   11   12 1    
    12   11   13 1    
    13   12   17 1    
    14   13   14 1    
    15   13   15 1    
    16   15   16 1    
    17   15   17 1    
    18   17   18 1    
    19   18   19 1    
    20   18   27 1    
    21   19   20 2    
    22   20   21 1    
    23   21   22 ar   
    24   21   27 ar   
    25   22   23 1    
    26   22   24 ar   
    27   24   25 ar   
    28   25   26 ar   
    29   26   27 ar   
@<TRIPOS>SUBSTRUCTURE
     1 ADP401      1 GROUP   
@<TRIPOS>SET
ATOM$ORANGE STATIC     ATOMS   COLORGROUP SYSTEM 
20 10 10 11 11 13 13 15 15 17 17 19 19 21 21 22 22 25 \
25 27 27 

