#    Name: 6izr_19_ADP
#    Modification time : Fri May 22 19:29:42 2020

@<TRIPOS>MOLECULE
6izr_19_ADP
   27    29     1     0     1
SMALL
NO_CHARGES


@<TRIPOS>ATOM
      1 PB        190.2760  228.6320  131.1270 P.3       1 ADP401      0.0000 
      2 O1B       190.2280  228.8910  129.6320 O.co2     1 ADP401      0.0000 
      3 O2B       190.8640  229.7170  132.0180 O.co2     1 ADP401      0.0000 
      4 O3B       190.8050  227.2530  131.4330 O.co2     1 ADP401      0.0000 
      5 PA        187.4900  229.4200  131.1200 P.3       1 ADP401      0.0000 
      6 O1A       187.9160  230.3380  130.0070 O.co2     1 ADP401      0.0000 
      7 O2A       186.7760  229.9930  132.3190 O.co2     1 ADP401      0.0000 
      8 O3A       188.7560  228.5860  131.6770 O.3       1 ADP401      0.0000 
      9 O5'       186.6020  228.2230  130.5070 O.3       1 ADP401      0.0000 
     10 C5'       185.8600  228.3840  129.2980 C.3       1 ADP401      0.0000 
     11 C4'       185.2150  227.0570  128.9090 C.3       1 ADP401      0.0000 
     12 O4'       183.9010  227.0380  129.4570 O.3       1 ADP401      0.0000 
     13 C3'       185.0420  226.8830  127.4050 C.3       1 ADP401      0.0000 
     14 O3'       186.0020  225.9760  126.8560 O.3       1 ADP401      0.0000 
     15 C2'       183.6290  226.3700  127.1810 C.3       1 ADP401      0.0000 
     16 O2'       183.5700  224.9830  126.8290 O.3       1 ADP401      0.0000 
     17 C1'       182.9470  226.5410  128.5170 C.3       1 ADP401      0.0000 
     18 N9        181.8420  227.5060  128.3360 N.pl3     1 ADP401      0.0000 
     19 C8        181.8580  228.8280  128.5890 C.2       1 ADP401      0.0000 
     20 N7        180.6550  229.3860  128.3090 N.2       1 ADP401      0.0000 
     21 C5        179.8570  228.3990  127.8690 C.ar      1 ADP401      0.0000 
     22 C6        178.4630  228.2850  127.4020 C.ar      1 ADP401      0.0000 
     23 N6        177.6540  229.3750  127.3490 N.pl3     1 ADP401      0.0000 
     24 N1        178.0310  227.0590  127.0320 N.ar      1 ADP401      0.0000 
     25 C2        178.8210  225.9700  127.0780 C.ar      1 ADP401      0.0000 
     26 N3        180.0940  225.9980  127.4920 N.ar      1 ADP401      0.0000 
     27 C4        180.6460  227.1650  127.8860 C.ar      1 ADP401      0.0000 
@<TRIPOS>BOND
     1    1    2 ar   
     2    1    3 ar   
     3    1    4 ar   
     4    1    8 1    
     5    5    6 ar   
     6    5    7 ar   
     7    5    8 1    
     8    5    9 1    
     9    9   10 1    
    10   10   11 1    
    11   11   12 1    
    12   11   13 1    
    13   12   17 1    
    14   13   14 1    
    15   13   15 1    
    16   15   16 1    
    17   15   17 1    
    18   17   18 1    
    19   18   19 1    
    20   18   27 1    
    21   19   20 2    
    22   20   21 1    
    23   21   22 ar   
    24   21   27 ar   
    25   22   23 1    
    26   22   24 ar   
    27   24   25 ar   
    28   25   26 ar   
    29   26   27 ar   
@<TRIPOS>SUBSTRUCTURE
     1 ADP401      1 GROUP   
@<TRIPOS>SET
ATOM$ORANGE STATIC     ATOMS   COLORGROUP SYSTEM 
20 10 10 11 11 13 13 15 15 17 17 19 19 21 21 22 22 25 \
25 27 27 

