#    Name: 6izr_17_ADP
#    Modification time : Fri May 22 19:29:19 2020

@<TRIPOS>MOLECULE
6izr_17_ADP
   27    29     1     0     1
SMALL
NO_CHARGES


@<TRIPOS>ATOM
      1 PB        236.7570  169.8700  131.6750 P.3       1 ADP401      0.0000 
      2 O1B       236.9210  170.2130  130.2050 O.co2     1 ADP401      0.0000 
      3 O2B       237.1950  170.9060  132.7010 O.co2     1 ADP401      0.0000 
      4 O3B       237.2540  168.4780  131.9770 O.co2     1 ADP401      0.0000 
      5 PA        233.9920  170.6430  131.3070 P.3       1 ADP401      0.0000 
      6 O1A       234.5630  171.6260  130.3200 O.co2     1 ADP401      0.0000 
      7 O2A       233.1040  171.1440  132.4190 O.co2     1 ADP401      0.0000 
      8 O3A       235.1740  169.7850  131.9940 O.3       1 ADP401      0.0000 
      9 O5'       233.2180  169.4790  130.5050 O.3       1 ADP401      0.0000 
     10 C5'       232.6570  169.7050  129.2120 C.3       1 ADP401      0.0000 
     11 C4'       232.0930  168.3980  128.6590 C.3       1 ADP401      0.0000 
     12 O4'       230.7150  168.3420  129.0070 O.3       1 ADP401      0.0000 
     13 C3'       232.1420  168.3100  127.1380 C.3       1 ADP401      0.0000 
     14 O3'       233.1830  167.4420  126.6860 O.3       1 ADP401      0.0000 
     15 C2'       230.7840  167.8030  126.6830 C.3       1 ADP401      0.0000 
     16 O2'       230.7950  166.4390  126.2520 O.3       1 ADP401      0.0000 
     17 C1'       229.9130  167.8950  127.9120 C.3       1 ADP401      0.0000 
     18 N9        228.8340  168.8630  127.6270 N.pl3     1 ADP401      0.0000 
     19 C8        228.7940  170.1680  127.9530 C.2       1 ADP401      0.0000 
     20 N7        227.6380  170.7360  127.5320 N.2       1 ADP401      0.0000 
     21 C5        226.9250  169.7710  126.9270 C.ar      1 ADP401      0.0000 
     22 C6        225.6150  169.6780  126.2560 C.ar      1 ADP401      0.0000 
     23 N6        224.8090  170.7630  126.1470 N.pl3     1 ADP401      0.0000 
     24 N1        225.2580  168.4720  125.7590 N.ar      1 ADP401      0.0000 
     25 C2        226.0460  167.3860  125.8590 C.ar      1 ADP401      0.0000 
     26 N3        227.2470  167.3970  126.4550 N.ar      1 ADP401      0.0000 
     27 C4        227.7200  168.5420  126.9900 C.ar      1 ADP401      0.0000 
@<TRIPOS>BOND
     1    1    2 ar   
     2    1    3 ar   
     3    1    4 ar   
     4    1    8 1    
     5    5    6 ar   
     6    5    7 ar   
     7    5    8 1    
     8    5    9 1    
     9    9   10 1    
    10   10   11 1    
    11   11   12 1    
    12   11   13 1    
    13   12   17 1    
    14   13   14 1    
    15   13   15 1    
    16   15   16 1    
    17   15   17 1    
    18   17   18 1    
    19   18   19 1    
    20   18   27 1    
    21   19   20 2    
    22   20   21 1    
    23   21   22 ar   
    24   21   27 ar   
    25   22   23 1    
    26   22   24 ar   
    27   24   25 ar   
    28   25   26 ar   
    29   26   27 ar   
@<TRIPOS>SUBSTRUCTURE
     1 ADP401      1 GROUP   
@<TRIPOS>SET
ATOM$ORANGE STATIC     ATOMS   COLORGROUP SYSTEM 
20 10 10 11 11 13 13 15 15 17 17 19 19 21 21 22 22 25 \
25 27 27 

