#    Name: 6izr_12_ADP
#    Modification time : Fri May 22 19:28:21 2020

@<TRIPOS>MOLECULE
6izr_12_ADP
   27    29     1     0     1
SMALL
NO_CHARGES


@<TRIPOS>ATOM
      1 PB         93.1300  115.2970  112.3950 P.3       1 ADP401      0.0000 
      2 O1B        93.2550  114.2080  111.3390 O.co2     1 ADP401      0.0000 
      3 O2B        93.4390  114.9260  113.8350 O.co2     1 ADP401      0.0000 
      4 O3B        93.7960  116.5930  112.0040 O.co2     1 ADP401      0.0000 
      5 PA         90.3550  114.9740  113.1500 P.3       1 ADP401      0.0000 
      6 O1A        89.2550  114.6250  112.1780 O.co2     1 ADP401      0.0000 
      7 O2A        90.8930  113.9090  114.0680 O.co2     1 ADP401      0.0000 
      8 O3A        91.5530  115.6350  112.2930 O.3       1 ADP401      0.0000 
      9 O5'        89.8930  116.2430  114.0290 O.3       1 ADP401      0.0000 
     10 C5'        89.4860  116.1050  115.3900 C.3       1 ADP401      0.0000 
     11 C4'        89.2180  117.4820  115.9910 C.3       1 ADP401      0.0000 
     12 O4'        87.8310  117.7590  115.8320 O.3       1 ADP401      0.0000 
     13 C3'        89.4890  117.5540  117.4890 C.3       1 ADP401      0.0000 
     14 O3'        90.7050  118.2450  117.7800 O.3       1 ADP401      0.0000 
     15 C2'        88.3030  118.2700  118.1150 C.3       1 ADP401      0.0000 
     16 O2'        88.5890  119.6140  118.5180 O.3       1 ADP401      0.0000 
     17 C1'        87.2690  118.3240  117.0180 C.3       1 ADP401      0.0000 
     18 N9         86.0990  117.5390  117.4650 N.pl3     1 ADP401      0.0000 
     19 C8         85.8090  116.2580  117.1710 C.2       1 ADP401      0.0000 
     20 N7         84.6450  115.8820  117.7550 N.2       1 ADP401      0.0000 
     21 C5         84.1850  116.9450  118.4350 C.ar      1 ADP401      0.0000 
     22 C6         83.0110  117.2440  119.2760 C.ar      1 ADP401      0.0000 
     23 N6         82.0650  116.3010  119.5130 N.pl3     1 ADP401      0.0000 
     24 N1         82.9210  118.4890  119.7950 N.ar      1 ADP401      0.0000 
     25 C2         83.8510  119.4350  119.5670 C.ar      1 ADP401      0.0000 
     26 N3         84.9410  119.2350  118.8150 N.ar      1 ADP401      0.0000 
     27 C4         85.1480  118.0310  118.2420 C.ar      1 ADP401      0.0000 
@<TRIPOS>BOND
     1    1    2 ar   
     2    1    3 ar   
     3    1    4 ar   
     4    1    8 1    
     5    5    6 ar   
     6    5    7 ar   
     7    5    8 1    
     8    5    9 1    
     9    9   10 1    
    10   10   11 1    
    11   11   12 1    
    12   11   13 1    
    13   12   17 1    
    14   13   14 1    
    15   13   15 1    
    16   15   16 1    
    17   15   17 1    
    18   17   18 1    
    19   18   19 1    
    20   18   27 1    
    21   19   20 2    
    22   20   21 1    
    23   21   22 ar   
    24   21   27 ar   
    25   22   23 1    
    26   22   24 ar   
    27   24   25 ar   
    28   25   26 ar   
    29   26   27 ar   
@<TRIPOS>SUBSTRUCTURE
     1 ADP401      1 GROUP   
@<TRIPOS>SET
ATOM$ORANGE STATIC     ATOMS   COLORGROUP SYSTEM 
20 10 10 11 11 13 13 15 15 17 17 19 19 21 21 22 22 25 \
25 27 27 

