#    Name: 6izr_6_ADP
#    Modification time : Fri May 22 19:27:11 2020

@<TRIPOS>MOLECULE
6izr_6_ADP
   27    29     1     0     1
SMALL
NO_CHARGES


@<TRIPOS>ATOM
      1 PB        192.9730  157.5360  113.8780 P.3       1 ADP401      0.0000 
      2 O1B       193.6760  158.6660  113.1670 O.co2     1 ADP401      0.0000 
      3 O2B       193.1990  156.1780  113.2290 O.co2     1 ADP401      0.0000 
      4 O3B       193.1350  157.6390  115.3830 O.co2     1 ADP401      0.0000 
      5 PA        190.1340  157.3830  114.4260 P.3       1 ADP401      0.0000 
      6 O1A       189.1370  156.7190  113.5100 O.co2     1 ADP401      0.0000 
      7 O2A       190.5760  156.6710  115.6780 O.co2     1 ADP401      0.0000 
      8 O3A       191.4140  157.7810  113.5240 O.3       1 ADP401      0.0000 
      9 O5'       189.5900  158.8480  114.8170 O.3       1 ADP401      0.0000 
     10 C5'       189.0490  159.1270  116.1080 C.3       1 ADP401      0.0000 
     11 C4'       188.7250  160.6140  116.2210 C.3       1 ADP401      0.0000 
     12 O4'       187.3620  160.7900  115.8530 O.3       1 ADP401      0.0000 
     13 C3'       188.8440  161.1560  117.6410 C.3       1 ADP401      0.0000 
     14 O3'       190.0270  161.9370  117.8180 O.3       1 ADP401      0.0000 
     15 C2'       187.6040  161.9970  117.8970 C.3       1 ADP401      0.0000 
     16 O2'       187.8510  163.4060  117.8850 O.3       1 ADP401      0.0000 
     17 C1'       186.6840  161.6770  116.7430 C.3       1 ADP401      0.0000 
     18 N9        185.4740  161.0350  117.2980 N.pl3     1 ADP401      0.0000 
     19 C8        185.2110  159.7180  117.3900 C.2       1 ADP401      0.0000 
     20 N7        183.9950  159.5080  117.9490 N.2       1 ADP401      0.0000 
     21 C5        183.4710  160.7160  118.2160 C.ar      1 ADP401      0.0000 
     22 C6        182.2190  161.2270  118.8060 C.ar      1 ADP401      0.0000 
     23 N6        181.2510  160.3770  119.2340 N.pl3     1 ADP401      0.0000 
     24 N1        182.0820  162.5680  118.8990 N.ar      1 ADP401      0.0000 
     25 C2        183.0320  163.4250  118.4810 C.ar      1 ADP401      0.0000 
     26 N3        184.1900  163.0330  117.9360 N.ar      1 ADP401      0.0000 
     27 C4        184.4510  161.7170  117.7880 C.ar      1 ADP401      0.0000 
@<TRIPOS>BOND
     1    1    2 ar   
     2    1    3 ar   
     3    1    4 ar   
     4    1    8 1    
     5    5    6 ar   
     6    5    7 ar   
     7    5    8 1    
     8    5    9 1    
     9    9   10 1    
    10   10   11 1    
    11   11   12 1    
    12   11   13 1    
    13   12   17 1    
    14   13   14 1    
    15   13   15 1    
    16   15   16 1    
    17   15   17 1    
    18   17   18 1    
    19   18   19 1    
    20   18   27 1    
    21   19   20 2    
    22   20   21 1    
    23   21   22 ar   
    24   21   27 ar   
    25   22   23 1    
    26   22   24 ar   
    27   24   25 ar   
    28   25   26 ar   
    29   26   27 ar   
@<TRIPOS>SUBSTRUCTURE
     1 ADP401      1 GROUP   
@<TRIPOS>SET
ATOM$ORANGE STATIC     ATOMS   COLORGROUP SYSTEM 
20 10 10 11 11 13 13 15 15 17 17 19 19 21 21 22 22 25 \
25 27 27 

