#    Name: 6izr_16_ADP
#    Modification time : Fri May 22 19:29:07 2020

@<TRIPOS>MOLECULE
6izr_16_ADP
   27    29     1     0     1
SMALL
NO_CHARGES


@<TRIPOS>ATOM
      1 PB        228.0890  104.3120   81.4370 P.3       1 ADP401      0.0000 
      2 O1B       228.2730  104.8060   80.0140 O.co2     1 ADP401      0.0000 
      3 O2B       227.3600  105.2220   82.4150 O.co2     1 ADP401      0.0000 
      4 O3B       229.3690  103.7370   81.9920 O.co2     1 ADP401      0.0000 
      5 PA        225.8640  102.7950   80.3770 P.3       1 ADP401      0.0000 
      6 O1A       225.7160  103.9650   79.4410 O.co2     1 ADP401      0.0000 
      7 O2A       224.6800  102.3550   81.2020 O.co2     1 ADP401      0.0000 
      8 O3A       227.0870  103.0440   81.4010 O.3       1 ADP401      0.0000 
      9 O5'       226.4270  101.5300   79.5550 O.3       1 ADP401      0.0000 
     10 C5'       226.2030  101.3860   78.1520 C.3       1 ADP401      0.0000 
     11 C4'       226.9480  100.1590   77.6350 C.3       1 ADP401      0.0000 
     12 O4'       226.0460   99.0600   77.6690 O.3       1 ADP401      0.0000 
     13 C3'       227.3920  100.2860   76.1820 C.3       1 ADP401      0.0000 
     14 O3'       228.7960  100.5340   76.0710 O.3       1 ADP401      0.0000 
     15 C2'       227.0220   98.9840   75.4930 C.3       1 ADP401      0.0000 
     16 O2'       228.1430   98.1350   75.2260 O.3       1 ADP401      0.0000 
     17 C1'       226.1260   98.2750   76.4780 C.3       1 ADP401      0.0000 
     18 N9        224.7930   98.1350   75.8550 N.pl3     1 ADP401      0.0000 
     19 C8        223.7220   98.9350   76.0200 C.2       1 ADP401      0.0000 
     20 N7        222.6710   98.4870   75.2910 N.2       1 ADP401      0.0000 
     21 C5        223.0800   97.3790   74.6510 C.ar      1 ADP401      0.0000 
     22 C6        222.4820   96.4060   73.7180 C.ar      1 ADP401      0.0000 
     23 N6        221.1920   96.5300   73.3140 N.pl3     1 ADP401      0.0000 
     24 N1        223.2680   95.3940   73.2900 N.ar      1 ADP401      0.0000 
     25 C2        224.5490   95.2570   73.6820 C.ar      1 ADP401      0.0000 
     26 N3        225.1570   96.1000   74.5260 N.ar      1 ADP401      0.0000 
     27 C4        224.4790   97.1550   75.0240 C.ar      1 ADP401      0.0000 
@<TRIPOS>BOND
     1    1    2 ar   
     2    1    3 ar   
     3    1    4 ar   
     4    1    8 1    
     5    5    6 ar   
     6    5    7 ar   
     7    5    8 1    
     8    5    9 1    
     9    9   10 1    
    10   10   11 1    
    11   11   12 1    
    12   11   13 1    
    13   12   17 1    
    14   13   14 1    
    15   13   15 1    
    16   15   16 1    
    17   15   17 1    
    18   17   18 1    
    19   18   19 1    
    20   18   27 1    
    21   19   20 2    
    22   20   21 1    
    23   21   22 ar   
    24   21   27 ar   
    25   22   23 1    
    26   22   24 ar   
    27   24   25 ar   
    28   25   26 ar   
    29   26   27 ar   
@<TRIPOS>SUBSTRUCTURE
     1 ADP401      1 GROUP   
@<TRIPOS>SET
ATOM$ORANGE STATIC     ATOMS   COLORGROUP SYSTEM 
20 10 10 11 11 13 13 15 15 17 17 19 19 21 21 22 22 25 \
25 27 27 

