#    Name: 6izr_30_ADP
#    Modification time : Fri May 22 19:31:45 2020

@<TRIPOS>MOLECULE
6izr_30_ADP
   27    29     1     0     1
SMALL
NO_CHARGES


@<TRIPOS>ATOM
      1 PB        173.9410   52.7980   80.9370 P.3       1 ADP401      0.0000 
      2 O1B       174.2600   53.1380   79.4930 O.co2     1 ADP401      0.0000 
      3 O2B       173.1500   53.8140   81.7490 O.co2     1 ADP401      0.0000 
      4 O3B       175.1540   52.2650   81.6600 O.co2     1 ADP401      0.0000 
      5 PA        171.7820   51.2100   79.8460 P.3       1 ADP401      0.0000 
      6 O1A       171.7430   52.2780   78.7860 O.co2     1 ADP401      0.0000 
      7 O2A       170.5210   50.8740   80.6030 O.co2     1 ADP401      0.0000 
      8 O3A       172.9180   51.5480   80.9430 O.3       1 ADP401      0.0000 
      9 O5'       172.3870   49.8570   79.2110 O.3       1 ADP401      0.0000 
     10 C5'       172.2820   49.5720   77.8160 C.3       1 ADP401      0.0000 
     11 C4'       173.0400   48.2870   77.4950 C.3       1 ADP401      0.0000 
     12 O4'       172.1140   47.2100   77.5610 O.3       1 ADP401      0.0000 
     13 C3'       173.6110   48.2570   76.0820 C.3       1 ADP401      0.0000 
     14 O3'       175.0250   48.4720   76.0710 O.3       1 ADP401      0.0000 
     15 C2'       173.2720   46.8950   75.5000 C.3       1 ADP401      0.0000 
     16 O2'       174.3930   46.0080   75.4220 O.3       1 ADP401      0.0000 
     17 C1'       172.2780   46.3040   76.4700 C.3       1 ADP401      0.0000 
     18 N9        171.0010   46.1190   75.7480 N.pl3     1 ADP401      0.0000 
     19 C8        169.9390   46.9460   75.7350 C.2       1 ADP401      0.0000 
     20 N7        168.9450   46.4380   74.9660 N.2       1 ADP401      0.0000 
     21 C5        169.3830   45.2650   74.4810 C.ar      1 ADP401      0.0000 
     22 C6        168.8450   44.2080   73.6040 C.ar      1 ADP401      0.0000 
     23 N6        167.5980   44.3080   73.0760 N.pl3     1 ADP401      0.0000 
     24 N1        169.6430   43.1470   73.3540 N.ar      1 ADP401      0.0000 
     25 C2        170.8820   43.0340   73.8680 C.ar      1 ADP401      0.0000 
     26 N3        171.4320   43.9520   74.6720 N.ar      1 ADP401      0.0000 
     27 C4        170.7390   45.0630   74.9980 C.ar      1 ADP401      0.0000 
@<TRIPOS>BOND
     1    1    2 ar   
     2    1    3 ar   
     3    1    4 ar   
     4    1    8 1    
     5    5    6 ar   
     6    5    7 ar   
     7    5    8 1    
     8    5    9 1    
     9    9   10 1    
    10   10   11 1    
    11   11   12 1    
    12   11   13 1    
    13   12   17 1    
    14   13   14 1    
    15   13   15 1    
    16   15   16 1    
    17   15   17 1    
    18   17   18 1    
    19   18   19 1    
    20   18   27 1    
    21   19   20 2    
    22   20   21 1    
    23   21   22 ar   
    24   21   27 ar   
    25   22   23 1    
    26   22   24 ar   
    27   24   25 ar   
    28   25   26 ar   
    29   26   27 ar   
@<TRIPOS>SUBSTRUCTURE
     1 ADP401      1 GROUP   
@<TRIPOS>SET
ATOM$ORANGE STATIC     ATOMS   COLORGROUP SYSTEM 
20 10 10 11 11 13 13 15 15 17 17 19 19 21 21 22 22 25 \
25 27 27 

