#    Name: 6izr_9_ADP
#    Modification time : Fri May 22 19:27:47 2020

@<TRIPOS>MOLECULE
6izr_9_ADP
   27    29     1     0     1
SMALL
NO_CHARGES


@<TRIPOS>ATOM
      1 PB        106.9230  179.5410   63.5320 P.3       1 ADP401      0.0000 
      2 O1B       108.0900  179.0260   62.7010 O.co2     1 ADP401      0.0000 
      3 O2B       107.0090  179.3950   65.0400 O.co2     1 ADP401      0.0000 
      4 O3B       106.4670  180.9230   63.1360 O.co2     1 ADP401      0.0000 
      5 PA        105.2680  177.1680   63.6290 P.3       1 ADP401      0.0000 
      6 O1A       105.1120  176.2060   62.4790 O.co2     1 ADP401      0.0000 
      7 O2A       106.1490  176.7930   64.7910 O.co2     1 ADP401      0.0000 
      8 O3A       105.7330  178.5830   63.0040 O.3       1 ADP401      0.0000 
      9 O5'       103.8070  177.5640   64.1820 O.3       1 ADP401      0.0000 
     10 C5'       103.3010  177.0390   65.4090 C.3       1 ADP401      0.0000 
     11 C4'       101.9510  177.6760   65.7260 C.3       1 ADP401      0.0000 
     12 O4'       100.9390  176.8270   65.2000 O.3       1 ADP401      0.0000 
     13 C3'       101.6680  177.7850   67.2200 C.3       1 ADP401      0.0000 
     14 O3'       101.8200  179.1240   67.6970 O.3       1 ADP401      0.0000 
     15 C2'       100.2440  177.2980   67.4330 C.3       1 ADP401      0.0000 
     16 O2'        99.3110  178.3510   67.7000 O.3       1 ADP401      0.0000 
     17 C1'        99.8610  176.6580   66.1220 C.3       1 ADP401      0.0000 
     18 N9         99.6130  175.2240   66.3770 N.pl3     1 ADP401      0.0000 
     19 C8        100.4680  174.2000   66.2040 C.2       1 ADP401      0.0000 
     20 N7         99.8830  173.0220   66.5360 N.2       1 ADP401      0.0000 
     21 C5         98.6290  173.3040   66.9270 C.ar      1 ADP401      0.0000 
     22 C6         97.4660  172.5350   67.4080 C.ar      1 ADP401      0.0000 
     23 N6         97.5280  171.1850   67.5390 N.pl3     1 ADP401      0.0000 
     24 N1         96.3460  173.2290   67.7090 N.ar      1 ADP401      0.0000 
     25 C2         96.2680  174.5670   67.5850 C.ar      1 ADP401      0.0000 
     26 N3         97.2830  175.3280   67.1530 N.ar      1 ADP401      0.0000 
     27 C4         98.4590  174.7550   66.8230 C.ar      1 ADP401      0.0000 
@<TRIPOS>BOND
     1    1    2 ar   
     2    1    3 ar   
     3    1    4 ar   
     4    1    8 1    
     5    5    6 ar   
     6    5    7 ar   
     7    5    8 1    
     8    5    9 1    
     9    9   10 1    
    10   10   11 1    
    11   11   12 1    
    12   11   13 1    
    13   12   17 1    
    14   13   14 1    
    15   13   15 1    
    16   15   16 1    
    17   15   17 1    
    18   17   18 1    
    19   18   19 1    
    20   18   27 1    
    21   19   20 2    
    22   20   21 1    
    23   21   22 ar   
    24   21   27 ar   
    25   22   23 1    
    26   22   24 ar   
    27   24   25 ar   
    28   25   26 ar   
    29   26   27 ar   
@<TRIPOS>SUBSTRUCTURE
     1 ADP401      1 GROUP   
@<TRIPOS>SET
ATOM$ORANGE STATIC     ATOMS   COLORGROUP SYSTEM 
20 10 10 11 11 13 13 15 15 17 17 19 19 21 21 22 22 25 \
25 27 27 

