#    Name: 6izr_9_ADP_CAVITY_N1_4
#    Modification time : Fri May 22 19:27:48 2020

@<TRIPOS>MOLECULE
6izr_9_ADP_CAVITY_N1_4
  104     0     7     0     0
SMALL
NO_CHARGES


@<TRIPOS>ATOM
      1 OG         98.5600  175.8500   70.6000 O.3       1 SER1        0.0000 
      2 OG         99.5400  175.1300   69.7200 O.3       1 SER1        0.0000 
      3 OG         98.0900  176.6400   69.4100 O.3       1 SER1        0.0000 
      4 OG         99.0600  175.9200   68.5400 O.3       1 SER1        0.0000 
      5 OG         97.6100  177.4300   68.2300 O.3       1 SER1        0.0000 
      6 OG         98.5900  176.7000   67.3500 O.3       1 SER1        0.0000 
      7 OG        100.5700  176.1800   70.0100 O.3       1 SER1        0.0000 
      8 OG        100.1000  176.9700   68.8200 O.3       1 SER1        0.0000 
      9 OG         99.6300  177.7500   67.6400 O.3       1 SER1        0.0000 
     10 OG        101.1300  178.0100   69.1100 O.3       1 SER1        0.0000 
     11 OG        100.6600  178.8000   67.9200 O.3       1 SER1        0.0000 
     12 OG        102.1600  179.0600   69.4000 O.3       1 SER1        0.0000 
     13 OG        108.3300  183.5100   62.3000 O.3       1 SER1        0.0000 
     14 N          95.5500  175.3300   67.6500 N.am      2 ALA2        0.0000 
     15 O          96.0700  176.3200   70.0000 O.2       2 ALA2        0.0000 
     16 N          96.5800  176.3800   67.9400 N.am      2 ALA2        0.0000 
     17 N          98.5400  174.9300   66.1900 N.am      2 ALA2        0.0000 
     18 N          99.5200  174.2000   65.3200 N.am      2 ALA2        0.0000 
     19 N          98.0700  175.7200   65.0100 N.am      2 ALA2        0.0000 
     20 N         100.9900  173.6100   70.0400 N.am      2 ALA2        0.0000 
     21 N         101.9700  172.8900   69.1700 N.am      2 ALA2        0.0000 
     22 O         101.5000  173.6700   67.9800 O.2       2 ALA2        0.0000 
     23 O         101.0200  174.4600   66.7900 O.2       2 ALA2        0.0000 
     24 N          99.5700  175.9800   66.4800 N.am      2 ALA2        0.0000 
     25 N         100.5500  175.2500   65.6100 N.am      2 ALA2        0.0000 
     26 N          99.1000  176.7600   65.2900 N.am      2 ALA2        0.0000 
     27 N         101.5500  175.4500   69.1400 N.am      2 ALA2        0.0000 
     28 O         101.0800  176.2400   67.9500 O.2       2 ALA2        0.0000 
     29 O         101.5800  176.3000   65.8900 O.2       2 ALA2        0.0000 
     30 O         101.1100  177.0900   64.7100 O.2       2 ALA2        0.0000 
     31 N         102.5800  176.5000   69.4200 N.am      2 ALA2        0.0000 
     32 O         102.1100  177.2900   68.2400 O.2       2 ALA2        0.0000 
     33 O         103.0900  176.5600   67.3600 O.2       2 ALA2        0.0000 
     34 O         102.6200  177.3500   66.1800 O.2       2 ALA2        0.0000 
     35 O         103.6000  176.6200   65.3100 O.2       2 ALA2        0.0000 
     36 O         102.1500  178.1400   64.9900 O.2       2 ALA2        0.0000 
     37 O         101.6700  178.9200   63.8100 O.2       2 ALA2        0.0000 
     38 O         102.6500  178.2000   62.9300 O.2       2 ALA2        0.0000 
     39 N         103.6200  177.5500   69.7100 N.am      2 ALA2        0.0000 
     40 O         104.1600  178.4600   64.4100 O.2       2 ALA2        0.0000 
     41 O         105.6600  178.7200   65.8800 O.2       2 ALA2        0.0000 
     42 O         106.2200  180.5600   64.9800 O.2       2 ALA2        0.0000 
     43 O         106.7300  180.6200   62.9200 O.2       2 ALA2        0.0000 
     44 O         106.7900  182.3900   64.0800 O.2       2 ALA2        0.0000 
     45 N         107.2900  182.4600   62.0200 N.am      2 ALA2        0.0000 
     46 O         108.2700  181.7300   61.1500 O.2       2 ALA2        0.0000 
     47 O         108.8000  182.7200   63.4900 O.2       2 ALA2        0.0000 
     48 N         109.3100  182.7800   61.4300 N.am      2 ALA2        0.0000 
     49 OD1        99.4300  171.5800   67.4100 O.co2     3 ASP3        0.0000 
     50 OD1        98.9600  172.3600   66.2200 O.co2     3 ASP3        0.0000 
     51 OD1        99.9900  173.4100   66.5100 O.co2     3 ASP3        0.0000 
     52 OD1       105.6100  176.9400   64.7200 O.co2     3 ASP3        0.0000 
     53 OD1       105.1400  177.7300   63.5300 O.co2     3 ASP3        0.0000 
     54 OD1       106.6400  177.9900   65.0000 O.co2     3 ASP3        0.0000 
     55 OD1       106.1700  178.7800   63.8200 O.co2     3 ASP3        0.0000 
     56 OD1       108.7500  180.9400   62.3300 O.co2     3 ASP3        0.0000 
     57 NZ         97.4700  173.0300   69.1500 N.4       4 LYS4        0.0000 
     58 NZ         98.4500  172.3000   68.2800 N.4       4 LYS4        0.0000 
     59 NZ         98.9800  173.2900   70.6300 N.4       4 LYS4        0.0000 
     60 NZ         99.9600  172.5600   69.7500 N.4       4 LYS4        0.0000 
     61 NZ         97.5200  174.8100   70.3100 N.4       4 LYS4        0.0000 
     62 NZ         98.5000  174.0800   69.4400 N.4       4 LYS4        0.0000 
     63 NZ        101.4400  171.9000   66.8200 N.4       4 LYS4        0.0000 
     64 NZ        100.9700  172.6900   65.6300 N.4       4 LYS4        0.0000 
     65 NZ        110.7600  181.2600   61.7400 N.4       4 LYS4        0.0000 
     66 CZ        101.6900  179.8500   68.2100 C.ar      5 PHE5        0.0000 
     67 CZ        102.6700  179.1200   67.3400 C.ar      5 PHE5        0.0000 
     68 CA         95.9700  172.7700   67.6800 C.3       6 GLY6        0.0000 
     69 CA         96.9500  172.0400   66.8100 C.3       6 GLY6        0.0000 
     70 CA         96.0200  174.5400   68.8400 C.3       6 GLY6        0.0000 
     71 CA         97.0000  173.8200   67.9700 C.3       6 GLY6        0.0000 
     72 CA         97.9800  173.0900   67.0900 C.3       6 GLY6        0.0000 
     73 CA         96.5300  174.6100   66.7800 C.3       6 GLY6        0.0000 
     74 CA         97.5100  173.8800   65.9100 C.3       6 GLY6        0.0000 
     75 CA         98.4900  173.1500   65.0400 C.3       6 GLY6        0.0000 
     76 CA         97.0500  175.5900   69.1300 C.3       6 GLY6        0.0000 
     77 CA         97.0900  176.4400   65.8800 C.3       6 GLY6        0.0000 
     78 CA         98.1200  177.4900   66.1700 C.3       6 GLY6        0.0000 
     79 CA        100.1300  177.8100   65.5800 C.3       6 GLY6        0.0000 
     80 CA        101.6000  177.2300   70.3000 C.3       6 GLY6        0.0000 
     81 CA        101.1700  178.8600   65.8700 C.3       6 GLY6        0.0000 
     82 CA        103.1300  177.4100   64.1200 C.3       6 GLY6        0.0000 
     83 CA        102.6400  178.2800   70.5800 C.3       6 GLY6        0.0000 
     84 CA        103.1400  178.3400   68.5200 C.3       6 GLY6        0.0000 
     85 CA        104.1200  177.6100   67.6500 C.3       6 GLY6        0.0000 
     86 CA        103.6500  178.4000   66.4600 C.3       6 GLY6        0.0000 
     87 CA        104.6300  177.6700   65.5900 C.3       6 GLY6        0.0000 
     88 CA        102.2000  179.9100   66.1500 C.3       6 GLY6        0.0000 
     89 CA        103.1800  179.1900   65.2800 C.3       6 GLY6        0.0000 
     90 CA        104.6700  178.5200   62.3500 C.3       6 GLY6        0.0000 
     91 CA        105.1900  179.5100   64.6900 C.3       6 GLY6        0.0000 
     92 CA        105.7000  179.5700   62.6300 C.3       6 GLY6        0.0000 
     93 CA        107.2000  179.8300   64.1000 C.3       6 GLY6        0.0000 
     94 CA        107.7700  181.6700   63.2000 C.3       6 GLY6        0.0000 
     95 CA        109.7800  181.9900   62.6200 C.3       6 GLY6        0.0000 
     96 DU         99.4800  173.3500   68.5700 H         7 CUB7        0.0000 
     97 DU        100.4600  172.6300   67.6900 H         7 CUB7        0.0000 
     98 DU         98.0300  174.8700   68.2500 H         7 CUB7        0.0000 
     99 DU         99.0100  174.1400   67.3800 H         7 CUB7        0.0000 
    100 DU         97.5600  175.6500   67.0700 H         7 CUB7        0.0000 
    101 DU        100.5200  174.4000   68.8500 H         7 CUB7        0.0000 
    102 DU        100.0400  175.1900   67.6700 H         7 CUB7        0.0000 
    103 DU        100.6100  177.0300   66.7700 H         7 CUB7        0.0000 
    104 DU        101.6400  178.0800   67.0500 H         7 CUB7        0.0000 
@<TRIPOS>BOND
@<TRIPOS>SUBSTRUCTURE
     1 SER1        1 GROUP   
     2 ALA2       14 GROUP   
     3 ASP3       49 GROUP   
     4 LYS4       57 GROUP   
     5 PHE5       66 GROUP   
     6 GLY6       68 GROUP   
     7 CUB7       96 GROUP   
@<TRIPOS>SET

