#    Name: 6izr_13_ADP
#    Modification time : Fri May 22 19:28:33 2020

@<TRIPOS>MOLECULE
6izr_13_ADP
   27    29     1     0     1
SMALL
NO_CHARGES


@<TRIPOS>ATOM
      1 PB        128.8530   88.2460   62.1490 P.3       1 ADP401      0.0000 
      2 O1B       129.7710   87.6470   61.0930 O.co2     1 ADP401      0.0000 
      3 O2B       129.3360   88.2470   63.5890 O.co2     1 ADP401      0.0000 
      4 O3B       128.2800   89.5860   61.7580 O.co2     1 ADP401      0.0000 
      5 PA        127.3320   85.9020   62.9040 P.3       1 ADP401      0.0000 
      6 O1A       126.8980   84.8320   61.9320 O.co2     1 ADP401      0.0000 
      7 O2A       128.4940   85.6370   63.8220 O.co2     1 ADP401      0.0000 
      8 O3A       127.5860   87.2470   62.0470 O.3       1 ADP401      0.0000 
      9 O5'       126.0600   86.3560   63.7830 O.3       1 ADP401      0.0000 
     10 C5'       125.9060   85.9550   65.1440 C.3       1 ADP401      0.0000 
     11 C4'       124.6740   86.6260   65.7450 C.3       1 ADP401      0.0000 
     12 O4'       123.5770   85.7350   65.5860 O.3       1 ADP401      0.0000 
     13 C3'       124.7910   86.8810   67.2430 C.3       1 ADP401      0.0000 
     14 O3'       125.0360   88.2590   67.5340 O.3       1 ADP401      0.0000 
     15 C2'       123.4840   86.4240   67.8690 C.3       1 ADP401      0.0000 
     16 O2'       122.6320   87.5020   68.2720 O.3       1 ADP401      0.0000 
     17 C1'       122.7830   85.6620   66.7720 C.3       1 ADP401      0.0000 
     18 N9        122.6410   84.2600   67.2190 N.pl3     1 ADP401      0.0000 
     19 C8        123.4430   83.2200   66.9250 C.2       1 ADP401      0.0000 
     20 N7        122.9900   82.0840   67.5090 N.2       1 ADP401      0.0000 
     21 C5        121.8780   82.4070   68.1890 C.ar      1 ADP401      0.0000 
     22 C6        120.8990   81.6940   69.0300 C.ar      1 ADP401      0.0000 
     23 N6        121.0220   80.3640   69.2670 N.pl3     1 ADP401      0.0000 
     24 N1        119.8830   82.4190   69.5490 N.ar      1 ADP401      0.0000 
     25 C2        119.7470   83.7390   69.3210 C.ar      1 ADP401      0.0000 
     26 N3        120.5960   84.4500   68.5690 N.ar      1 ADP401      0.0000 
     27 C4        121.6560   83.8420   67.9960 C.ar      1 ADP401      0.0000 
@<TRIPOS>BOND
     1    1    2 ar   
     2    1    3 ar   
     3    1    4 ar   
     4    1    8 1    
     5    5    6 ar   
     6    5    7 ar   
     7    5    8 1    
     8    5    9 1    
     9    9   10 1    
    10   10   11 1    
    11   11   12 1    
    12   11   13 1    
    13   12   17 1    
    14   13   14 1    
    15   13   15 1    
    16   15   16 1    
    17   15   17 1    
    18   17   18 1    
    19   18   19 1    
    20   18   27 1    
    21   19   20 2    
    22   20   21 1    
    23   21   22 ar   
    24   21   27 ar   
    25   22   23 1    
    26   22   24 ar   
    27   24   25 ar   
    28   25   26 ar   
    29   26   27 ar   
@<TRIPOS>SUBSTRUCTURE
     1 ADP401      1 GROUP   
@<TRIPOS>SET
ATOM$ORANGE STATIC     ATOMS   COLORGROUP SYSTEM 
20 10 10 11 11 13 13 15 15 17 17 19 19 21 21 22 22 25 \
25 27 27 

