#    Name: 6izr_8_ADP
#    Modification time : Fri May 22 19:27:35 2020

@<TRIPOS>MOLECULE
6izr_8_ADP
   27    29     1     0     1
SMALL
NO_CHARGES


@<TRIPOS>ATOM
      1 PB        149.4560  190.4180  113.7780 P.3       1 ADP401      0.0000 
      2 O1B       149.8030  189.1910  112.9470 O.co2     1 ADP401      0.0000 
      3 O2B       149.3980  190.2580  115.2860 O.co2     1 ADP401      0.0000 
      4 O3B       150.2290  191.6510  113.3820 O.co2     1 ADP401      0.0000 
      5 PA        146.5730  190.1800  113.8750 P.3       1 ADP401      0.0000 
      6 O1A       145.7320  189.6860  112.7250 O.co2     1 ADP401      0.0000 
      7 O2A       146.8450  189.2620  115.0370 O.co2     1 ADP401      0.0000 
      8 O3A       147.9590  190.7240  113.2500 O.3       1 ADP401      0.0000 
      9 O5'       145.9450  191.5570  114.4280 O.3       1 ADP401      0.0000 
     10 C5'       145.2180  191.6120  115.6550 C.3       1 ADP401      0.0000 
     11 C4'       144.8480  193.0570  115.9720 C.3       1 ADP401      0.0000 
     12 O4'       143.5480  193.2960  115.4460 O.3       1 ADP401      0.0000 
     13 C3'       144.7510  193.3460  117.4660 C.3       1 ADP401      0.0000 
     14 O3'       145.8800  194.0820  117.9440 O.3       1 ADP401      0.0000 
     15 C2'       143.4680  194.1320  117.6790 C.3       1 ADP401      0.0000 
     16 O2'       143.6840  195.5210  117.9460 O.3       1 ADP401      0.0000 
     17 C1'       142.7310  194.0190  116.3680 C.3       1 ADP401      0.0000 
     18 N9        141.4680  193.2950  116.6230 N.pl3     1 ADP401      0.0000 
     19 C8        141.2250  191.9830  116.4500 C.2       1 ADP401      0.0000 
     20 N7        139.9450  191.6820  116.7820 N.2       1 ADP401      0.0000 
     21 C5        139.3620  192.8280  117.1730 C.ar      1 ADP401      0.0000 
     22 C6        138.0270  193.2330  117.6540 C.ar      1 ADP401      0.0000 
     23 N6        137.0280  192.3240  117.7850 N.pl3     1 ADP401      0.0000 
     24 N1        137.8480  194.5380  117.9550 N.ar      1 ADP401      0.0000 
     25 C2        138.8290  195.4510  117.8310 C.ar      1 ADP401      0.0000 
     26 N3        140.0620  195.1560  117.3990 N.ar      1 ADP401      0.0000 
     27 C4        140.3710  193.8850  117.0690 C.ar      1 ADP401      0.0000 
@<TRIPOS>BOND
     1    1    2 ar   
     2    1    3 ar   
     3    1    4 ar   
     4    1    8 1    
     5    5    6 ar   
     6    5    7 ar   
     7    5    8 1    
     8    5    9 1    
     9    9   10 1    
    10   10   11 1    
    11   11   12 1    
    12   11   13 1    
    13   12   17 1    
    14   13   14 1    
    15   13   15 1    
    16   15   16 1    
    17   15   17 1    
    18   17   18 1    
    19   18   19 1    
    20   18   27 1    
    21   19   20 2    
    22   20   21 1    
    23   21   22 ar   
    24   21   27 ar   
    25   22   23 1    
    26   22   24 ar   
    27   24   25 ar   
    28   25   26 ar   
    29   26   27 ar   
@<TRIPOS>SUBSTRUCTURE
     1 ADP401      1 GROUP   
@<TRIPOS>SET
ATOM$ORANGE STATIC     ATOMS   COLORGROUP SYSTEM 
20 10 10 11 11 13 13 15 15 17 17 19 19 21 21 22 22 25 \
25 27 27 

