#    Name: 6izr_26_ADP
#    Modification time : Fri May 22 19:31:01 2020

@<TRIPOS>MOLECULE
6izr_26_ADP
   27    29     1     0     1
SMALL
NO_CHARGES


@<TRIPOS>ATOM
      1 PB         47.8250  109.5120   80.0110 P.3       1 ADP401      0.0000 
      2 O1B        47.9950  109.4890   78.5030 O.co2     1 ADP401      0.0000 
      3 O2B        47.1700  110.7360   80.6360 O.co2     1 ADP401      0.0000 
      4 O3B        49.0870  109.0790   80.7160 O.co2     1 ADP401      0.0000 
      5 PA         45.4940  107.8610   79.5390 P.3       1 ADP401      0.0000 
      6 O1A        45.3810  108.6600   78.2670 O.co2     1 ADP401      0.0000 
      7 O2A        44.3120  107.7890   80.4740 O.co2     1 ADP401      0.0000 
      8 O3A        46.7570  108.3660   80.4090 O.3       1 ADP401      0.0000 
      9 O5'        45.9680  106.3640   79.1820 O.3       1 ADP401      0.0000 
     10 C5'        45.6970  105.7730   77.9100 C.3       1 ADP401      0.0000 
     11 C4'        46.3630  104.4020   77.8250 C.3       1 ADP401      0.0000 
     12 O4'        45.4060  103.4330   78.2330 O.3       1 ADP401      0.0000 
     13 C3'        46.7720  104.0130   76.4090 C.3       1 ADP401      0.0000 
     14 O3'        48.1830  104.1250   76.2100 O.3       1 ADP401      0.0000 
     15 C2'        46.3150  102.5790   76.1980 C.3       1 ADP401      0.0000 
     16 O2'        47.3830  101.6260   76.2190 O.3       1 ADP401      0.0000 
     17 C1'        45.4120  102.2920   77.3730 C.3       1 ADP401      0.0000 
     18 N9         44.0560  102.0310   76.8440 N.pl3     1 ADP401      0.0000 
     19 C8         43.0340  102.9010   76.7420 C.2       1 ADP401      0.0000 
     20 N7         41.9400  102.2970   76.2150 N.2       1 ADP401      0.0000 
     21 C5         42.2730  101.0180   75.9780 C.ar      1 ADP401      0.0000 
     22 C6         41.5990   99.8260   75.4300 C.ar      1 ADP401      0.0000 
     23 N6         40.3060   99.8840   75.0180 N.pl3     1 ADP401      0.0000 
     24 N1         42.3200   98.6860   75.3570 N.ar      1 ADP401      0.0000 
     25 C2         43.6020   98.6130   75.7600 C.ar      1 ADP401      0.0000 
     26 N3         44.2760   99.6520   76.2680 N.ar      1 ADP401      0.0000 
     27 C4         43.6690  100.8510   76.3910 C.ar      1 ADP401      0.0000 
@<TRIPOS>BOND
     1    1    2 ar   
     2    1    3 ar   
     3    1    4 ar   
     4    1    8 1    
     5    5    6 ar   
     6    5    7 ar   
     7    5    8 1    
     8    5    9 1    
     9    9   10 1    
    10   10   11 1    
    11   11   12 1    
    12   11   13 1    
    13   12   17 1    
    14   13   14 1    
    15   13   15 1    
    16   15   16 1    
    17   15   17 1    
    18   17   18 1    
    19   18   19 1    
    20   18   27 1    
    21   19   20 2    
    22   20   21 1    
    23   21   22 ar   
    24   21   27 ar   
    25   22   23 1    
    26   22   24 ar   
    27   24   25 ar   
    28   25   26 ar   
    29   26   27 ar   
@<TRIPOS>SUBSTRUCTURE
     1 ADP401      1 GROUP   
@<TRIPOS>SET
ATOM$ORANGE STATIC     ATOMS   COLORGROUP SYSTEM 
20 10 10 11 11 13 13 15 15 17 17 19 19 21 21 22 22 25 \
25 27 27 

