#    Name: 6izr_21_ADP
#    Modification time : Fri May 22 19:30:05 2020

@<TRIPOS>MOLECULE
6izr_21_ADP
   27    29     1     0     1
SMALL
NO_CHARGES


@<TRIPOS>ATOM
      1 PB        115.7090  236.9930  130.5770 P.3       1 ADP401      0.0000 
      2 O1B       115.6450  237.0090  129.0600 O.co2     1 ADP401      0.0000 
      3 O2B       116.3240  238.1970  131.2760 O.co2     1 ADP401      0.0000 
      4 O3B       116.2230  235.6720  131.0950 O.co2     1 ADP401      0.0000 
      5 PA        112.9360  237.8170  130.4740 P.3       1 ADP401      0.0000 
      6 O1A       113.3620  238.5380  129.2210 O.co2     1 ADP401      0.0000 
      7 O2A       112.2460  238.5850  131.5740 O.co2     1 ADP401      0.0000 
      8 O3A       114.1970  237.0610  131.1430 O.3       1 ADP401      0.0000 
      9 O5'       112.0230  236.5520  130.0700 O.3       1 ADP401      0.0000 
     10 C5'       111.2670  236.5270  128.8600 C.3       1 ADP401      0.0000 
     11 C4'       110.5980  235.1650  128.6950 C.3       1 ADP401      0.0000 
     12 O4'       109.2910  235.2560  129.2510 O.3       1 ADP401      0.0000 
     13 C3'       110.4030  234.7560  127.2390 C.3       1 ADP401      0.0000 
     14 O3'       111.3420  233.7570  126.8330 O.3       1 ADP401      0.0000 
     15 C2'       108.9800  234.2370  127.1160 C.3       1 ADP401      0.0000 
     16 O2'       108.8960  232.8140  126.9900 O.3       1 ADP401      0.0000 
     17 C1'       108.3180  234.6310  128.4130 C.3       1 ADP401      0.0000 
     18 N9        107.2250  235.5730  128.0920 N.pl3     1 ADP401      0.0000 
     19 C8        107.2630  236.9180  128.1300 C.2       1 ADP401      0.0000 
     20 N7        106.0640  237.4430  127.7760 N.2       1 ADP401      0.0000 
     21 C5        105.2460  236.4110  127.5090 C.ar      1 ADP401      0.0000 
     22 C6        103.8440  236.2470  127.0810 C.ar      1 ADP401      0.0000 
     23 N6        103.0510  237.3260  126.8630 N.pl3     1 ADP401      0.0000 
     24 N1        103.3910  234.9840  126.9170 N.ar      1 ADP401      0.0000 
     25 C2        104.1660  233.9030  127.1280 C.ar      1 ADP401      0.0000 
     26 N3        105.4440  233.9780  127.5200 N.ar      1 ADP401      0.0000 
     27 C4        106.0180  235.1830  127.7160 C.ar      1 ADP401      0.0000 
@<TRIPOS>BOND
     1    1    2 ar   
     2    1    3 ar   
     3    1    4 ar   
     4    1    8 1    
     5    5    6 ar   
     6    5    7 ar   
     7    5    8 1    
     8    5    9 1    
     9    9   10 1    
    10   10   11 1    
    11   11   12 1    
    12   11   13 1    
    13   12   17 1    
    14   13   14 1    
    15   13   15 1    
    16   15   16 1    
    17   15   17 1    
    18   17   18 1    
    19   18   19 1    
    20   18   27 1    
    21   19   20 2    
    22   20   21 1    
    23   21   22 ar   
    24   21   27 ar   
    25   22   23 1    
    26   22   24 ar   
    27   24   25 ar   
    28   25   26 ar   
    29   26   27 ar   
@<TRIPOS>SUBSTRUCTURE
     1 ADP401      1 GROUP   
@<TRIPOS>SET
ATOM$ORANGE STATIC     ATOMS   COLORGROUP SYSTEM 
20 10 10 11 11 13 13 15 15 17 17 19 19 21 21 22 22 25 \
25 27 27 

