#    Name: 6izr_25_ADP
#    Modification time : Fri May 22 19:30:50 2020

@<TRIPOS>MOLECULE
6izr_25_ADP
   27    29     1     0     1
SMALL
NO_CHARGES


@<TRIPOS>ATOM
      1 PB         48.2200  117.3900  130.6420 P.3       1 ADP401      0.0000 
      2 O1B        48.5380  117.2470  129.1650 O.co2     1 ADP401      0.0000 
      3 O2B        48.5820  118.7030  131.3230 O.co2     1 ADP401      0.0000 
      4 O3B        48.6490  116.1720  131.4210 O.co2     1 ADP401      0.0000 
      5 PA         45.5250  117.9840  129.7650 P.3       1 ADP401      0.0000 
      6 O1A        46.2160  118.6040  128.5790 O.co2     1 ADP401      0.0000 
      7 O2A        44.5450  118.8080  130.5630 O.co2     1 ADP401      0.0000 
      8 O3A        46.6120  117.4000  130.8080 O.3       1 ADP401      0.0000 
      9 O5'        44.8060  116.6190  129.3030 O.3       1 ADP401      0.0000 
     10 C5'        44.3810  116.4150  127.9550 C.3       1 ADP401      0.0000 
     11 C4'        43.8410  114.9960  127.7940 C.3       1 ADP401      0.0000 
     12 O4'        42.4340  115.0440  127.9980 O.3       1 ADP401      0.0000 
     13 C3'        44.0390  114.4270  126.3940 C.3       1 ADP401      0.0000 
     14 O3'        45.0950  113.4650  126.3510 O.3       1 ADP401      0.0000 
     15 C2'        42.7190  113.7910  125.9880 C.3       1 ADP401      0.0000 
     16 O2'        42.7380  112.3610  126.0160 O.3       1 ADP401      0.0000 
     17 C1'        41.7330  114.2640  127.0280 C.3       1 ADP401      0.0000 
     18 N9         40.7120  115.0830  126.3400 N.pl3     1 ADP401      0.0000 
     19 C8         40.6750  116.4240  126.2270 C.2       1 ADP401      0.0000 
     20 N7         39.5810  116.8180  125.5310 N.2       1 ADP401      0.0000 
     21 C5         38.9070  115.7050  125.1950 C.ar      1 ADP401      0.0000 
     22 C6         37.6680  115.3920  124.4590 C.ar      1 ADP401      0.0000 
     23 N6         36.9040  116.3800  123.9280 N.pl3     1 ADP401      0.0000 
     24 N1         37.3320  114.0880  124.3400 N.ar      1 ADP401      0.0000 
     25 C2         38.0780  113.0970  124.8610 C.ar      1 ADP401      0.0000 
     26 N3         39.2120  113.3070  125.5410 N.ar      1 ADP401      0.0000 
     27 C4         39.6600  114.5660  125.7280 C.ar      1 ADP401      0.0000 
@<TRIPOS>BOND
     1    1    2 ar   
     2    1    3 ar   
     3    1    4 ar   
     4    1    8 1    
     5    5    6 ar   
     6    5    7 ar   
     7    5    8 1    
     8    5    9 1    
     9    9   10 1    
    10   10   11 1    
    11   11   12 1    
    12   11   13 1    
    13   12   17 1    
    14   13   14 1    
    15   13   15 1    
    16   15   16 1    
    17   15   17 1    
    18   17   18 1    
    19   18   19 1    
    20   18   27 1    
    21   19   20 2    
    22   20   21 1    
    23   21   22 ar   
    24   21   27 ar   
    25   22   23 1    
    26   22   24 ar   
    27   24   25 ar   
    28   25   26 ar   
    29   26   27 ar   
@<TRIPOS>SUBSTRUCTURE
     1 ADP401      1 GROUP   
@<TRIPOS>SET
ATOM$ORANGE STATIC     ATOMS   COLORGROUP SYSTEM 
20 10 10 11 11 13 13 15 15 17 17 19 19 21 21 22 22 25 \
25 27 27 

