#    Name: 6izr_3_ADP
#    Modification time : Fri May 22 19:26:35 2020

@<TRIPOS>MOLECULE
6izr_3_ADP
   27    29     1     0     1
SMALL
NO_CHARGES


@<TRIPOS>ATOM
      1 PB        180.8140  100.0760   62.5340 P.3       1 ADP401      0.0000 
      2 O1B       181.7520   99.2710   61.6460 O.co2     1 ADP401      0.0000 
      3 O2B       181.2420  100.3340   63.9680 O.co2     1 ADP401      0.0000 
      4 O3B       180.2950  101.3310   61.8780 O.co2     1 ADP401      0.0000 
      5 PA        179.1960   97.9470   63.6460 P.3       1 ADP401      0.0000 
      6 O1A       178.7680   96.7260   62.8710 O.co2     1 ADP401      0.0000 
      7 O2A       180.3160   97.8320   64.6440 O.co2     1 ADP401      0.0000 
      8 O3A       179.5230   99.1030   62.5660 O.3       1 ADP401      0.0000 
      9 O5'       177.9070   98.5860   64.3700 O.3       1 ADP401      0.0000 
     10 C5'       177.6910   98.4470   65.7740 C.3       1 ADP401      0.0000 
     11 C4'       176.4580   99.2460   66.1890 C.3       1 ADP401      0.0000 
     12 O4'       175.3410   98.3660   66.1530 O.3       1 ADP401      0.0000 
     13 C3'       176.5260   99.7720   67.6170 C.3       1 ADP401      0.0000 
     14 O3'       176.8000  101.1750   67.6580 O.3       1 ADP401      0.0000 
     15 C2'       175.1840   99.4690   68.2620 C.3       1 ADP401      0.0000 
     16 O2'       174.3500  100.6220   68.4220 O.3       1 ADP401      0.0000 
     17 C1'       174.5020   98.5320   67.2960 C.3       1 ADP401      0.0000 
     18 N9        174.3020   97.2410   67.9880 N.pl3     1 ADP401      0.0000 
     19 C8        175.0830   96.1470   67.9260 C.2       1 ADP401      0.0000 
     20 N7        174.5760   95.1500   68.6910 N.2       1 ADP401      0.0000 
     21 C5        173.4490   95.6190   69.2510 C.ar      1 ADP401      0.0000 
     22 C6        172.4180   95.0970   70.1680 C.ar      1 ADP401      0.0000 
     23 N6        172.4930   93.8310   70.6520 N.pl3     1 ADP401      0.0000 
     24 N1        171.4050   95.9280   70.5000 N.ar      1 ADP401      0.0000 
     25 C2        171.3180   97.1860   70.0280 C.ar      1 ADP401      0.0000 
     26 N3        172.2150   97.7260   69.1930 N.ar      1 ADP401      0.0000 
     27 C4        173.2760   96.9980   68.7870 C.ar      1 ADP401      0.0000 
@<TRIPOS>BOND
     1    1    2 ar   
     2    1    3 ar   
     3    1    4 ar   
     4    1    8 1    
     5    5    6 ar   
     6    5    7 ar   
     7    5    8 1    
     8    5    9 1    
     9    9   10 1    
    10   10   11 1    
    11   11   12 1    
    12   11   13 1    
    13   12   17 1    
    14   13   14 1    
    15   13   15 1    
    16   15   16 1    
    17   15   17 1    
    18   17   18 1    
    19   18   19 1    
    20   18   27 1    
    21   19   20 2    
    22   20   21 1    
    23   21   22 ar   
    24   21   27 ar   
    25   22   23 1    
    26   22   24 ar   
    27   24   25 ar   
    28   25   26 ar   
    29   26   27 ar   
@<TRIPOS>SUBSTRUCTURE
     1 ADP401      1 GROUP   
@<TRIPOS>SET
ATOM$ORANGE STATIC     ATOMS   COLORGROUP SYSTEM 
20 10 10 11 11 13 13 15 15 17 17 19 19 21 21 22 22 25 \
25 27 27 

