#    Name: 6izr_15_ADP
#    Modification time : Fri May 22 19:28:55 2020

@<TRIPOS>MOLECULE
6izr_15_ADP
   27    29     1     0     1
SMALL
NO_CHARGES


@<TRIPOS>ATOM
      1 PB        228.0750   95.0300  131.8670 P.3       1 ADP401      0.0000 
      2 O1B       228.4350   95.3540  130.4290 O.co2     1 ADP401      0.0000 
      3 O2B       228.3930   96.0720  132.9300 O.co2     1 ADP401      0.0000 
      4 O3B       228.5080   93.6350  132.2450 O.co2     1 ADP401      0.0000 
      5 PA        225.3950   95.8390  131.1340 P.3       1 ADP401      0.0000 
      6 O1A       226.1050   96.8020  130.2180 O.co2     1 ADP401      0.0000 
      7 O2A       224.3790   96.3670  132.1160 O.co2     1 ADP401      0.0000 
      8 O3A       226.4640   94.9720  131.9780 O.3       1 ADP401      0.0000 
      9 O5'       224.7130   94.6760  130.2510 O.3       1 ADP401      0.0000 
     10 C5'       224.3280   94.8930  128.8930 C.3       1 ADP401      0.0000 
     11 C4'       223.8190   93.5890  128.2870 C.3       1 ADP401      0.0000 
     12 O4'       222.4070   93.5560  128.4530 O.3       1 ADP401      0.0000 
     13 C3'       224.0640   93.4810  126.7860 C.3       1 ADP401      0.0000 
     14 O3'       225.1410   92.5900  126.4820 O.3       1 ADP401      0.0000 
     15 C2'       222.7680   92.9880  126.1640 C.3       1 ADP401      0.0000 
     16 O2'       222.8140   91.6190  125.7510 O.3       1 ADP401      0.0000 
     17 C1'       221.7470   93.1070  127.2680 C.3       1 ADP401      0.0000 
     18 N9        220.7290   94.0880  126.8350 N.pl3     1 ADP401      0.0000 
     19 C8        220.6690   95.3980  127.1390 C.2       1 ADP401      0.0000 
     20 N7        219.5860   95.9760  126.5660 N.2       1 ADP401      0.0000 
     21 C5        218.9420   95.0140  125.8830 C.ar      1 ADP401      0.0000 
     22 C6        217.7290   94.9300  125.0480 C.ar      1 ADP401      0.0000 
     23 N6        216.9610   96.0270  124.8240 N.pl3     1 ADP401      0.0000 
     24 N1        217.4220   93.7240  124.5220 N.ar      1 ADP401      0.0000 
     25 C2        218.1730   92.6280  124.7360 C.ar      1 ADP401      0.0000 
     26 N3        219.2840   92.6300  125.4830 N.ar      1 ADP401      0.0000 
     27 C4        219.7030   93.7750  126.0620 C.ar      1 ADP401      0.0000 
@<TRIPOS>BOND
     1    1    2 ar   
     2    1    3 ar   
     3    1    4 ar   
     4    1    8 1    
     5    5    6 ar   
     6    5    7 ar   
     7    5    8 1    
     8    5    9 1    
     9    9   10 1    
    10   10   11 1    
    11   11   12 1    
    12   11   13 1    
    13   12   17 1    
    14   13   14 1    
    15   13   15 1    
    16   15   16 1    
    17   15   17 1    
    18   17   18 1    
    19   18   19 1    
    20   18   27 1    
    21   19   20 2    
    22   20   21 1    
    23   21   22 ar   
    24   21   27 ar   
    25   22   23 1    
    26   22   24 ar   
    27   24   25 ar   
    28   25   26 ar   
    29   26   27 ar   
@<TRIPOS>SUBSTRUCTURE
     1 ADP401      1 GROUP   
@<TRIPOS>SET
ATOM$ORANGE STATIC     ATOMS   COLORGROUP SYSTEM 
20 10 10 11 11 13 13 15 15 17 17 19 19 21 21 22 22 25 \
25 27 27 

