#    Name: 6izr_28_ADP
#    Modification time : Fri May 22 19:31:23 2020

@<TRIPOS>MOLECULE
6izr_28_ADP
   27    29     1     0     1
SMALL
NO_CHARGES


@<TRIPOS>ATOM
      1 PB         98.5650   55.0510   80.5280 P.3       1 ADP401      0.0000 
      2 O1B        98.8790   55.1990   79.0510 O.co2     1 ADP401      0.0000 
      3 O2B        97.7900   56.1730   81.2060 O.co2     1 ADP401      0.0000 
      4 O3B        99.7750   54.6010   81.3090 O.co2     1 ADP401      0.0000 
      5 PA         96.3800   53.3630   79.6580 P.3       1 ADP401      0.0000 
      6 O1A        96.3480   54.2860   78.4690 O.co2     1 ADP401      0.0000 
      7 O2A        95.1200   53.1410   80.4560 O.co2     1 ADP401      0.0000 
      8 O3A        97.5260   53.8240   80.6990 O.3       1 ADP401      0.0000 
      9 O5'        96.9660   51.9330   79.1990 O.3       1 ADP401      0.0000 
     10 C5'        96.8500   51.4730   77.8530 C.3       1 ADP401      0.0000 
     11 C4'        97.5920   50.1480   77.6950 C.3       1 ADP401      0.0000 
     12 O4'        96.6530   49.1000   77.9040 O.3       1 ADP401      0.0000 
     13 C3'        98.1550   49.9300   76.2960 C.3       1 ADP401      0.0000 
     14 O3'        99.5710   50.1240   76.2520 O.3       1 ADP401      0.0000 
     15 C2'        97.7960   48.5090   75.8940 C.3       1 ADP401      0.0000 
     16 O2'        98.9060   47.6060   75.9250 O.3       1 ADP401      0.0000 
     17 C1'        96.8010   48.0590   76.9360 C.3       1 ADP401      0.0000 
     18 N9         95.5180   47.7990   76.2490 N.pl3     1 ADP401      0.0000 
     19 C8         94.4650   48.6300   76.1340 C.2       1 ADP401      0.0000 
     20 N7         93.4610   48.0410   75.4410 N.2       1 ADP401      0.0000 
     21 C5         93.8830   46.8090   75.1080 C.ar      1 ADP401      0.0000 
     22 C6         93.3280   45.6560   74.3760 C.ar      1 ADP401      0.0000 
     23 N6         92.0800   45.7020   73.8450 N.pl3     1 ADP401      0.0000 
     24 N1         94.1120   44.5610   74.2590 N.ar      1 ADP401      0.0000 
     25 C2         95.3520   44.5000   74.7800 C.ar      1 ADP401      0.0000 
     26 N3         95.9180   45.5060   75.4570 N.ar      1 ADP401      0.0000 
     27 C4         95.2390   46.6580   75.6400 C.ar      1 ADP401      0.0000 
@<TRIPOS>BOND
     1    1    2 ar   
     2    1    3 ar   
     3    1    4 ar   
     4    1    8 1    
     5    5    6 ar   
     6    5    7 ar   
     7    5    8 1    
     8    5    9 1    
     9    9   10 1    
    10   10   11 1    
    11   11   12 1    
    12   11   13 1    
    13   12   17 1    
    14   13   14 1    
    15   13   15 1    
    16   15   16 1    
    17   15   17 1    
    18   17   18 1    
    19   18   19 1    
    20   18   27 1    
    21   19   20 2    
    22   20   21 1    
    23   21   22 ar   
    24   21   27 ar   
    25   22   23 1    
    26   22   24 ar   
    27   24   25 ar   
    28   25   26 ar   
    29   26   27 ar   
@<TRIPOS>SUBSTRUCTURE
     1 ADP401      1 GROUP   
@<TRIPOS>SET
ATOM$ORANGE STATIC     ATOMS   COLORGROUP SYSTEM 
20 10 10 11 11 13 13 15 15 17 17 19 19 21 21 22 22 25 \
25 27 27 

