#    Name: 6izr_2_ADP
#    Modification time : Fri May 22 19:26:22 2020

@<TRIPOS>MOLECULE
6izr_2_ADP
   27    29     1     0     1
SMALL
NO_CHARGES


@<TRIPOS>ATOM
      1 PB        142.4710  141.7370   74.6110 P.3       1 ADP401      0.0000 
      2 O1B       142.7490  141.8530   73.1230 O.co2     1 ADP401      0.0000 
      3 O2B       142.7690  142.9450   75.4870 O.co2     1 ADP401      0.0000 
      4 O3B       143.0030  140.4420   75.1730 O.co2     1 ADP401      0.0000 
      5 PA        139.7160  142.2760   73.9030 P.3       1 ADP401      0.0000 
      6 O1A       140.3270  143.1230   72.8180 O.co2     1 ADP401      0.0000 
      7 O2A       138.7120  142.8930   74.8450 O.co2     1 ADP401      0.0000 
      8 O3A       140.8730  141.6090   74.8140 O.3       1 ADP401      0.0000 
      9 O5'       139.0700  140.9570   73.2420 O.3       1 ADP401      0.0000 
     10 C5'       138.6150  140.9420   71.8890 C.3       1 ADP401      0.0000 
     11 C4'       138.1620  139.5340   71.5130 C.3       1 ADP401      0.0000 
     12 O4'       136.7640  139.4520   71.7550 O.3       1 ADP401      0.0000 
     13 C3'       138.3480  139.2100   70.0360 C.3       1 ADP401      0.0000 
     14 O3'       139.4640  138.3430   69.8150 O.3       1 ADP401      0.0000 
     15 C2'       137.0600  138.5580   69.5630 C.3       1 ADP401      0.0000 
     16 O2'       137.1710  137.1450   69.3610 O.3       1 ADP401      0.0000 
     17 C1'       136.0820  138.7910   70.6880 C.3       1 ADP401      0.0000 
     18 N9        134.9880  139.6360   70.1640 N.pl3     1 ADP401      0.0000 
     19 C8        134.8610  140.9720   70.2700 C.2       1 ADP401      0.0000 
     20 N7        133.7200  141.3950   69.6720 N.2       1 ADP401      0.0000 
     21 C5        133.1090  140.3070   69.1770 C.ar      1 ADP401      0.0000 
     22 C6        131.8690  140.0310   68.4280 C.ar      1 ADP401      0.0000 
     23 N6        131.0260  141.0360   68.0810 N.pl3     1 ADP401      0.0000 
     24 N1        131.6130  138.7430   68.1070 N.ar      1 ADP401      0.0000 
     25 C2        132.4380  137.7350   68.4440 C.ar      1 ADP401      0.0000 
     26 N3        133.5780  137.9100   69.1240 N.ar      1 ADP401      0.0000 
     27 C4        133.9500  139.1520   69.5010 C.ar      1 ADP401      0.0000 
@<TRIPOS>BOND
     1    1    2 ar   
     2    1    3 ar   
     3    1    4 ar   
     4    1    8 1    
     5    5    6 ar   
     6    5    7 ar   
     7    5    8 1    
     8    5    9 1    
     9    9   10 1    
    10   10   11 1    
    11   11   12 1    
    12   11   13 1    
    13   12   17 1    
    14   13   14 1    
    15   13   15 1    
    16   15   16 1    
    17   15   17 1    
    18   17   18 1    
    19   18   19 1    
    20   18   27 1    
    21   19   20 2    
    22   20   21 1    
    23   21   22 ar   
    24   21   27 ar   
    25   22   23 1    
    26   22   24 ar   
    27   24   25 ar   
    28   25   26 ar   
    29   26   27 ar   
@<TRIPOS>SUBSTRUCTURE
     1 ADP401      1 GROUP   
@<TRIPOS>SET
ATOM$ORANGE STATIC     ATOMS   COLORGROUP SYSTEM 
20 10 10 11 11 13 13 15 15 17 17 19 19 21 21 22 22 25 \
25 27 27 

