#    Name: 6izr_29_ADP
#    Modification time : Fri May 22 19:31:34 2020

@<TRIPOS>MOLECULE
6izr_29_ADP
   27    29     1     0     1
SMALL
NO_CHARGES


@<TRIPOS>ATOM
      1 PB        168.8010   49.1160  131.6830 P.3       1 ADP401      0.0000 
      2 O1B       169.2990   49.2890  130.2600 O.co2     1 ADP401      0.0000 
      3 O2B       169.0360   50.2580  132.6610 O.co2     1 ADP401      0.0000 
      4 O3B       169.1740   47.7630  132.2380 O.co2     1 ADP401      0.0000 
      5 PA        166.2130   49.8620  130.6230 P.3       1 ADP401      0.0000 
      6 O1A       167.0200   50.7220  129.6870 O.co2     1 ADP401      0.0000 
      7 O2A       165.1190   50.4930  131.4480 O.co2     1 ADP401      0.0000 
      8 O3A       167.1850   49.0790  131.6470 O.3       1 ADP401      0.0000 
      9 O5'       165.5980   48.6210  129.8010 O.3       1 ADP401      0.0000 
     10 C5'       165.3440   48.7020  128.3980 C.3       1 ADP401      0.0000 
     11 C4'       164.8750   47.3450  127.8810 C.3       1 ADP401      0.0000 
     12 O4'       163.4520   47.3390  127.9150 O.3       1 ADP401      0.0000 
     13 C3'       165.2550   47.0840  126.4280 C.3       1 ADP401      0.0000 
     14 O3'       166.3420   46.1620  126.3170 O.3       1 ADP401      0.0000 
     15 C2'       164.0160   46.5390  125.7390 C.3       1 ADP401      0.0000 
     16 O2'       164.0780   45.1340  125.4720 O.3       1 ADP401      0.0000 
     17 C1'       162.8990   46.7770  126.7240 C.3       1 ADP401      0.0000 
     18 N9        161.9410   47.7140  126.1010 N.pl3     1 ADP401      0.0000 
     19 C8        161.8740   49.0490  126.2660 C.2       1 ADP401      0.0000 
     20 N7        160.8580   49.5730  125.5370 N.2       1 ADP401      0.0000 
     21 C5        160.2660   48.5510  124.8970 C.ar      1 ADP401      0.0000 
     22 C6        159.1350   48.3910  123.9640 C.ar      1 ADP401      0.0000 
     23 N6        158.4080   49.4640  123.5600 N.pl3     1 ADP401      0.0000 
     24 N1        158.8570   47.1400  123.5360 N.ar      1 ADP401      0.0000 
     25 C2        159.5690   46.0670  123.9280 C.ar      1 ADP401      0.0000 
     26 N3        160.6060   46.1370  124.7720 N.ar      1 ADP401      0.0000 
     27 C4        160.9860   47.3310  125.2700 C.ar      1 ADP401      0.0000 
@<TRIPOS>BOND
     1    1    2 ar   
     2    1    3 ar   
     3    1    4 ar   
     4    1    8 1    
     5    5    6 ar   
     6    5    7 ar   
     7    5    8 1    
     8    5    9 1    
     9    9   10 1    
    10   10   11 1    
    11   11   12 1    
    12   11   13 1    
    13   12   17 1    
    14   13   14 1    
    15   13   15 1    
    16   15   16 1    
    17   15   17 1    
    18   17   18 1    
    19   18   19 1    
    20   18   27 1    
    21   19   20 2    
    22   20   21 1    
    23   21   22 ar   
    24   21   27 ar   
    25   22   23 1    
    26   22   24 ar   
    27   24   25 ar   
    28   25   26 ar   
    29   26   27 ar   
@<TRIPOS>SUBSTRUCTURE
     1 ADP401      1 GROUP   
@<TRIPOS>SET
ATOM$ORANGE STATIC     ATOMS   COLORGROUP SYSTEM 
20 10 10 11 11 13 13 15 15 17 17 19 19 21 21 22 22 25 \
25 27 27 

