#    Name: 6izr_14_ADP_CAVITY_N1_4
#    Modification time : Fri May 22 19:28:46 2020

@<TRIPOS>MOLECULE
6izr_14_ADP_CAVITY_N1_4
   89     0     7     0     0
SMALL
NO_CHARGES


@<TRIPOS>ATOM
      1 OG        129.6200   86.6800  120.4200 O.3       1 SER1        0.0000 
      2 OG        130.6000   85.9600  119.5500 O.3       1 SER1        0.0000 
      3 OG        131.1200   86.9400  121.8900 O.3       1 SER1        0.0000 
      4 OG        132.1000   86.2200  121.0200 O.3       1 SER1        0.0000 
      5 OG        133.0800   85.4900  120.1500 O.3       1 SER1        0.0000 
      6 OG        130.6500   87.7300  120.7100 O.3       1 SER1        0.0000 
      7 OG        132.6100   86.2800  118.9600 O.3       1 SER1        0.0000 
      8 OG        130.1800   88.5200  119.5200 O.3       1 SER1        0.0000 
      9 OG        131.1600   87.7900  118.6500 O.3       1 SER1        0.0000 
     10 OG        132.1400   87.0700  117.7700 O.3       1 SER1        0.0000 
     11 OG        138.1000   85.3300  110.4500 O.3       1 SER1        0.0000 
     12 O         129.0000   83.0700  120.1600 O.2       2 ALA2        0.0000 
     13 O         128.5300   83.8600  118.9800 O.2       2 ALA2        0.0000 
     14 N         130.0300   84.1200  120.4500 N.am      2 ALA2        0.0000 
     15 O         129.5600   84.9100  119.2600 O.2       2 ALA2        0.0000 
     16 O         130.5400   84.1800  118.3900 O.2       2 ALA2        0.0000 
     17 N         129.0900   85.7000  118.0800 N.am      2 ALA2        0.0000 
     18 O         132.0300   83.5100  115.4600 O.2       2 ALA2        0.0000 
     19 N         127.6400   87.2100  117.7600 N.am      2 ALA2        0.0000 
     20 O         131.5600   84.3000  114.2700 O.2       2 ALA2        0.0000 
     21 O         132.5400   83.5800  113.4000 O.2       2 ALA2        0.0000 
     22 N         132.5200   83.6500  121.0500 N.am      2 ALA2        0.0000 
     23 N         132.0500   84.4400  119.8600 N.am      2 ALA2        0.0000 
     24 O         131.5800   85.2300  118.6700 O.2       2 ALA2        0.0000 
     25 O         132.5600   84.5000  117.8000 O.2       2 ALA2        0.0000 
     26 N         128.1600   88.2000  120.1100 N.am      2 ALA2        0.0000 
     27 N         126.7100   89.7100  119.7900 N.am      2 ALA2        0.0000 
     28 O         130.6300   86.8100  116.3000 O.2       2 ALA2        0.0000 
     29 O         131.6100   86.0800  115.4300 O.2       2 ALA2        0.0000 
     30 O         132.5900   85.3500  114.5600 O.2       2 ALA2        0.0000 
     31 O         133.5700   84.6200  113.6800 O.2       2 ALA2        0.0000 
     32 O         134.5500   83.9000  112.8100 O.2       2 ALA2        0.0000 
     33 N         130.1400   87.6700  122.7600 N.am      2 ALA2        0.0000 
     34 N         134.0600   84.7600  119.2700 N.am      2 ALA2        0.0000 
     35 N         129.2000   89.2500  120.3900 N.am      2 ALA2        0.0000 
     36 N         128.7300   90.0400  119.2100 N.am      2 ALA2        0.0000 
     37 O         136.5600   84.2200  112.2200 O.2       2 ALA2        0.0000 
     38 O         137.0700   84.2800  110.1700 O.2       2 ALA2        0.0000 
     39 O         137.6000   85.2700  112.5100 O.2       2 ALA2        0.0000 
     40 O         137.1200   86.0600  111.3200 O.2       2 ALA2        0.0000 
     41 OD1       128.0200   83.8000  121.0300 O.co2     3 ASP3        0.0000 
     42 OD1       126.5700   85.3100  120.7200 O.co2     3 ASP3        0.0000 
     43 OD1       127.5500   84.5800  119.8500 O.co2     3 ASP3        0.0000 
     44 OD1       133.0100   82.7900  114.5800 O.co2     3 ASP3        0.0000 
     45 OD1       133.5200   82.8500  112.5300 O.co2     3 ASP3        0.0000 
     46 OD1       135.0200   83.1100  114.0000 O.co2     3 ASP3        0.0000 
     47 OD1       135.5300   83.1700  111.9400 O.co2     3 ASP3        0.0000 
     48 NZ        125.5900   86.0400  121.5900 N.4       4 LYS4        0.0000 
     49 NZ        128.0800   85.5700  122.1900 N.4       4 LYS4        0.0000 
     50 NZ        129.1100   86.6200  122.4800 N.4       4 LYS4        0.0000 
     51 CZ        133.1200   86.3400  116.9000 C.ar      5 PHE5        0.0000 
     52 CZ        138.5800   84.5400  111.6400 C.ar      5 PHE5        0.0000 
     53 CA        125.1200   86.8300  120.4100 C.3       6 GLY6        0.0000 
     54 CA        126.1000   86.1000  119.5400 C.3       6 GLY6        0.0000 
     55 CA        127.0800   85.3700  118.6600 C.3       6 GLY6        0.0000 
     56 CA        128.0600   84.6500  117.7900 C.3       6 GLY6        0.0000 
     57 CA        127.6000   86.3600  121.0100 C.3       6 GLY6        0.0000 
     58 CA        125.1700   88.6000  121.5700 C.3       6 GLY6        0.0000 
     59 CA        126.1500   87.8800  120.6900 C.3       6 GLY6        0.0000 
     60 CA        127.1300   87.1500  119.8200 C.3       6 GLY6        0.0000 
     61 CA        130.0700   84.9700  117.2000 C.3       6 GLY6        0.0000 
     62 CA        131.0500   84.2400  116.3300 C.3       6 GLY6        0.0000 
     63 CA        124.7000   89.3900  120.3800 C.3       6 GLY6        0.0000 
     64 CA        133.0300   83.7200  118.9900 C.3       6 GLY6        0.0000 
     65 CA        128.6400   87.4100  121.2900 C.3       6 GLY6        0.0000 
     66 CA        133.5300   83.7800  116.9300 C.3       6 GLY6        0.0000 
     67 CA        127.1800   88.9200  120.9800 C.3       6 GLY6        0.0000 
     68 CA        133.0600   84.5600  115.7400 C.3       6 GLY6        0.0000 
     69 CA        134.0400   83.8400  114.8700 C.3       6 GLY6        0.0000 
     70 CA        127.6900   88.9900  118.9200 C.3       6 GLY6        0.0000 
     71 CA        128.6700   88.2600  118.0500 C.3       6 GLY6        0.0000 
     72 CA        129.6500   87.5300  117.1800 C.3       6 GLY6        0.0000 
     73 CA        129.6700   88.4600  121.5800 C.3       6 GLY6        0.0000 
     74 CA        133.5900   85.5500  118.0900 C.3       6 GLY6        0.0000 
     75 CA        134.1000   85.6100  116.0300 C.3       6 GLY6        0.0000 
     76 CA        129.7000   89.3100  118.3300 C.3       6 GLY6        0.0000 
     77 CA        131.6600   87.8500  116.5900 C.3       6 GLY6        0.0000 
     78 CA        132.6400   87.1300  115.7200 C.3       6 GLY6        0.0000 
     79 CA        137.5400   83.4900  111.3500 C.3       6 GLY6        0.0000 
     80 CA        136.0900   85.0100  111.0400 C.3       6 GLY6        0.0000 
     81 DU        129.0600   84.8500  121.3200 H         7 CUB7        0.0000 
     82 DU        128.5800   85.6300  120.1300 H         7 CUB7        0.0000 
     83 DU        128.1100   86.4200  118.9500 H         7 CUB7        0.0000 
     84 DU        130.0900   85.9000  121.6100 H         7 CUB7        0.0000 
     85 DU        131.0700   85.1700  120.7300 H         7 CUB7        0.0000 
     86 DU        129.1400   87.4700  119.2300 H         7 CUB7        0.0000 
     87 DU        130.1200   86.7400  118.3600 H         7 CUB7        0.0000 
     88 DU        131.1000   86.0200  117.4900 H         7 CUB7        0.0000 
     89 DU        132.0800   85.2900  116.6200 H         7 CUB7        0.0000 
@<TRIPOS>BOND
@<TRIPOS>SUBSTRUCTURE
     1 SER1        1 GROUP   
     2 ALA2       12 GROUP   
     3 ASP3       41 GROUP   
     4 LYS4       48 GROUP   
     5 PHE5       51 GROUP   
     6 GLY6       53 GROUP   
     7 CUB7       81 GROUP   
@<TRIPOS>SET

