#    Name: 6izr_7_ADP
#    Modification time : Fri May 22 19:27:23 2020

@<TRIPOS>MOLECULE
6izr_7_ADP
   27    29     1     0     1
SMALL
NO_CHARGES


@<TRIPOS>ATOM
      1 PB        160.0090  192.1110   63.6790 P.3       1 ADP401      0.0000 
      2 O1B       159.5910  193.3750   62.9680 O.co2     1 ADP401      0.0000 
      3 O2B       161.1990  191.4180   63.0320 O.co2     1 ADP401      0.0000 
      4 O3B       160.0320  192.3010   65.1850 O.co2     1 ADP401      0.0000 
      5 PA        158.3120  189.8310   64.2250 P.3       1 ADP401      0.0000 
      6 O1A       158.1850  188.6400   63.3090 O.co2     1 ADP401      0.0000 
      7 O2A       159.1390  189.7150   65.4780 O.co2     1 ADP401      0.0000 
      8 O3A       158.8250  191.0700   63.3240 O.3       1 ADP401      0.0000 
      9 O5'       156.8370  190.3500   64.6150 O.3       1 ADP401      0.0000 
     10 C5'       156.2740  190.1120   65.9050 C.3       1 ADP401      0.0000 
     11 C4'       154.9240  190.8130   66.0170 C.3       1 ADP401      0.0000 
     12 O4'       153.9180  189.8780   65.6470 O.3       1 ADP401      0.0000 
     13 C3'       154.5810  191.2510   67.4360 C.3       1 ADP401      0.0000 
     14 O3'       154.7380  192.6600   67.6130 O.3       1 ADP401      0.0000 
     15 C2'       153.1420  190.8350   67.6900 C.3       1 ADP401      0.0000 
     16 O2'       152.2170  191.9270   67.6770 O.3       1 ADP401      0.0000 
     17 C1'       152.8010  189.9230   66.5360 C.3       1 ADP401      0.0000 
     18 N9        152.5200  188.5830   67.0910 N.pl3     1 ADP401      0.0000 
     19 C8        153.3650  187.5390   67.1840 C.2       1 ADP401      0.0000 
     20 N7        152.7480  186.4690   67.7410 N.2       1 ADP401      0.0000 
     21 C5        151.4840  186.8380   68.0070 C.ar      1 ADP401      0.0000 
     22 C6        150.2900  186.2030   68.5950 C.ar      1 ADP401      0.0000 
     23 N6        150.3240  184.9140   69.0230 N.pl3     1 ADP401      0.0000 
     24 N1        149.1710  186.9540   68.6870 N.ar      1 ADP401      0.0000 
     25 C2        149.1200  188.2330   68.2700 C.ar      1 ADP401      0.0000 
     26 N3        150.1620  188.8730   67.7250 N.ar      1 ADP401      0.0000 
     27 C4        151.3420  188.2320   67.5790 C.ar      1 ADP401      0.0000 
@<TRIPOS>BOND
     1    1    2 ar   
     2    1    3 ar   
     3    1    4 ar   
     4    1    8 1    
     5    5    6 ar   
     6    5    7 ar   
     7    5    8 1    
     8    5    9 1    
     9    9   10 1    
    10   10   11 1    
    11   11   12 1    
    12   11   13 1    
    13   12   17 1    
    14   13   14 1    
    15   13   15 1    
    16   15   16 1    
    17   15   17 1    
    18   17   18 1    
    19   18   19 1    
    20   18   27 1    
    21   19   20 2    
    22   20   21 1    
    23   21   22 ar   
    24   21   27 ar   
    25   22   23 1    
    26   22   24 ar   
    27   24   25 ar   
    28   25   26 ar   
    29   26   27 ar   
@<TRIPOS>SUBSTRUCTURE
     1 ADP401      1 GROUP   
@<TRIPOS>SET
ATOM$ORANGE STATIC     ATOMS   COLORGROUP SYSTEM 
20 10 10 11 11 13 13 15 15 17 17 19 19 21 21 22 22 25 \
25 27 27 

