#    Name: 6izr_10_ADP
#    Modification time : Fri May 22 19:27:59 2020

@<TRIPOS>MOLECULE
6izr_10_ADP
   27    29     1     0     1
SMALL
NO_CHARGES


@<TRIPOS>ATOM
      1 PB         99.4380  168.3890  112.7800 P.3       1 ADP401      0.0000 
      2 O1B        99.7230  167.3050  111.7510 O.co2     1 ADP401      0.0000 
      3 O2B        99.5110  168.0100  114.2480 O.co2     1 ADP401      0.0000 
      4 O3B       100.1670  169.6820  112.5060 O.co2     1 ADP401      0.0000 
      5 PA         96.5760  168.0830  113.0800 P.3       1 ADP401      0.0000 
      6 O1A        95.6440  167.7460  111.9430 O.co2     1 ADP401      0.0000 
      7 O2A        96.9540  167.0100  114.0660 O.co2     1 ADP401      0.0000 
      8 O3A        97.9000  168.7400  112.4290 O.3       1 ADP401      0.0000 
      9 O5'        95.9880  169.3510  113.8800 O.3       1 ADP401      0.0000 
     10 C5'        95.3670  169.2110  115.1580 C.3       1 ADP401      0.0000 
     11 C4'        95.0140  170.5870  115.7140 C.3       1 ADP401      0.0000 
     12 O4'        93.6730  170.8750  115.3380 O.3       1 ADP401      0.0000 
     13 C3'        95.0430  170.6510  117.2370 C.3       1 ADP401      0.0000 
     14 O3'        96.2030  171.3330  117.7230 O.3       1 ADP401      0.0000 
     15 C2'        93.7780  171.3730  117.6700 C.3       1 ADP401      0.0000 
     16 O2'        94.0040  172.7110  118.1220 O.3       1 ADP401      0.0000 
     17 C1'        92.9320  171.4390  116.4220 C.3       1 ADP401      0.0000 
     18 N9         91.7010  170.6600  116.6720 N.pl3     1 ADP401      0.0000 
     19 C8         91.4540  169.3820  116.3280 C.2       1 ADP401      0.0000 
     20 N7         90.2090  169.0120  116.7170 N.2       1 ADP401      0.0000 
     21 C5         89.6530  170.0750  117.3200 C.ar      1 ADP401      0.0000 
     22 C6         88.3610  170.3790  117.9640 C.ar      1 ADP401      0.0000 
     23 N6         87.3840  169.4400  118.0420 N.pl3     1 ADP401      0.0000 
     24 N1         88.1980  171.6220  118.4680 N.ar      1 ADP401      0.0000 
     25 C2         89.1580  172.5640  118.3970 C.ar      1 ADP401      0.0000 
     26 N3         90.3530  172.3590  117.8280 N.ar      1 ADP401      0.0000 
     27 C4         90.6420  171.1560  117.2890 C.ar      1 ADP401      0.0000 
@<TRIPOS>BOND
     1    1    2 ar   
     2    1    3 ar   
     3    1    4 ar   
     4    1    8 1    
     5    5    6 ar   
     6    5    7 ar   
     7    5    8 1    
     8    5    9 1    
     9    9   10 1    
    10   10   11 1    
    11   11   12 1    
    12   11   13 1    
    13   12   17 1    
    14   13   14 1    
    15   13   15 1    
    16   15   16 1    
    17   15   17 1    
    18   17   18 1    
    19   18   19 1    
    20   18   27 1    
    21   19   20 2    
    22   20   21 1    
    23   21   22 ar   
    24   21   27 ar   
    25   22   23 1    
    26   22   24 ar   
    27   24   25 ar   
    28   25   26 ar   
    29   26   27 ar   
@<TRIPOS>SUBSTRUCTURE
     1 ADP401      1 GROUP   
@<TRIPOS>SET
ATOM$ORANGE STATIC     ATOMS   COLORGROUP SYSTEM 
20 10 10 11 11 13 13 15 15 17 17 19 19 21 21 22 22 25 \
25 27 27 

