#    Name: 6izr_20_ADP
#    Modification time : Fri May 22 19:29:54 2020

@<TRIPOS>MOLECULE
6izr_20_ADP
   27    29     1     0     1
SMALL
NO_CHARGES


@<TRIPOS>ATOM
      1 PB        178.4330  233.6720   81.4290 P.3       1 ADP401      0.0000 
      2 O1B       178.2740  234.0170   79.9590 O.co2     1 ADP401      0.0000 
      3 O2B       177.9140  234.6700   82.4550 O.co2     1 ADP401      0.0000 
      4 O3B       179.8220  233.1670   81.7310 O.co2     1 ADP401      0.0000 
      5 PA        176.0730  232.0350   81.0610 P.3       1 ADP401      0.0000 
      6 O1A       175.6810  233.1020   80.0740 O.co2     1 ADP401      0.0000 
      7 O2A       175.1220  231.6700   82.1730 O.co2     1 ADP401      0.0000 
      8 O3A       177.4880  232.3990   81.7480 O.3       1 ADP401      0.0000 
      9 O5'       176.4770  230.6970   80.2590 O.3       1 ADP401      0.0000 
     10 C5'       175.9450  230.4090   78.9660 C.3       1 ADP401      0.0000 
     11 C4'       176.5910  229.1410   78.4130 C.3       1 ADP401      0.0000 
     12 O4'       175.7550  228.0430   78.7610 O.3       1 ADP401      0.0000 
     13 C3'       176.6900  229.1220   76.8920 C.3       1 ADP401      0.0000 
     14 O3'       178.0230  229.3700   76.4400 O.3       1 ADP401      0.0000 
     15 C2'       176.2150  227.7530   76.4370 C.3       1 ADP401      0.0000 
     16 O2'       177.2730  226.8910   76.0060 O.3       1 ADP401      0.0000 
     17 C1'       175.5880  227.1410   77.6660 C.3       1 ADP401      0.0000 
     18 N9        174.1540  226.9270   77.3810 N.pl3     1 ADP401      0.0000 
     19 C8        173.1240  227.7300   77.7070 C.2       1 ADP401      0.0000 
     20 N7        171.9490  227.2010   77.2860 N.2       1 ADP401      0.0000 
     21 C5        172.2370  226.0360   76.6810 C.ar      1 ADP401      0.0000 
     22 C6        171.4740  224.9680   76.0100 C.ar      1 ADP401      0.0000 
     23 N6        170.1240  225.0390   75.9010 N.pl3     1 ADP401      0.0000 
     24 N1        172.1750  223.9240   75.5130 N.ar      1 ADP401      0.0000 
     25 C2        173.5140  223.8380   75.6130 C.ar      1 ADP401      0.0000 
     26 N3        174.2710  224.7700   76.2090 N.ar      1 ADP401      0.0000 
     27 C4        173.6920  225.8650   76.7440 C.ar      1 ADP401      0.0000 
@<TRIPOS>BOND
     1    1    2 ar   
     2    1    3 ar   
     3    1    4 ar   
     4    1    8 1    
     5    5    6 ar   
     6    5    7 ar   
     7    5    8 1    
     8    5    9 1    
     9    9   10 1    
    10   10   11 1    
    11   11   12 1    
    12   11   13 1    
    13   12   17 1    
    14   13   14 1    
    15   13   15 1    
    16   15   16 1    
    17   15   17 1    
    18   17   18 1    
    19   18   19 1    
    20   18   27 1    
    21   19   20 2    
    22   20   21 1    
    23   21   22 ar   
    24   21   27 ar   
    25   22   23 1    
    26   22   24 ar   
    27   24   25 ar   
    28   25   26 ar   
    29   26   27 ar   
@<TRIPOS>SUBSTRUCTURE
     1 ADP401      1 GROUP   
@<TRIPOS>SET
ATOM$ORANGE STATIC     ATOMS   COLORGROUP SYSTEM 
20 10 10 11 11 13 13 15 15 17 17 19 19 21 21 22 22 25 \
25 27 27 

