#    Name: 6izr_4_ADP
#    Modification time : Fri May 22 19:26:47 2020

@<TRIPOS>MOLECULE
6izr_4_ADP
   27    29     1     0     1
SMALL
NO_CHARGES


@<TRIPOS>ATOM
      1 PB        184.6510  103.5830  113.5060 P.3       1 ADP401      0.0000 
      2 O1B       185.3340  104.6760  112.7220 O.co2     1 ADP401      0.0000 
      3 O2B       184.6630  102.2340  112.8020 O.co2     1 ADP401      0.0000 
      4 O3B       185.0430  103.6210  114.9720 O.co2     1 ADP401      0.0000 
      5 PA        181.9230  103.6380  114.4730 P.3       1 ADP401      0.0000 
      6 O1A       180.7480  103.0880  113.7040 O.co2     1 ADP401      0.0000 
      7 O2A       182.4830  102.8510  115.6270 O.co2     1 ADP401      0.0000 
      8 O3A       183.0840  103.9620  113.3980 O.3       1 ADP401      0.0000 
      9 O5'       181.5680  105.1280  114.9730 O.3       1 ADP401      0.0000 
     10 C5'       181.2500  105.4060  116.3360 C.3       1 ADP401      0.0000 
     11 C4'       181.0720  106.9090  116.5300 C.3       1 ADP401      0.0000 
     12 O4'       179.6880  107.2050  116.3740 O.3       1 ADP401      0.0000 
     13 C3'       181.4470  107.3920  117.9260 C.3       1 ADP401      0.0000 
     14 O3'       182.7050  108.0700  117.9390 O.3       1 ADP401      0.0000 
     15 C2'       180.3330  108.3190  118.3850 C.3       1 ADP401      0.0000 
     16 O2'       180.6950  109.7040  118.3660 O.3       1 ADP401      0.0000 
     17 C1'       179.2290  108.1130  117.3760 C.3       1 ADP401      0.0000 
     18 N9        178.0640  107.5520  118.0940 N.pl3     1 ADP401      0.0000 
     19 C8        177.7090  106.2580  118.1970 C.2       1 ADP401      0.0000 
     20 N7        176.5750  106.1270  118.9270 N.2       1 ADP401      0.0000 
     21 C5        176.2010  107.3640  119.2960 C.ar      1 ADP401      0.0000 
     22 C6        175.0980  107.9520  120.0790 C.ar      1 ADP401      0.0000 
     23 N6        174.1370  107.1670  120.6280 N.pl3     1 ADP401      0.0000 
     24 N1        175.0880  109.2960  120.2210 N.ar      1 ADP401      0.0000 
     25 C2        176.0340  110.0880  119.6820 C.ar      1 ADP401      0.0000 
     26 N3        177.0620  109.6240  118.9600 N.ar      1 ADP401      0.0000 
     27 C4        177.1870  108.2970  118.7470 C.ar      1 ADP401      0.0000 
@<TRIPOS>BOND
     1    1    2 ar   
     2    1    3 ar   
     3    1    4 ar   
     4    1    8 1    
     5    5    6 ar   
     6    5    7 ar   
     7    5    8 1    
     8    5    9 1    
     9    9   10 1    
    10   10   11 1    
    11   11   12 1    
    12   11   13 1    
    13   12   17 1    
    14   13   14 1    
    15   13   15 1    
    16   15   16 1    
    17   15   17 1    
    18   17   18 1    
    19   18   19 1    
    20   18   27 1    
    21   19   20 2    
    22   20   21 1    
    23   21   22 ar   
    24   21   27 ar   
    25   22   23 1    
    26   22   24 ar   
    27   24   25 ar   
    28   25   26 ar   
    29   26   27 ar   
@<TRIPOS>SUBSTRUCTURE
     1 ADP401      1 GROUP   
@<TRIPOS>SET
ATOM$ORANGE STATIC     ATOMS   COLORGROUP SYSTEM 
20 10 10 11 11 13 13 15 15 17 17 19 19 21 21 22 22 25 \
25 27 27 

