#    Name: 6izr_22_ADP
#    Modification time : Fri May 22 19:30:17 2020

@<TRIPOS>MOLECULE
6izr_22_ADP
   27    29     1     0     1
SMALL
NO_CHARGES


@<TRIPOS>ATOM
      1 PB        103.5290  235.3540   80.8810 P.3       1 ADP401      0.0000 
      2 O1B       103.2990  235.4820   79.3860 O.co2     1 ADP401      0.0000 
      3 O2B       103.0680  236.4990   81.7720 O.co2     1 ADP401      0.0000 
      4 O3B       104.9280  234.8810   81.1870 O.co2     1 ADP401      0.0000 
      5 PA        101.1450  233.7100   80.8740 P.3       1 ADP401      0.0000 
      6 O1A       100.7090  234.6250   79.7610 O.co2     1 ADP401      0.0000 
      7 O2A       100.2480  233.5270   82.0730 O.co2     1 ADP401      0.0000 
      8 O3A       102.5950  234.1540   81.4310 O.3       1 ADP401      0.0000 
      9 O5'       101.5000  232.2630   80.2610 O.3       1 ADP401      0.0000 
     10 C5'       100.9030  231.7950   79.0520 C.3       1 ADP401      0.0000 
     11 C4'       101.5140  230.4510   78.6630 C.3       1 ADP401      0.0000 
     12 O4'       100.6900  229.4270   79.2110 O.3       1 ADP401      0.0000 
     13 C3'       101.5370  230.2070   77.1590 C.3       1 ADP401      0.0000 
     14 O3'       102.8480  230.3680   76.6100 O.3       1 ADP401      0.0000 
     15 C2'       101.0310  228.7920   76.9350 C.3       1 ADP401      0.0000 
     16 O2'       102.0620  227.8620   76.5830 O.3       1 ADP401      0.0000 
     17 C1'       100.4640  228.3760   78.2710 C.3       1 ADP401      0.0000 
     18 N9         99.0160  228.1400   78.0900 N.pl3     1 ADP401      0.0000 
     19 C8         98.0080  228.9960   78.3430 C.2       1 ADP401      0.0000 
     20 N7         96.8110  228.4250   78.0630 N.2       1 ADP401      0.0000 
     21 C5         97.0620  227.1810   77.6230 C.ar      1 ADP401      0.0000 
     22 C6         96.2610  226.0340   77.1560 C.ar      1 ADP401      0.0000 
     23 N6         94.9060  226.1070   77.1030 N.pl3     1 ADP401      0.0000 
     24 N1         96.9300  224.9200   76.7860 N.ar      1 ADP401      0.0000 
     25 C2         98.2720  224.8330   76.8320 C.ar      1 ADP401      0.0000 
     26 N3         99.0630  225.8310   77.2460 N.ar      1 ADP401      0.0000 
     27 C4         98.5160  227.0010   77.6400 C.ar      1 ADP401      0.0000 
@<TRIPOS>BOND
     1    1    2 ar   
     2    1    3 ar   
     3    1    4 ar   
     4    1    8 1    
     5    5    6 ar   
     6    5    7 ar   
     7    5    8 1    
     8    5    9 1    
     9    9   10 1    
    10   10   11 1    
    11   11   12 1    
    12   11   13 1    
    13   12   17 1    
    14   13   14 1    
    15   13   15 1    
    16   15   16 1    
    17   15   17 1    
    18   17   18 1    
    19   18   19 1    
    20   18   27 1    
    21   19   20 2    
    22   20   21 1    
    23   21   22 ar   
    24   21   27 ar   
    25   22   23 1    
    26   22   24 ar   
    27   24   25 ar   
    28   25   26 ar   
    29   26   27 ar   
@<TRIPOS>SUBSTRUCTURE
     1 ADP401      1 GROUP   
@<TRIPOS>SET
ATOM$ORANGE STATIC     ATOMS   COLORGROUP SYSTEM 
20 10 10 11 11 13 13 15 15 17 17 19 19 21 21 22 22 25 \
25 27 27 

