#    Name: 6izr_24_ADP
#    Modification time : Fri May 22 19:30:39 2020

@<TRIPOS>MOLECULE
6izr_24_ADP
   27    29     1     0     1
SMALL
NO_CHARGES


@<TRIPOS>ATOM
      1 PB         49.5930  183.0470   80.2020 P.3       1 ADP401      0.0000 
      2 O1B        49.5230  183.0130   78.6860 O.co2     1 ADP401      0.0000 
      3 O2B        49.0600  184.2840   80.9120 O.co2     1 ADP401      0.0000 
      4 O3B        50.9460  182.6050   80.7030 O.co2     1 ADP401      0.0000 
      5 PA         47.1970  181.4260   80.1200 P.3       1 ADP401      0.0000 
      6 O1A        46.8950  182.2160   78.8740 O.co2     1 ADP401      0.0000 
      7 O2A        46.1780  181.3740   81.2310 O.co2     1 ADP401      0.0000 
      8 O3A        48.5880  181.9180   80.7750 O.3       1 ADP401      0.0000 
      9 O5'        47.5910  179.9190   79.7060 O.3       1 ADP401      0.0000 
     10 C5'        47.1180  179.3230   78.4990 C.3       1 ADP401      0.0000 
     11 C4'        47.7450  177.9420   78.3220 C.3       1 ADP401      0.0000 
     12 O4'        46.8520  176.9870   78.8850 O.3       1 ADP401      0.0000 
     13 C3'        47.9210  177.5370   76.8630 C.3       1 ADP401      0.0000 
     14 O3'        49.2840  177.6320   76.4420 O.3       1 ADP401      0.0000 
     15 C2'        47.4190  176.1090   76.7400 C.3       1 ADP401      0.0000 
     16 O2'        48.4650  175.1410   76.6000 O.3       1 ADP401      0.0000 
     17 C1'        46.7090  175.8410   78.0450 C.3       1 ADP401      0.0000 
     18 N9         45.2840  175.5940   77.7380 N.pl3     1 ADP401      0.0000 
     19 C8         44.2690  176.4760   77.7920 C.2       1 ADP401      0.0000 
     20 N7         43.0990  175.8830   77.4490 N.2       1 ADP401      0.0000 
     21 C5         43.3750  174.5980   77.1740 C.ar      1 ADP401      0.0000 
     22 C6         42.6080  173.4110   76.7500 C.ar      1 ADP401      0.0000 
     23 N6         41.2680  173.4830   76.5470 N.pl3     1 ADP401      0.0000 
     24 N1         43.2960  172.2610   76.5740 N.ar      1 ADP401      0.0000 
     25 C2         44.6250  172.1740   76.7700 C.ar      1 ADP401      0.0000 
     26 N3         45.3830  173.2080   77.1570 N.ar      1 ADP401      0.0000 
     27 C4         44.8160  174.4160   77.3630 C.ar      1 ADP401      0.0000 
@<TRIPOS>BOND
     1    1    2 ar   
     2    1    3 ar   
     3    1    4 ar   
     4    1    8 1    
     5    5    6 ar   
     6    5    7 ar   
     7    5    8 1    
     8    5    9 1    
     9    9   10 1    
    10   10   11 1    
    11   11   12 1    
    12   11   13 1    
    13   12   17 1    
    14   13   14 1    
    15   13   15 1    
    16   15   16 1    
    17   15   17 1    
    18   17   18 1    
    19   18   19 1    
    20   18   27 1    
    21   19   20 2    
    22   20   21 1    
    23   21   22 ar   
    24   21   27 ar   
    25   22   23 1    
    26   22   24 ar   
    27   24   25 ar   
    28   25   26 ar   
    29   26   27 ar   
@<TRIPOS>SUBSTRUCTURE
     1 ADP401      1 GROUP   
@<TRIPOS>SET
ATOM$ORANGE STATIC     ATOMS   COLORGROUP SYSTEM 
20 10 10 11 11 13 13 15 15 17 17 19 19 21 21 22 22 25 \
25 27 27 

