#    Name: 6izr_11_ADP
#    Modification time : Fri May 22 19:28:11 2020

@<TRIPOS>MOLECULE
6izr_11_ADP
   27    29     1     0     1
SMALL
NO_CHARGES


@<TRIPOS>ATOM
      1 PB         91.9860  126.9680   62.5340 P.3       1 ADP401      0.0000 
      2 O1B        93.0030  126.4960   61.5050 O.co2     1 ADP401      0.0000 
      3 O2B        92.3250  126.7820   64.0020 O.co2     1 ADP401      0.0000 
      4 O3B        91.4550  128.3530   62.2600 O.co2     1 ADP401      0.0000 
      5 PA         90.3970  124.5690   62.8340 P.3       1 ADP401      0.0000 
      6 O1A        90.0610  123.6360   61.6970 O.co2     1 ADP401      0.0000 
      7 O2A        91.4640  124.1750   63.8200 O.co2     1 ADP401      0.0000 
      8 O3A        90.7350  126.0070   62.1830 O.3       1 ADP401      0.0000 
      9 O5'        89.0450  124.9240   63.6340 O.3       1 ADP401      0.0000 
     10 C5'        88.7570  124.3570   64.9120 C.3       1 ADP401      0.0000 
     11 C4'        87.4720  124.9630   65.4680 C.3       1 ADP401      0.0000 
     12 O4'        86.3950  124.1140   65.0920 O.3       1 ADP401      0.0000 
     13 C3'        87.4410  125.0260   66.9910 C.3       1 ADP401      0.0000 
     14 O3'        87.6560  126.3540   67.4770 O.3       1 ADP401      0.0000 
     15 C2'        86.0780  124.5120   67.4240 C.3       1 ADP401      0.0000 
     16 O2'        85.1910  125.5390   67.8760 O.3       1 ADP401      0.0000 
     17 C1'        85.4880  123.9020   66.1760 C.3       1 ADP401      0.0000 
     18 N9         85.3020  122.4570   66.4260 N.pl3     1 ADP401      0.0000 
     19 C8         86.1290  121.4520   66.0820 C.2       1 ADP401      0.0000 
     20 N7         85.6200  120.2570   66.4710 N.2       1 ADP401      0.0000 
     21 C5         84.4460  120.5070   67.0740 C.ar      1 ADP401      0.0000 
     22 C6         83.3890  119.7060   67.7180 C.ar      1 ADP401      0.0000 
     23 N6         83.4880  118.3550   67.7960 N.pl3     1 ADP401      0.0000 
     24 N1         82.3270  120.3740   68.2220 N.ar      1 ADP401      0.0000 
     25 C2         82.2140  121.7130   68.1510 C.ar      1 ADP401      0.0000 
     26 N3         83.1340  122.5020   67.5820 N.ar      1 ADP401      0.0000 
     27 C4         84.2440  121.9580   67.0430 C.ar      1 ADP401      0.0000 
@<TRIPOS>BOND
     1    1    2 ar   
     2    1    3 ar   
     3    1    4 ar   
     4    1    8 1    
     5    5    6 ar   
     6    5    7 ar   
     7    5    8 1    
     8    5    9 1    
     9    9   10 1    
    10   10   11 1    
    11   11   12 1    
    12   11   13 1    
    13   12   17 1    
    14   13   14 1    
    15   13   15 1    
    16   15   16 1    
    17   15   17 1    
    18   17   18 1    
    19   18   19 1    
    20   18   27 1    
    21   19   20 2    
    22   20   21 1    
    23   21   22 ar   
    24   21   27 ar   
    25   22   23 1    
    26   22   24 ar   
    27   24   25 ar   
    28   25   26 ar   
    29   26   27 ar   
@<TRIPOS>SUBSTRUCTURE
     1 ADP401      1 GROUP   
@<TRIPOS>SET
ATOM$ORANGE STATIC     ATOMS   COLORGROUP SYSTEM 
20 10 10 11 11 13 13 15 15 17 17 19 19 21 21 22 22 25 \
25 27 27 

