#    Name: 6izr_5_ADP
#    Modification time : Fri May 22 19:27:00 2020

@<TRIPOS>MOLECULE
6izr_5_ADP
   27    29     1     0     1
SMALL
NO_CHARGES


@<TRIPOS>ATOM
      1 PB        196.2500  151.2610   63.2600 P.3       1 ADP401      0.0000 
      2 O1B       195.8440  152.4840   62.4760 O.co2     1 ADP401      0.0000 
      3 O2B       197.2960  150.4100   62.5560 O.co2     1 ADP401      0.0000 
      4 O3B       196.4710  151.5870   64.7260 O.co2     1 ADP401      0.0000 
      5 PA        194.4680  149.1950   64.2270 P.3       1 ADP401      0.0000 
      6 O1A       194.1410  147.9390   63.4580 O.co2     1 ADP401      0.0000 
      7 O2A       195.4300  149.1240   65.3810 O.co2     1 ADP401      0.0000 
      8 O3A       194.9580  150.2960   63.1520 O.3       1 ADP401      0.0000 
      9 O5'       193.0940  149.8720   64.7270 O.3       1 ADP401      0.0000 
     10 C5'       192.6760  149.8040   66.0900 C.3       1 ADP401      0.0000 
     11 C4'       191.4050  150.6260   66.2840 C.3       1 ADP401      0.0000 
     12 O4'       190.2950  149.7480   66.1280 O.3       1 ADP401      0.0000 
     13 C3'       191.2730  151.2220   67.6800 C.3       1 ADP401      0.0000 
     14 O3'       191.5530  152.6240   67.6930 O.3       1 ADP401      0.0000 
     15 C2'       189.8480  150.9560   68.1390 C.3       1 ADP401      0.0000 
     16 O2'       189.0120  152.1180   68.1200 O.3       1 ADP401      0.0000 
     17 C1'       189.3020  149.9750   67.1300 C.3       1 ADP401      0.0000 
     18 N9        188.9920  148.7200   67.8480 N.pl3     1 ADP401      0.0000 
     19 C8        189.7620  147.6200   67.9510 C.2       1 ADP401      0.0000 
     20 N7        189.1390  146.6640   68.6810 N.2       1 ADP401      0.0000 
     21 C5        187.9480  147.1640   69.0500 C.ar      1 ADP401      0.0000 
     22 C6        186.7920  146.6900   69.8330 C.ar      1 ADP401      0.0000 
     23 N6        186.7830  145.4490   70.3820 N.pl3     1 ADP401      0.0000 
     24 N1        185.7510  147.5400   69.9750 N.ar      1 ADP401      0.0000 
     25 C2        185.7440  148.7740   69.4360 C.ar      1 ADP401      0.0000 
     26 N3        186.7570  149.2690   68.7140 N.ar      1 ADP401      0.0000 
     27 C4        187.8590  148.5190   68.5010 C.ar      1 ADP401      0.0000 
@<TRIPOS>BOND
     1    1    2 ar   
     2    1    3 ar   
     3    1    4 ar   
     4    1    8 1    
     5    5    6 ar   
     6    5    7 ar   
     7    5    8 1    
     8    5    9 1    
     9    9   10 1    
    10   10   11 1    
    11   11   12 1    
    12   11   13 1    
    13   12   17 1    
    14   13   14 1    
    15   13   15 1    
    16   15   16 1    
    17   15   17 1    
    18   17   18 1    
    19   18   19 1    
    20   18   27 1    
    21   19   20 2    
    22   20   21 1    
    23   21   22 ar   
    24   21   27 ar   
    25   22   23 1    
    26   22   24 ar   
    27   24   25 ar   
    28   25   26 ar   
    29   26   27 ar   
@<TRIPOS>SUBSTRUCTURE
     1 ADP401      1 GROUP   
@<TRIPOS>SET
ATOM$ORANGE STATIC     ATOMS   COLORGROUP SYSTEM 
20 10 10 11 11 13 13 15 15 17 17 19 19 21 21 22 22 25 \
25 27 27 

