#    Name: 6sd9_1_88Z
#    Modification time : Fri May 22 19:32:59 2020

@<TRIPOS>MOLECULE
6sd9_1_88Z
   46    51     1     0     0
SMALL
NO_CHARGES


@<TRIPOS>ATOM
      1 C1         -7.2670   21.7140  -31.1090 C.ar      1 88Z1402     0.0000 
      2 C2         -8.3450   22.6380  -31.0330 C.ar      1 88Z1402     0.0000 
      3 C3         -9.6320   22.1900  -30.9560 C.ar      1 88Z1402     0.0000 
      4 C4         -9.9090   20.8060  -30.9510 C.ar      1 88Z1402     0.0000 
      5 C5         -8.8360   19.8840  -31.0260 C.ar      1 88Z1402     0.0000 
      6 C6         -7.5100   20.3700  -31.1050 C.ar      1 88Z1402     0.0000 
      7 N7        -11.2220   20.4110  -30.8670 N.ar      1 88Z1402     0.0000 
      8 C8        -11.4630   19.1070  -30.8600 C.ar      1 88Z1402     0.0000 
      9 C9        -10.4950   18.1130  -30.9320 C.ar      1 88Z1402     0.0000 
     10 C10        -9.1730   18.5060  -31.0120 C.ar      1 88Z1402     0.0000 
     11 O11        -6.0260   22.2890  -31.1820 O.3       1 88Z1402     0.0000 
     12 C12        -4.8850   21.4280  -31.2080 C.3       1 88Z1402     0.0000 
     13 O13        -7.9680   23.9550  -31.0470 O.3       1 88Z1402     0.0000 
     14 O14        -8.1060   17.6140  -31.0840 O.3       1 88Z1402     0.0000 
     15 C15        -8.3020   16.3190  -30.6320 C.ar      1 88Z1402     0.0000 
     16 C16        -8.2750   16.0080  -29.2800 C.ar      1 88Z1402     0.0000 
     17 C17        -8.4790   14.6990  -28.8710 C.ar      1 88Z1402     0.0000 
     18 C18        -8.7150   13.6930  -29.8050 C.ar      1 88Z1402     0.0000 
     19 C19        -8.7440   14.0040  -31.1590 C.ar      1 88Z1402     0.0000 
     20 C20        -8.5390   15.3040  -31.5370 C.ar      1 88Z1402     0.0000 
     21 F21        -8.5710   15.6150  -32.8500 F         1 88Z1402     0.0000 
     22 N22        -8.9100   12.3960  -29.2790 N.am      1 88Z1402     0.0000 
     23 C23        -8.9780   24.9450  -31.3040 C.3       1 88Z1402     0.0000 
     24 C24        -8.3020   26.1960  -31.7980 C.3       1 88Z1402     0.0000 
     25 C25        -7.5920   26.9410  -30.6870 C.3       1 88Z1402     0.0000 
     26 N26        -6.8880   28.1460  -31.1340 N.4       1 88Z1402     0.0000 
     27 C27        -5.4460   27.8780  -31.2770 C.3       1 88Z1402     0.0000 
     28 C28        -4.7500   29.0710  -31.8940 C.3       1 88Z1402     0.0000 
     29 O29        -5.2660   30.3100  -31.3860 O.3       1 88Z1402     0.0000 
     30 C30        -5.8660   30.1190  -30.0970 C.3       1 88Z1402     0.0000 
     31 C31        -7.0990   29.2490  -30.1800 C.3       1 88Z1402     0.0000 
     32 C32        -9.1510   11.2190  -29.9000 C.2       1 88Z1402     0.0000 
     33 C33        -9.3230    9.9880  -28.9820 C.3       1 88Z1402     0.0000 
     34 C34        -9.6660   10.2920  -27.4890 C.2       1 88Z1402     0.0000 
     35 N35       -10.0270    9.2480  -26.7040 N.am      1 88Z1402     0.0000 
     36 O36        -9.2270   11.1070  -31.1130 O.2       1 88Z1402     0.0000 
     37 O37        -9.6120   11.4260  -27.0330 O.2       1 88Z1402     0.0000 
     38 C38       -10.2140    9.3440  -25.3080 C.ar      1 88Z1402     0.0000 
     39 C39        -9.3970    8.6450  -24.4270 C.ar      1 88Z1402     0.0000 
     40 C40        -9.5870    8.7560  -23.0590 C.ar      1 88Z1402     0.0000 
     41 C41       -10.5940    9.5700  -22.6060 C.ar      1 88Z1402     0.0000 
     42 C42       -11.4170   10.2750  -23.4420 C.ar      1 88Z1402     0.0000 
     43 C43       -11.2230   10.1600  -24.8070 C.ar      1 88Z1402     0.0000 
     44 F44       -10.7860    9.6810  -21.2720 F         1 88Z1402     0.0000 
     45 C45        -9.7060    8.6710  -29.6610 C.3       1 88Z1402     0.0000 
     46 C46        -8.3070    8.8660  -29.2160 C.3       1 88Z1402     0.0000 
@<TRIPOS>BOND
     1    1    2 ar   
     2    1    6 ar   
     3    1   11 1    
     4    2    3 ar   
     5    2   13 1    
     6    3    4 ar   
     7    4    5 ar   
     8    4    7 ar   
     9    5    6 ar   
    10    5   10 ar   
    11    7    8 ar   
    12    8    9 ar   
    13    9   10 ar   
    14   10   14 1    
    15   11   12 1    
    16   13   23 1    
    17   14   15 1    
    18   15   16 ar   
    19   15   20 ar   
    20   16   17 ar   
    21   17   18 ar   
    22   18   19 ar   
    23   18   22 1    
    24   19   20 ar   
    25   20   21 1    
    26   22   32 am   
    27   23   24 1    
    28   24   25 1    
    29   25   26 1    
    30   26   27 1    
    31   26   31 1    
    32   27   28 1    
    33   28   29 1    
    34   29   30 1    
    35   30   31 1    
    36   32   33 1    
    37   32   36 2    
    38   33   34 1    
    39   33   45 1    
    40   33   46 1    
    41   34   35 am   
    42   34   37 2    
    43   35   38 1    
    44   38   39 ar   
    45   38   43 ar   
    46   39   40 ar   
    47   40   41 ar   
    48   41   42 ar   
    49   41   44 1    
    50   42   43 ar   
    51   45   46 1    
@<TRIPOS>SUBSTRUCTURE
     1 88Z1402     1 GROUP   
@<TRIPOS>SET

