#    Name: 5ys0_2_ERG
#    Modification time : Fri May 22 19:18:00 2020

@<TRIPOS>MOLECULE
5ys0_2_ERG
   29    32     1     0     0
SMALL
NO_CHARGES


@<TRIPOS>ATOM
      1 C1       -105.5830    4.2910  -19.6630 C.3       1 ERG1301     0.0000 
      2 C2       -105.6300    2.9620  -20.4240 C.3       1 ERG1301     0.0000 
      3 C3       -106.1390    1.8820  -19.4860 C.3       1 ERG1301     0.0000 
      4 C4       -107.5280    2.2670  -18.9570 C.3       1 ERG1301     0.0000 
      5 C5       -107.5550    3.5540  -18.3930 C.2       1 ERG1301     0.0000 
      6 C6       -108.2540    3.6650  -17.1790 C.2       1 ERG1301     0.0000 
      7 C7       -108.2850    4.8850  -16.4990 C.2       1 ERG1301     0.0000 
      8 C8       -107.6030    6.0110  -16.9840 C.2       1 ERG1301     0.0000 
      9 C9       -106.6070    5.8470  -18.0120 C.3       1 ERG1301     0.0000 
     10 C10      -106.9350    4.6930  -19.0320 C.3       1 ERG1301     0.0000 
     11 C11      -106.1890    7.1590  -18.7190 C.3       1 ERG1301     0.0000 
     12 C12      -106.1110    8.3590  -17.7600 C.3       1 ERG1301     0.0000 
     13 C13      -107.4390    8.5070  -17.0150 C.3       1 ERG1301     0.0000 
     14 C14      -107.6030    7.2100  -16.2130 C.3       1 ERG1301     0.0000 
     15 C15      -108.8220    7.5170  -15.3370 C.3       1 ERG1301     0.0000 
     16 C16      -108.4250    8.8890  -14.8030 C.3       1 ERG1301     0.0000 
     17 C17      -107.3700    9.4430  -15.7800 C.3       1 ERG1301     0.0000 
     18 C18      -108.6110    8.8670  -17.9740 C.3       1 ERG1301     0.0000 
     19 C19      -107.8840    5.1870  -20.1560 C.3       1 ERG1301     0.0000 
     20 C20      -107.4510   10.9780  -15.9550 C.3       1 ERG1301     0.0000 
     21 C21      -106.0860   11.6170  -16.2790 C.3       1 ERG1301     0.0000 
     22 C22      -107.9470   11.6720  -14.6860 C.2       1 ERG1301     0.0000 
     23 C23      -108.7160   12.9770  -14.8960 C.2       1 ERG1301     0.0000 
     24 C24      -109.1920   13.6790  -13.6270 C.3       1 ERG1301     0.0000 
     25 C25      -108.6280   15.1200  -13.5000 C.3       1 ERG1301     0.0000 
     26 C26      -108.9950   15.7860  -12.1610 C.3       1 ERG1301     0.0000 
     27 C27      -107.0970   15.1840  -13.6130 C.3       1 ERG1301     0.0000 
     28 C28      -110.7230   13.6750  -13.6940 C.3       1 ERG1301     0.0000 
     29 O1       -106.2230    0.6300  -20.1920 O.3       1 ERG1301     0.0000 
@<TRIPOS>BOND
     1    1    2 1    
     2    1   10 1    
     3    2    3 1    
     4    3    4 1    
     5    3   29 1    
     6    4    5 1    
     7    5    6 2    
     8    5   10 1    
     9    6    7 1    
    10    7    8 2    
    11    8    9 1    
    12    8   14 1    
    13    9   10 1    
    14    9   11 1    
    15   10   19 1    
    16   11   12 1    
    17   12   13 1    
    18   13   14 1    
    19   13   17 1    
    20   13   18 1    
    21   14   15 1    
    22   15   16 1    
    23   16   17 1    
    24   17   20 1    
    25   20   21 1    
    26   20   22 1    
    27   22   23 2    
    28   23   24 1    
    29   24   25 1    
    30   24   28 1    
    31   25   26 1    
    32   25   27 1    
@<TRIPOS>SUBSTRUCTURE
     1 ERG1301     1 GROUP   
@<TRIPOS>SET

