#    Name: 5ys0_1_ERG
#    Modification time : Fri May 22 19:17:58 2020

@<TRIPOS>MOLECULE
5ys0_1_ERG
   29    32     1     0     0
SMALL
NO_CHARGES


@<TRIPOS>ATOM
      1 C1       -132.4170   -3.3160  -38.5940 C.3       1 ERG1301     0.0000 
      2 C2       -132.7120   -3.2340  -37.0930 C.3       1 ERG1301     0.0000 
      3 C3       -132.4530   -4.5970  -36.4730 C.3       1 ERG1301     0.0000 
      4 C4       -131.0000   -5.0160  -36.7310 C.3       1 ERG1301     0.0000 
      5 C5       -130.6480   -4.9460  -38.0890 C.2       1 ERG1301     0.0000 
      6 C6       -129.9130   -6.0410  -38.5780 C.2       1 ERG1301     0.0000 
      7 C7       -129.5710   -6.1050  -39.9320 C.2       1 ERG1301     0.0000 
      8 C8       -129.9760   -5.1090  -40.8370 C.2       1 ERG1301     0.0000 
      9 C9       -131.0070   -4.1820  -40.4540 C.3       1 ERG1301     0.0000 
     10 C10      -130.9920   -3.8160  -38.9220 C.3       1 ERG1301     0.0000 
     11 C11      -131.1140   -2.9280  -41.3580 C.3       1 ERG1301     0.0000 
     12 C12      -130.8780   -3.2420  -42.8450 C.3       1 ERG1301     0.0000 
     13 C13      -129.5320   -3.9550  -43.0100 C.3       1 ERG1301     0.0000 
     14 C14      -129.6660   -5.2630  -42.2190 C.3       1 ERG1301     0.0000 
     15 C15      -128.3870   -6.0130  -42.6060 C.3       1 ERG1301     0.0000 
     16 C16      -128.4290   -5.8420  -44.1200 C.3       1 ERG1301     0.0000 
     17 C17      -129.3440   -4.6320  -44.3930 C.3       1 ERG1301     0.0000 
     18 C18      -128.3330   -3.0430  -42.6200 C.3       1 ERG1301     0.0000 
     19 C19      -129.9810   -2.6760  -38.6240 C.3       1 ERG1301     0.0000 
     20 C20      -128.8990   -3.7980  -45.6190 C.3       1 ERG1301     0.0000 
     21 C21      -129.8620   -2.6370  -45.9340 C.3       1 ERG1301     0.0000 
     22 C22      -128.8330   -4.6450  -46.8900 C.2       1 ERG1301     0.0000 
     23 C23      -128.0630   -4.0300  -48.0610 C.2       1 ERG1301     0.0000 
     24 C24      -128.0180   -4.8680  -49.3380 C.3       1 ERG1301     0.0000 
     25 C25      -127.0350   -4.2890  -50.3890 C.3       1 ERG1301     0.0000 
     26 C26      -127.0820   -5.0500  -51.7300 C.3       1 ERG1301     0.0000 
     27 C27      -127.3010   -2.8120  -50.7190 C.3       1 ERG1301     0.0000 
     28 C28      -127.6110   -6.2800  -48.8980 C.3       1 ERG1301     0.0000 
     29 O1       -132.6920   -4.5320  -35.0550 O.3       1 ERG1301     0.0000 
@<TRIPOS>BOND
     1    1    2 1    
     2    1   10 1    
     3    2    3 1    
     4    3    4 1    
     5    3   29 1    
     6    4    5 1    
     7    5    6 2    
     8    5   10 1    
     9    6    7 1    
    10    7    8 2    
    11    8    9 1    
    12    8   14 1    
    13    9   10 1    
    14    9   11 1    
    15   10   19 1    
    16   11   12 1    
    17   12   13 1    
    18   13   14 1    
    19   13   17 1    
    20   13   18 1    
    21   14   15 1    
    22   15   16 1    
    23   16   17 1    
    24   17   20 1    
    25   20   21 1    
    26   20   22 1    
    27   22   23 2    
    28   23   24 1    
    29   24   25 1    
    30   24   28 1    
    31   25   26 1    
    32   25   27 1    
@<TRIPOS>SUBSTRUCTURE
     1 ERG1301     1 GROUP   
@<TRIPOS>SET

