#    Name: 6mr9_1_THG
#    Modification time : Fri May 22 19:28:51 2020

@<TRIPOS>MOLECULE
6mr9_1_THG
   53    55     1     0     0
SMALL
NO_CHARGES


@<TRIPOS>ATOM
      1 N3        -22.3560   -4.0270   -9.6620 N.am      1 THG208      0.0000 
      2 C2        -21.0720   -4.2600  -10.0280 C.2       1 THG208      0.0000 
      3 N1        -20.2470   -3.2900  -10.3300 N.2       1 THG208      0.0000 
      4 C8A       -20.6580   -2.0330  -10.2760 C.2       1 THG208      0.0000 
      5 C4A       -21.9560   -1.7310   -9.9080 C.2       1 THG208      0.0000 
      6 C4        -22.8270   -2.7740   -9.6020 C.2       1 THG208      0.0000 
      7 N8        -19.7460   -1.0560  -10.5790 N.pl3     1 THG208      0.0000 
      8 C7        -20.0950    0.3590  -10.5630 C.3       1 THG208      0.0000 
      9 C6        -21.5220    0.7380  -10.1210 C.3       1 THG208      0.0000 
     10 N5        -22.4120   -0.4030   -9.8350 N.3       1 THG208      0.0000 
     11 C9        -21.3600    1.6380   -8.8930 C.3       1 THG208      0.0000 
     12 N10       -22.6330    1.7890   -8.1750 N.pl3     1 THG208      0.0000 
     13 C4'       -22.8180    1.3170   -6.8750 C.ar      1 THG208      0.0000 
     14 C3'       -23.9680    1.6740   -6.1700 C.ar      1 THG208      0.0000 
     15 C2'       -24.1700    1.2140   -4.8870 C.ar      1 THG208      0.0000 
     16 C1'       -23.2230    0.3760   -4.2840 C.ar      1 THG208      0.0000 
     17 C6'       -22.0740    0.0320   -4.9920 C.ar      1 THG208      0.0000 
     18 C5'       -21.8810    0.4920   -6.2710 C.ar      1 THG208      0.0000 
     19 C11       -23.3860   -0.1300   -2.9030 C.2       1 THG208      0.0000 
     20 N         -22.5760   -1.1220   -2.4700 N.am      1 THG208      0.0000 
     21 CA        -22.6250   -1.6640   -1.1050 C.3       1 THG208      0.0000 
     22 C         -21.1830   -1.8010   -0.7060 C.2       1 THG208      0.0000 
     23 OX2       -20.7680   -1.6380    0.5590 O.co2     1 THG208      0.0000 
     24 OX1       -20.3910   -2.0660   -1.5620 O.co2     1 THG208      0.0000 
     25 CB        -23.2650   -3.0490   -1.0480 C.3       1 THG208      0.0000 
     26 CG        -24.7840   -2.9250   -1.1350 C.3       1 THG208      0.0000 
     27 CD        -25.3650   -3.0540    0.2470 C.2       1 THG208      0.0000 
     28 OE1       -25.9950   -2.1380    0.7220 O.co2     1 THG208      0.0000 
     29 OE2       -25.1750   -4.1880    0.9410 O.co2     1 THG208      0.0000 
     30 O11       -24.2290    0.3550   -2.1720 O.2       1 THG208      0.0000 
     31 O4        -23.9870   -2.5640   -9.2860 O.2       1 THG208      0.0000 
     32 N2        -20.6400   -5.5420  -10.0720 N.pl3     1 THG208      0.0000 
     33 HN3       -22.8750   -4.6890   -9.4820 H         1 THG208      0.0000 
     34 HN8       -18.9480   -1.2860  -10.8030 H         1 THG208      0.0000 
     35 HC71      -19.9610    0.7080  -11.4580 H         1 THG208      0.0000 
     36 HC72      -19.4740    0.8100   -9.9700 H         1 THG208      0.0000 
     37 HC6       -21.9270    1.2640  -10.8290 H         1 THG208      0.0000 
     38 HN5       -23.2310   -0.2520   -9.6190 H         1 THG208      0.0000 
     39 HC91      -20.7030    1.2470   -8.2960 H         1 THG208      0.0000 
     40 HC92      -21.0500    2.5120   -9.1780 H         1 THG208      0.0000 
     41 H10       -23.2870    2.1820   -8.5720 H         1 THG208      0.0000 
     42 HC3       -24.6030    2.2240   -6.5690 H         1 THG208      0.0000 
     43 HC2       -24.9380    1.4570   -4.4220 H         1 THG208      0.0000 
     44 HC61      -21.4370   -0.5200   -4.5990 H         1 THG208      0.0000 
     45 HC5       -21.1120    0.2490   -6.7360 H         1 THG208      0.0000 
     46 HN        -21.9800   -1.4270   -3.0100 H         1 THG208      0.0000 
     47 HCA       -23.0840   -1.0510   -0.5110 H         1 THG208      0.0000 
     48 HCB1      -22.9430   -3.5840   -1.7900 H         1 THG208      0.0000 
     49 HCB2      -23.0250   -3.4790   -0.2120 H         1 THG208      0.0000 
     50 HCG1      -25.0190   -2.0600   -1.5060 H         1 THG208      0.0000 
     51 HCG2      -25.1360   -3.6290   -1.7020 H         1 THG208      0.0000 
     52 HN21      -20.0260   -5.7700  -10.6290 H         1 THG208      0.0000 
     53 HN22      -20.9800   -6.1290   -9.5430 H         1 THG208      0.0000 
@<TRIPOS>BOND
     1    1    2 1    
     2    1    6 am   
     3    2    3 2    
     4    1   33 1    
     5    2   32 1    
     6    3    4 1    
     7    4    5 2    
     8    4    7 1    
     9    5    6 1    
    10    5   10 1    
    11    6   31 2    
    12    7    8 1    
    13    8    9 1    
    14    7   34 1    
    15    8   35 1    
    16    8   36 1    
    17    9   10 1    
    18    9   11 1    
    19    9   37 1    
    20   11   12 1    
    21   10   38 1    
    22   11   39 1    
    23   11   40 1    
    24   12   13 1    
    25   13   14 ar   
    26   12   41 1    
    27   13   18 ar   
    28   14   15 ar   
    29   15   16 ar   
    30   14   42 1    
    31   16   17 ar   
    32   15   43 1    
    33   16   19 1    
    34   17   18 ar   
    35   19   20 am   
    36   17   44 1    
    37   18   45 1    
    38   19   30 2    
    39   20   21 1    
    40   21   22 1    
    41   20   46 1    
    42   21   25 1    
    43   21   47 1    
    44   22   23 ar   
    45   22   24 ar   
    46   25   26 1    
    47   25   48 1    
    48   25   49 1    
    49   26   27 1    
    50   26   50 1    
    51   26   51 1    
    52   27   28 ar   
    53   27   29 ar   
    54   32   52 1    
    55   32   53 1    
@<TRIPOS>SUBSTRUCTURE
     1 THG208      1 GROUP   
@<TRIPOS>SET

