#    Name: 6pe0_5_ATP
#    Modification time : Fri May 22 19:26:36 2020

@<TRIPOS>MOLECULE
6pe0_5_ATP
   43    45     1     0     1
SMALL
NO_CHARGES


@<TRIPOS>ATOM
      1 PG        145.4570  133.4730  165.8030 P.3       1 ATP501      0.0000 
      2 O1G       146.0150  134.6620  166.5460 O.co2     1 ATP501      0.0000 
      3 O2G       146.4950  132.5160  165.2730 O.co2     1 ATP501      0.0000 
      4 O3G       144.3550  133.8050  164.8280 O.co2     1 ATP501      0.0000 
      5 PB        143.4850  133.3080  167.7350 P.3       1 ATP501      0.0000 
      6 O1B       144.0390  134.3410  168.6830 O.co2     1 ATP501      0.0000 
      7 O2B       142.4310  133.6820  166.7230 O.co2     1 ATP501      0.0000 
      8 O3B       144.7110  132.6340  166.9480 O.3       1 ATP501      0.0000 
      9 PA        141.7180  132.3060  169.6330 P.3       1 ATP501      0.0000 
     10 O1A       140.4120  132.2470  168.8840 O.co2     1 ATP501      0.0000 
     11 O2A       142.0740  133.5030  170.4750 O.co2     1 ATP501      0.0000 
     12 O3A       142.9260  132.0800  168.6030 O.3       1 ATP501      0.0000 
     13 O5'       141.8320  130.9860  170.5360 O.3       1 ATP501      0.0000 
     14 C5'       142.2490  131.1030  171.8860 C.3       1 ATP501      0.0000 
     15 C4'       141.9850  129.8100  172.6380 C.3       1 ATP501      0.0000 
     16 O4'       142.8390  129.7640  173.7770 O.3       1 ATP501      0.0000 
     17 C3'       140.5550  129.7490  173.1290 C.3       1 ATP501      0.0000 
     18 O3'       140.0390  128.4210  173.0120 O.3       1 ATP501      0.0000 
     19 C2'       140.6390  130.1830  174.5760 C.3       1 ATP501      0.0000 
     20 O2'       139.8370  129.3480  175.4170 O.3       1 ATP501      0.0000 
     21 C1'       142.1060  130.0780  174.9610 C.3       1 ATP501      0.0000 
     22 N9        142.6110  131.3660  175.4960 N.pl3     1 ATP501      0.0000 
     23 C8        143.5920  132.1040  174.9410 C.2       1 ATP501      0.0000 
     24 N7        143.8260  133.2210  175.6700 N.2       1 ATP501      0.0000 
     25 C5        142.9870  133.2020  176.7130 C.ar      1 ATP501      0.0000 
     26 C6        142.7180  134.0800  177.8620 C.ar      1 ATP501      0.0000 
     27 N6        143.4250  135.2170  178.0120 N.pl3     1 ATP501      0.0000 
     28 N1        141.7590  133.7090  178.7350 N.ar      1 ATP501      0.0000 
     29 C2        141.0570  132.5720  178.5770 C.ar      1 ATP501      0.0000 
     30 N3        141.2550  131.7270  177.5490 N.ar      1 ATP501      0.0000 
     31 C4        142.1900  131.9780  176.6050 C.ar      1 ATP501      0.0000 
     32 H5'1      143.3120  131.3350  171.9140 H         1 ATP501      0.0000 
     33 H5'2      141.7150  131.9220  172.3690 H         1 ATP501      0.0000 
     34 H4'       142.1780  128.9550  171.9760 H         1 ATP501      0.0000 
     35 H3'       139.9370  130.4580  172.5630 H         1 ATP501      0.0000 
     36 HO3'      139.0850  128.4280  173.1670 H         1 ATP501      0.0000 
     37 H2'       140.3130  131.2280  174.6440 H         1 ATP501      0.0000 
     38 HO2'      138.9020  129.5020  175.2270 H         1 ATP501      0.0000 
     39 H1'       142.2250  129.2820  175.7060 H         1 ATP501      0.0000 
     40 H8        144.1250  131.8510  174.0360 H         1 ATP501      0.0000 
     41 HN61      143.2420  135.8170  178.7970 H         1 ATP501      0.0000 
     42 HN62      144.1350  135.4610  177.3370 H         1 ATP501      0.0000 
     43 H2        140.2990  132.3260  179.3080 H         1 ATP501      0.0000 
@<TRIPOS>BOND
     1    1    2 ar   
     2    1    3 ar   
     3    1    4 ar   
     4    1    8 1    
     5    5    6 ar   
     6    5    7 ar   
     7    5    8 1    
     8    5   12 1    
     9    9   10 ar   
    10    9   11 ar   
    11    9   12 1    
    12    9   13 1    
    13   13   14 1    
    14   14   15 1    
    15   14   32 1    
    16   14   33 1    
    17   15   16 1    
    18   15   17 1    
    19   15   34 1    
    20   16   21 1    
    21   17   18 1    
    22   17   19 1    
    23   17   35 1    
    24   18   36 1    
    25   19   20 1    
    26   19   21 1    
    27   19   37 1    
    28   20   38 1    
    29   21   22 1    
    30   21   39 1    
    31   22   23 1    
    32   22   31 1    
    33   23   24 2    
    34   23   40 1    
    35   24   25 1    
    36   25   26 ar   
    37   25   31 ar   
    38   26   27 1    
    39   26   28 ar   
    40   27   41 1    
    41   27   42 1    
    42   28   29 ar   
    43   29   30 ar   
    44   29   43 1    
    45   30   31 ar   
@<TRIPOS>SUBSTRUCTURE
     1 ATP501      1 GROUP   
@<TRIPOS>SET
ATOM$ORANGE STATIC     ATOMS   COLORGROUP SYSTEM 
20 14 14 15 15 17 17 19 19 21 21 23 23 25 25 26 26 29 \
29 31 31 

