#    Name: 6pe0_2_ATP
#    Modification time : Fri May 22 19:26:02 2020

@<TRIPOS>MOLECULE
6pe0_2_ATP
   43    45     1     0     1
SMALL
NO_CHARGES


@<TRIPOS>ATOM
      1 PG        143.4010  133.2930  107.9630 P.3       1 ATP501      0.0000 
      2 O1G       141.9000  133.2750  107.8020 O.co2     1 ATP501      0.0000 
      3 O2G       143.9590  132.0820  108.6670 O.co2     1 ATP501      0.0000 
      4 O3G       143.9690  134.6150  108.4170 O.co2     1 ATP501      0.0000 
      5 PB        142.9140  133.4790  105.2790 P.3       1 ATP501      0.0000 
      6 O1B       141.9660  132.3180  105.1410 O.co2     1 ATP501      0.0000 
      7 O2B       142.3630  134.8550  105.5520 O.co2     1 ATP501      0.0000 
      8 O3B       143.9380  133.1300  106.4590 O.3       1 ATP501      0.0000 
      9 PA        143.0940  133.9010  102.5750 P.3       1 ATP501      0.0000 
     10 O1A       141.8690  134.7090  102.9200 O.co2     1 ATP501      0.0000 
     11 O2A       142.9100  132.6500  101.7560 O.co2     1 ATP501      0.0000 
     12 O3A       143.8250  133.5410  103.9590 O.3       1 ATP501      0.0000 
     13 O5'       144.1540  134.8560  101.8380 O.3       1 ATP501      0.0000 
     14 C5'       143.9840  136.2700  101.8490 C.3       1 ATP501      0.0000 
     15 C4'       144.8610  136.9070  100.7770 C.3       1 ATP501      0.0000 
     16 O4'       145.9820  136.0680  100.4860 O.3       1 ATP501      0.0000 
     17 C3'       144.1220  137.1420   99.4690 C.3       1 ATP501      0.0000 
     18 O3'       143.9130  138.5400   99.2650 O.3       1 ATP501      0.0000 
     19 C2'       145.0020  136.5560   98.3910 C.3       1 ATP501      0.0000 
     20 O2'       145.3120  137.5290   97.3920 O.3       1 ATP501      0.0000 
     21 C1'       146.2700  136.0780   99.0870 C.3       1 ATP501      0.0000 
     22 N9        146.6660  134.7200   98.6390 N.pl3     1 ATP501      0.0000 
     23 C8        147.0130  133.7000   99.4470 C.2       1 ATP501      0.0000 
     24 N7        147.3280  132.5970   98.7230 N.2       1 ATP501      0.0000 
     25 C5        147.1920  132.9150   97.4270 C.ar      1 ATP501      0.0000 
     26 C6        147.3650  132.2240   96.1370 C.ar      1 ATP501      0.0000 
     27 N6        147.7600  130.9350   96.0950 N.pl3     1 ATP501      0.0000 
     28 N1        147.1180  132.9180   95.0050 N.ar      1 ATP501      0.0000 
     29 C2        146.7230  134.2030   95.0280 C.ar      1 ATP501      0.0000 
     30 N3        146.5460  134.8880   96.1700 N.ar      1 ATP501      0.0000 
     31 C4        146.7690  134.3140   97.3740 C.ar      1 ATP501      0.0000 
     32 H5'1      142.9390  136.5310  101.6890 H         1 ATP501      0.0000 
     33 H5'2      144.2680  136.6560  102.8280 H         1 ATP501      0.0000 
     34 H4'       145.2160  137.8770  101.1450 H         1 ATP501      0.0000 
     35 H3'       143.1660  136.6040   99.4580 H         1 ATP501      0.0000 
     36 HO3'      143.2840  138.6700   98.5430 H         1 ATP501      0.0000 
     37 H2'       144.4600  135.7110   97.9500 H         1 ATP501      0.0000 
     38 HO2'      144.5280  137.6960   96.8520 H         1 ATP501      0.0000 
     39 H1'       147.0770  136.7900   98.8750 H         1 ATP501      0.0000 
     40 H8        147.0300  133.7470  100.5270 H         1 ATP501      0.0000 
     41 HN61      147.8690  130.4800   95.2060 H         1 ATP501      0.0000 
     42 HN62      147.9410  130.4330   96.9520 H         1 ATP501      0.0000 
     43 H2        146.5390  134.7050   94.0870 H         1 ATP501      0.0000 
@<TRIPOS>BOND
     1    1    2 ar   
     2    1    3 ar   
     3    1    4 ar   
     4    1    8 1    
     5    5    6 ar   
     6    5    7 ar   
     7    5    8 1    
     8    5   12 1    
     9    9   10 ar   
    10    9   11 ar   
    11    9   12 1    
    12    9   13 1    
    13   13   14 1    
    14   14   15 1    
    15   14   32 1    
    16   14   33 1    
    17   15   16 1    
    18   15   17 1    
    19   15   34 1    
    20   16   21 1    
    21   17   18 1    
    22   17   19 1    
    23   17   35 1    
    24   18   36 1    
    25   19   20 1    
    26   19   21 1    
    27   19   37 1    
    28   20   38 1    
    29   21   22 1    
    30   21   39 1    
    31   22   23 1    
    32   22   31 1    
    33   23   24 2    
    34   23   40 1    
    35   24   25 1    
    36   25   26 ar   
    37   25   31 ar   
    38   26   27 1    
    39   26   28 ar   
    40   27   41 1    
    41   27   42 1    
    42   28   29 ar   
    43   29   30 ar   
    44   29   43 1    
    45   30   31 ar   
@<TRIPOS>SUBSTRUCTURE
     1 ATP501      1 GROUP   
@<TRIPOS>SET
ATOM$ORANGE STATIC     ATOMS   COLORGROUP SYSTEM 
20 14 14 15 15 17 17 19 19 21 21 23 23 25 25 26 26 29 \
29 31 31 

