#    Name: 6pe0_4_ATP
#    Modification time : Fri May 22 19:26:24 2020

@<TRIPOS>MOLECULE
6pe0_4_ATP
   43    45     1     0     1
SMALL
NO_CHARGES


@<TRIPOS>ATOM
      1 PG        143.1510  157.1410  151.3000 P.3       1 ATP501      0.0000 
      2 O1G       143.4110  157.7810  149.9600 O.co2     1 ATP501      0.0000 
      3 O2G       144.1260  156.0540  151.6730 O.co2     1 ATP501      0.0000 
      4 O3G       141.7040  156.8090  151.5600 O.co2     1 ATP501      0.0000 
      5 PB        142.7770  159.7490  152.1110 P.3       1 ATP501      0.0000 
      6 O1B       143.8250  160.7000  151.5930 O.co2     1 ATP501      0.0000 
      7 O2B       141.4990  159.5330  151.3390 O.co2     1 ATP501      0.0000 
      8 O3B       143.4600  158.3170  152.3470 O.3       1 ATP501      0.0000 
      9 PA        141.2540  161.2990  153.8160 P.3       1 ATP501      0.0000 
     10 O1A       139.9650  160.7570  153.2580 O.co2     1 ATP501      0.0000 
     11 O2A       141.7870  162.6250  153.3420 O.co2     1 ATP501      0.0000 
     12 O3A       142.3940  160.1940  153.6030 O.3       1 ATP501      0.0000 
     13 O5'       141.0900  161.3550  155.4090 O.3       1 ATP501      0.0000 
     14 C5'       139.9660  162.0390  155.9420 C.3       1 ATP501      0.0000 
     15 C4'       140.0960  162.2030  157.4460 C.3       1 ATP501      0.0000 
     16 O4'       141.3690  162.7730  157.7500 O.3       1 ATP501      0.0000 
     17 C3'       139.0210  163.1320  157.9730 C.3       1 ATP501      0.0000 
     18 O3'       138.3680  162.5540  159.1070 O.3       1 ATP501      0.0000 
     19 C2'       139.7510  164.4050  158.3380 C.3       1 ATP501      0.0000 
     20 O2'       139.3150  164.9100  159.6030 O.3       1 ATP501      0.0000 
     21 C1'       141.2340  164.0520  158.3680 C.3       1 ATP501      0.0000 
     22 N9        142.0730  165.0240  157.6230 N.pl3     1 ATP501      0.0000 
     23 C8        143.0610  164.6850  156.7750 C.2       1 ATP501      0.0000 
     24 N7        143.6540  165.7900  156.2570 N.2       1 ATP501      0.0000 
     25 C5        143.0440  166.8620  156.7840 C.ar      1 ATP501      0.0000 
     26 C6        143.1730  168.3260  156.6680 C.ar      1 ATP501      0.0000 
     27 N6        144.1020  168.8760  155.8580 N.pl3     1 ATP501      0.0000 
     28 N1        142.3360  169.0950  157.3930 N.ar      1 ATP501      0.0000 
     29 C2        141.4040  168.5640  158.2050 C.ar      1 ATP501      0.0000 
     30 N3        141.2350  167.2390  158.3560 N.ar      1 ATP501      0.0000 
     31 C4        142.0130  166.3550  157.6940 C.ar      1 ATP501      0.0000 
     32 H5'1      139.8940  163.0220  155.4770 H         1 ATP501      0.0000 
     33 H5'2      139.0580  161.4830  155.7060 H         1 ATP501      0.0000 
     34 H4'       139.9890  161.2240  157.9290 H         1 ATP501      0.0000 
     35 H3'       138.2960  163.3460  157.1770 H         1 ATP501      0.0000 
     36 HO3'      137.5790  163.0700  159.3250 H         1 ATP501      0.0000 
     37 H2'       139.5520  165.1360  157.5500 H         1 ATP501      0.0000 
     38 HO2'      138.4110  165.2410  159.5220 H         1 ATP501      0.0000 
     39 H1'       141.5660  164.0010  159.4120 H         1 ATP501      0.0000 
     40 H8        143.3430  163.6690  156.5340 H         1 ATP501      0.0000 
     41 HN61      144.1740  169.8790  155.7930 H         1 ATP501      0.0000 
     42 HN62      144.7200  168.2850  155.3240 H         1 ATP501      0.0000 
     43 H2        140.7620  169.2340  158.7610 H         1 ATP501      0.0000 
@<TRIPOS>BOND
     1    1    2 ar   
     2    1    3 ar   
     3    1    4 ar   
     4    1    8 1    
     5    5    6 ar   
     6    5    7 ar   
     7    5    8 1    
     8    5   12 1    
     9    9   10 ar   
    10    9   11 ar   
    11    9   12 1    
    12    9   13 1    
    13   13   14 1    
    14   14   15 1    
    15   14   32 1    
    16   14   33 1    
    17   15   16 1    
    18   15   17 1    
    19   15   34 1    
    20   16   21 1    
    21   17   18 1    
    22   17   19 1    
    23   17   35 1    
    24   18   36 1    
    25   19   20 1    
    26   19   21 1    
    27   19   37 1    
    28   20   38 1    
    29   21   22 1    
    30   21   39 1    
    31   22   23 1    
    32   22   31 1    
    33   23   24 2    
    34   23   40 1    
    35   24   25 1    
    36   25   26 ar   
    37   25   31 ar   
    38   26   27 1    
    39   26   28 ar   
    40   27   41 1    
    41   27   42 1    
    42   28   29 ar   
    43   29   30 ar   
    44   29   43 1    
    45   30   31 ar   
@<TRIPOS>SUBSTRUCTURE
     1 ATP501      1 GROUP   
@<TRIPOS>SET
ATOM$ORANGE STATIC     ATOMS   COLORGROUP SYSTEM 
20 14 14 15 15 17 17 19 19 21 21 23 23 25 25 26 26 29 \
29 31 31 

