#    Name: 6pe0_3_ATP
#    Modification time : Fri May 22 19:26:12 2020

@<TRIPOS>MOLECULE
6pe0_3_ATP
   43    45     1     0     1
SMALL
NO_CHARGES


@<TRIPOS>ATOM
      1 PG        145.2820  157.2690  123.3580 P.3       1 ATP501      0.0000 
      2 O1G       144.7980  156.6110  122.0890 O.co2     1 ATP501      0.0000 
      3 O2G       146.3860  156.5200  124.0610 O.co2     1 ATP501      0.0000 
      4 O3G       144.1860  157.7690  124.2650 O.co2     1 ATP501      0.0000 
      5 PB        145.3600  159.3480  121.5550 P.3       1 ATP501      0.0000 
      6 O1B       146.1260  158.8900  120.3420 O.co2     1 ATP501      0.0000 
      7 O2B       143.8610  159.1920  121.6070 O.co2     1 ATP501      0.0000 
      8 O3B       145.9860  158.6150  122.8380 O.3       1 ATP501      0.0000 
      9 PA        145.1140  161.9990  120.8080 P.3       1 ATP501      0.0000 
     10 O1A       143.6340  161.7490  120.6810 O.co2     1 ATP501      0.0000 
     11 O2A       145.9640  162.0630  119.5640 O.co2     1 ATP501      0.0000 
     12 O3A       145.7210  160.8910  121.7970 O.3       1 ATP501      0.0000 
     13 O5'       145.2960  163.3540  121.6490 O.3       1 ATP501      0.0000 
     14 C5'       144.3820  164.4230  121.4400 C.3       1 ATP501      0.0000 
     15 C4'       144.8900  165.6880  122.1100 C.3       1 ATP501      0.0000 
     16 O4'       146.2530  165.9020  121.7540 O.3       1 ATP501      0.0000 
     17 C3'       144.0890  166.8900  121.6530 C.3       1 ATP501      0.0000 
     18 O3'       143.7220  167.7080  122.7670 O.3       1 ATP501      0.0000 
     19 C2'       145.0080  167.6270  120.7060 C.3       1 ATP501      0.0000 
     20 O2'       144.9380  169.0410  120.9010 O.3       1 ATP501      0.0000 
     21 C1'       146.4040  167.1000  120.9940 C.3       1 ATP501      0.0000 
     22 N9        147.1340  166.7800  119.7470 N.pl3     1 ATP501      0.0000 
     23 C8        147.7150  165.5990  119.4670 C.2       1 ATP501      0.0000 
     24 N7        148.3060  165.6330  118.2480 N.2       1 ATP501      0.0000 
     25 C5        148.1080  166.8570  117.7390 C.ar      1 ATP501      0.0000 
     26 C6        148.4640  167.5590  116.4950 C.ar      1 ATP501      0.0000 
     27 N6        149.1710  166.9340  115.5350 N.pl3     1 ATP501      0.0000 
     28 N1        148.0660  168.8380  116.3490 N.ar      1 ATP501      0.0000 
     29 C2        147.3600  169.4740  117.2990 C.ar      1 ATP501      0.0000 
     30 N3        147.0020  168.8920  118.4560 N.ar      1 ATP501      0.0000 
     31 C4        147.3430  167.6130  118.7300 C.ar      1 ATP501      0.0000 
     32 H5'1      144.2660  164.5950  120.3700 H         1 ATP501      0.0000 
     33 H5'2      143.4060  164.1560  121.8470 H         1 ATP501      0.0000 
     34 H4'       144.7950  165.5830  123.1970 H         1 ATP501      0.0000 
     35 H3'       143.1990  166.5530  121.1100 H         1 ATP501      0.0000 
     36 HO3'      143.0760  168.3680  122.4830 H         1 ATP501      0.0000 
     37 H2'       144.7170  167.3670  119.6820 H         1 ATP501      0.0000 
     38 HO2'      144.0710  169.3600  120.6180 H         1 ATP501      0.0000 
     39 H1'       146.9550  167.8520  121.5710 H         1 ATP501      0.0000 
     40 H8        147.7090  164.7360  120.1190 H         1 ATP501      0.0000 
     41 HN61      149.4030  167.4290  114.6930 H         1 ATP501      0.0000 
     42 HN62      149.4610  165.9770  115.6620 H         1 ATP501      0.0000 
     43 H2        147.0690  170.5020  117.1230 H         1 ATP501      0.0000 
@<TRIPOS>BOND
     1    1    2 ar   
     2    1    3 ar   
     3    1    4 ar   
     4    1    8 1    
     5    5    6 ar   
     6    5    7 ar   
     7    5    8 1    
     8    5   12 1    
     9    9   10 ar   
    10    9   11 ar   
    11    9   12 1    
    12    9   13 1    
    13   13   14 1    
    14   14   15 1    
    15   14   32 1    
    16   14   33 1    
    17   15   16 1    
    18   15   17 1    
    19   15   34 1    
    20   16   21 1    
    21   17   18 1    
    22   17   19 1    
    23   17   35 1    
    24   18   36 1    
    25   19   20 1    
    26   19   21 1    
    27   19   37 1    
    28   20   38 1    
    29   21   22 1    
    30   21   39 1    
    31   22   23 1    
    32   22   31 1    
    33   23   24 2    
    34   23   40 1    
    35   24   25 1    
    36   25   26 ar   
    37   25   31 ar   
    38   26   27 1    
    39   26   28 ar   
    40   27   41 1    
    41   27   42 1    
    42   28   29 ar   
    43   29   30 ar   
    44   29   43 1    
    45   30   31 ar   
@<TRIPOS>SUBSTRUCTURE
     1 ATP501      1 GROUP   
@<TRIPOS>SET
ATOM$ORANGE STATIC     ATOMS   COLORGROUP SYSTEM 
20 14 14 15 15 17 17 19 19 21 21 23 23 25 25 26 26 29 \
29 31 31 

