#    Name: 6pe0_1_ATP
#    Modification time : Fri May 22 19:25:50 2020

@<TRIPOS>MOLECULE
6pe0_1_ATP
   43    45     1     0     1
SMALL
NO_CHARGES


@<TRIPOS>ATOM
      1 PG        132.3960  110.2690  119.9960 P.3       1 ATP501      0.0000 
      2 O1G       133.5870  109.8350  120.8110 O.co2     1 ATP501      0.0000 
      3 O2G       132.4880  111.6840  119.4850 O.co2     1 ATP501      0.0000 
      4 O3G       131.0560  109.8970  120.5830 O.co2     1 ATP501      0.0000 
      5 PB        132.2720  107.7790  118.7590 P.3       1 ATP501      0.0000 
      6 O1B       133.1360  107.2340  119.8690 O.co2     1 ATP501      0.0000 
      7 O2B       130.7910  107.5070  118.7330 O.co2     1 ATP501      0.0000 
      8 O3B       132.4990  109.3680  118.6730 O.3       1 ATP501      0.0000 
      9 PA        132.2630  106.0640  116.5910 P.3       1 ATP501      0.0000 
     10 O1A       130.8770  106.4480  116.1430 O.co2     1 ATP501      0.0000 
     11 O2A       132.4560  104.8490  117.4560 O.co2     1 ATP501      0.0000 
     12 O3A       132.8950  107.3240  117.3520 O.3       1 ATP501      0.0000 
     13 O5'       133.1640  105.9020  115.2730 O.3       1 ATP501      0.0000 
     14 C5'       132.5740  105.2270  114.1700 C.3       1 ATP501      0.0000 
     15 C4'       133.6290  104.6500  113.2350 C.3       1 ATP501      0.0000 
     16 O4'       134.6080  103.9040  113.9660 O.3       1 ATP501      0.0000 
     17 C3'       133.0000  103.7070  112.2220 C.3       1 ATP501      0.0000 
     18 O3'       133.2900  104.1200  110.8860 O.3       1 ATP501      0.0000 
     19 C2'       133.6090  102.3500  112.5080 C.3       1 ATP501      0.0000 
     20 O2'       133.9530  101.6620  111.3030 O.3       1 ATP501      0.0000 
     21 C1'       134.8460  102.6380  113.3420 C.3       1 ATP501      0.0000 
     22 N9        135.0940  101.5920  114.3690 N.pl3     1 ATP501      0.0000 
     23 C8        135.5130  101.8300  115.6260 C.2       1 ATP501      0.0000 
     24 N7        135.6610  100.6710  116.3150 N.2       1 ATP501      0.0000 
     25 C5        135.3420   99.6630  115.4890 C.ar      1 ATP501      0.0000 
     26 C6        135.2840   98.1880  115.5820 C.ar      1 ATP501      0.0000 
     27 N6        135.6070   97.5490  116.7310 N.pl3     1 ATP501      0.0000 
     28 N1        134.8970   97.5040  114.4840 N.ar      1 ATP501      0.0000 
     29 C2        134.5720   98.1230  113.3340 C.ar      1 ATP501      0.0000 
     30 N3        134.6060   99.4600  113.1870 N.ar      1 ATP501      0.0000 
     31 C4        134.9800  100.2710  114.2040 C.ar      1 ATP501      0.0000 
     32 H5'1      131.9330  104.4330  114.5540 H         1 ATP501      0.0000 
     33 H5'2      131.9440  105.9260  113.6180 H         1 ATP501      0.0000 
     34 H4'       134.1130  105.4750  112.6970 H         1 ATP501      0.0000 
     35 H3'       131.9160  103.6630  112.3770 H         1 ATP501      0.0000 
     36 HO3'      132.7260  103.6240  110.2770 H         1 ATP501      0.0000 
     37 H2'       132.8930  101.7630  113.0970 H         1 ATP501      0.0000 
     38 HO2'      133.1450  101.4020  110.8400 H         1 ATP501      0.0000 
     39 H1'       135.7090  102.7130  112.6690 H         1 ATP501      0.0000 
     40 H8        135.7000  102.8140  116.0350 H         1 ATP501      0.0000 
     41 HN61      135.5630   96.5430  116.7800 H         1 ATP501      0.0000 
     42 HN62      135.8930   98.0810  117.5400 H         1 ATP501      0.0000 
     43 H2        134.2710   97.5170  112.4890 H         1 ATP501      0.0000 
@<TRIPOS>BOND
     1    1    2 ar   
     2    1    3 ar   
     3    1    4 ar   
     4    1    8 1    
     5    5    6 ar   
     6    5    7 ar   
     7    5    8 1    
     8    5   12 1    
     9    9   10 ar   
    10    9   11 ar   
    11    9   12 1    
    12    9   13 1    
    13   13   14 1    
    14   14   15 1    
    15   14   32 1    
    16   14   33 1    
    17   15   16 1    
    18   15   17 1    
    19   15   34 1    
    20   16   21 1    
    21   17   18 1    
    22   17   19 1    
    23   17   35 1    
    24   18   36 1    
    25   19   20 1    
    26   19   21 1    
    27   19   37 1    
    28   20   38 1    
    29   21   22 1    
    30   21   39 1    
    31   22   23 1    
    32   22   31 1    
    33   23   24 2    
    34   23   40 1    
    35   24   25 1    
    36   25   26 ar   
    37   25   31 ar   
    38   26   27 1    
    39   26   28 ar   
    40   27   41 1    
    41   27   42 1    
    42   28   29 ar   
    43   29   30 ar   
    44   29   43 1    
    45   30   31 ar   
@<TRIPOS>SUBSTRUCTURE
     1 ATP501      1 GROUP   
@<TRIPOS>SET
ATOM$ORANGE STATIC     ATOMS   COLORGROUP SYSTEM 
20 14 14 15 15 17 17 19 19 21 21 23 23 25 25 26 26 29 \
29 31 31 

