#    Name: 6agg_1_ACP
#    Modification time : Fri May 22 19:34:01 2020

@<TRIPOS>MOLECULE
6agg_1_ACP
   31    33     1     0     1
SMALL
NO_CHARGES


@<TRIPOS>ATOM
      1 PG         20.5840    7.6630   36.7010 P.3       1 ACP502      0.0000 
      2 O1G        20.1770    8.5050   35.4140 O.co2     1 ACP502      0.0000 
      3 O2G        22.0400    7.8460   35.9070 O.co2     1 ACP502      0.0000 
      4 O3G        20.6150    9.2630   37.3820 O.co2     1 ACP502      0.0000 
      5 PB         18.4720    4.5710   38.0860 P.3       1 ACP502      0.0000 
      6 O1B        17.9250    5.3470   38.7340 O.co2     1 ACP502      0.0000 
      7 O2B        19.5050    4.0630   38.8740 O.co2     1 ACP502      0.0000 
      8 C3B        19.5660    6.0380   37.3500 C.3       1 ACP502      0.0000 
      9 PA         18.7650    2.7280   36.0170 P.3       1 ACP502      0.0000 
     10 O1A        19.3620    2.7590   34.7870 O.co2     1 ACP502      0.0000 
     11 O2A        17.3560    3.0100   35.8810 O.co2     1 ACP502      0.0000 
     12 O3A        19.4410    3.7980   36.9460 O.3       1 ACP502      0.0000 
     13 O5'        18.9250    1.0970   36.6590 O.3       1 ACP502      0.0000 
     14 C5'        17.8110    0.6230   37.4920 C.3       1 ACP502      0.0000 
     15 C4'        16.9950   -0.5310   36.9870 C.3       1 ACP502      0.0000 
     16 O4'        16.8680   -1.4340   38.0310 O.3       1 ACP502      0.0000 
     17 C3'        15.6280   -0.0600   36.6720 C.3       1 ACP502      0.0000 
     18 O3'        15.1300   -0.8530   35.6130 O.3       1 ACP502      0.0000 
     19 C2'        14.8820   -0.2950   37.8330 C.3       1 ACP502      0.0000 
     20 O2'        13.4780   -0.4280   37.5310 O.3       1 ACP502      0.0000 
     21 C1'        15.4270   -1.4530   38.3920 C.3       1 ACP502      0.0000 
     22 N9         15.2530   -1.5330   39.8860 N.pl3     1 ACP502      0.0000 
     23 C8         15.1930   -0.4950   40.7200 C.2       1 ACP502      0.0000 
     24 N7         15.0620   -0.9830   41.9790 N.2       1 ACP502      0.0000 
     25 C5         15.0470   -2.3420   41.9300 C.ar      1 ACP502      0.0000 
     26 C6         14.9310   -3.3670   42.9160 C.ar      1 ACP502      0.0000 
     27 N6         14.7980   -3.0840   44.2410 N.pl3     1 ACP502      0.0000 
     28 N1         14.9560   -4.6550   42.4830 N.ar      1 ACP502      0.0000 
     29 C2         15.0860   -4.9750   41.1900 C.ar      1 ACP502      0.0000 
     30 N3         15.1960   -4.0230   40.2570 N.ar      1 ACP502      0.0000 
     31 C4         15.1780   -2.7090   40.5940 C.ar      1 ACP502      0.0000 
@<TRIPOS>BOND
     1    1    2 ar   
     2    1    3 ar   
     3    1    4 ar   
     4    1    8 1    
     5    5    6 ar   
     6    5    7 ar   
     7    5    8 1    
     8    5   12 1    
     9    9   10 ar   
    10    9   11 ar   
    11    9   12 1    
    12    9   13 1    
    13   13   14 1    
    14   14   15 1    
    15   15   16 1    
    16   15   17 1    
    17   16   21 1    
    18   17   18 1    
    19   17   19 1    
    20   19   20 1    
    21   19   21 1    
    22   21   22 1    
    23   22   23 1    
    24   22   31 1    
    25   23   24 2    
    26   24   25 1    
    27   25   26 ar   
    28   25   31 ar   
    29   26   27 1    
    30   26   28 ar   
    31   28   29 ar   
    32   29   30 ar   
    33   30   31 ar   
@<TRIPOS>SUBSTRUCTURE
     1 ACP502      1 GROUP   
@<TRIPOS>SET
ATOM$ORANGE STATIC     ATOMS   COLORGROUP SYSTEM 
22 8 8 14 14 15 15 17 17 19 19 21 21 23 23 25 25 26 \
26 29 29 31 31 

