#    Name: 6eot_3_SER_LEU_ARG_PHE_LEU_TYR_GLU_GLY_CAVITY_N1_4
#    Modification time : Fri May 22 19:28:42 2020

@<TRIPOS>MOLECULE
6eot_3_SER_LEU_ARG_PHE_LEU_TYR_GLU_GLY_CAVITY_N1_4
  110     0     7     0     0
SMALL
NO_CHARGES


@<TRIPOS>ATOM
      1 OG         31.6700  -53.0800  -95.9000 O.3       1 SER1        0.0000 
      2 N          33.6300  -47.4000 -102.0800 N.am      2 ALA2        0.0000 
      3 N          32.7100  -55.7900  -95.1500 N.am      2 ALA2        0.0000 
      4 N          34.3700  -46.8000 -100.9300 N.am      2 ALA2        0.0000 
      5 N          34.6500  -54.9700  -94.8700 N.am      2 ALA2        0.0000 
      6 N          35.8500  -54.7500  -95.7500 N.am      2 ALA2        0.0000 
      7 O          31.8900  -51.1200  -95.1200 O.2       2 ALA2        0.0000 
      8 N          35.9100  -55.7200  -93.3400 N.am      2 ALA2        0.0000 
      9 N          35.3900  -54.3600  -93.7100 N.am      2 ALA2        0.0000 
     10 O          34.0400  -48.3300  -94.0700 O.2       2 ALA2        0.0000 
     11 O          35.2400  -48.1200  -94.9500 O.2       2 ALA2        0.0000 
     12 O          33.5200  -46.9800  -94.4400 O.2       2 ALA2        0.0000 
     13 O          33.0000  -45.6200  -94.8200 O.2       2 ALA2        0.0000 
     14 O          34.2000  -45.4100  -95.7000 O.2       2 ALA2        0.0000 
     15 N          35.3900  -45.1900  -96.5800 N.am      2 ALA2        0.0000 
     16 N          36.5900  -44.9800  -97.4600 N.am      2 ALA2        0.0000 
     17 O          32.4800  -44.2700  -95.2000 O.2       2 ALA2        0.0000 
     18 O          35.9800  -47.5100  -93.7900 O.2       2 ALA2        0.0000 
     19 OD1        36.6700  -50.2600  -98.6400 O.co2     3 ASP3        0.0000 
     20 OD1        37.3500  -48.6800  -99.8900 O.co2     3 ASP3        0.0000 
     21 OD1        37.0500  -45.3700  -99.4900 O.co2     3 ASP3        0.0000 
     22 OD1        38.3100  -46.1200  -97.9600 O.co2     3 ASP3        0.0000 
     23 NZ         31.5200  -56.0000  -94.2700 N.4       4 LYS4        0.0000 
     24 NZ         33.9800  -56.5400  -93.6100 N.4       4 LYS4        0.0000 
     25 NZ         33.4500  -55.1800  -93.9900 N.4       4 LYS4        0.0000 
     26 NZ         34.1900  -54.5800  -92.8300 N.4       4 LYS4        0.0000 
     27 CZ         36.5400  -48.3300 -103.4600 C.ar      5 PHE5        0.0000 
     28 CZ         36.0200  -46.9700 -103.8400 C.ar      5 PHE5        0.0000 
     29 CZ         29.8000  -54.8700  -93.7600 C.ar      5 PHE5        0.0000 
     30 CZ         31.0000  -54.6500  -94.6400 C.ar      5 PHE5        0.0000 
     31 CZ         31.7400  -54.0400  -93.4900 C.ar      5 PHE5        0.0000 
     32 CZ         32.4100  -52.4700  -94.7400 C.ar      5 PHE5        0.0000 
     33 CZ         33.0900  -50.9000  -96.0000 C.ar      5 PHE5        0.0000 
     34 CZ         32.5600  -49.5500  -96.3800 C.ar      5 PHE5        0.0000 
     35 CZ         33.7600  -49.3300  -97.2600 C.ar      5 PHE5        0.0000 
     36 CZ         31.4300  -50.7300  -93.0900 C.ar      5 PHE5        0.0000 
     37 CZ         32.6300  -50.5100  -93.9700 C.ar      5 PHE5        0.0000 
     38 CZ         32.1100  -49.1600  -94.3400 C.ar      5 PHE5        0.0000 
     39 CZ         31.5900  -47.8000  -94.7200 C.ar      5 PHE5        0.0000 
     40 CZ         32.7800  -47.5900  -95.6000 C.ar      5 PHE5        0.0000 
     41 CZ         32.2600  -46.2300  -95.9800 C.ar      5 PHE5        0.0000 
     42 CZ         31.7400  -44.8800  -96.3500 C.ar      5 PHE5        0.0000 
     43 CZ         32.9400  -44.6600  -97.2300 C.ar      5 PHE5        0.0000 
     44 CZ         34.1300  -44.4400  -98.1100 C.ar      5 PHE5        0.0000 
     45 CZ         35.3300  -44.2300  -98.9900 C.ar      5 PHE5        0.0000 
     46 CZ         31.2800  -44.4900  -94.3200 C.ar      5 PHE5        0.0000 
     47 CA         37.0700  -49.6800 -103.0800 C.3       6 GLY6        0.0000 
     48 CA         38.2600  -49.4700 -103.9600 C.3       6 GLY6        0.0000 
     49 CA         32.9600  -48.9700 -100.8200 C.3       6 GLY6        0.0000 
     50 CA         37.7400  -48.1100 -104.3400 C.3       6 GLY6        0.0000 
     51 CA         33.0200  -49.9400  -98.4100 C.3       6 GLY6        0.0000 
     52 CA         34.2200  -49.7200  -99.2900 C.3       6 GLY6        0.0000 
     53 CA         33.7000  -48.3700  -99.6700 C.3       6 GLY6        0.0000 
     54 CA         33.1700  -47.0100 -100.0500 C.3       6 GLY6        0.0000 
     55 CA         35.3200  -53.4000  -96.1300 C.3       6 GLY6        0.0000 
     56 CA         36.5200  -53.1800  -97.0000 C.3       6 GLY6        0.0000 
     57 CA         36.0000  -51.8300  -97.3800 C.3       6 GLY6        0.0000 
     58 CA         33.2400  -47.9800  -97.6300 C.3       6 GLY6        0.0000 
     59 CA         34.4400  -47.7600  -98.5100 C.3       6 GLY6        0.0000 
     60 CA         32.7200  -46.6200  -98.0100 C.3       6 GLY6        0.0000 
     61 CA         33.9100  -46.4100  -98.8900 C.3       6 GLY6        0.0000 
     62 CA         32.2000  -45.2700  -98.3900 C.3       6 GLY6        0.0000 
     63 CA         33.3900  -45.0500  -99.2700 C.3       6 GLY6        0.0000 
     64 CA         34.5900  -44.8400 -100.1500 C.3       6 GLY6        0.0000 
     65 CA         30.9100  -49.3700  -93.4700 C.3       6 GLY6        0.0000 
     66 CA         33.4600  -46.0200  -96.8600 C.3       6 GLY6        0.0000 
     67 CA         32.1700  -50.1200  -91.9300 C.3       6 GLY6        0.0000 
     68 CA         33.3700  -49.9000  -92.8100 C.3       6 GLY6        0.0000 
     69 CA         32.8500  -48.5500  -93.1900 C.3       6 GLY6        0.0000 
     70 CA         32.3300  -47.1900  -93.5700 C.3       6 GLY6        0.0000 
     71 CA         34.7200  -46.7600  -95.3200 C.3       6 GLY6        0.0000 
     72 CA         35.9100  -46.5500  -96.2000 C.3       6 GLY6        0.0000 
     73 CA         30.6100  -46.0600  -93.0600 C.3       6 GLY6        0.0000 
     74 CA         31.8000  -45.8400  -93.9400 C.3       6 GLY6        0.0000 
     75 CA         33.6800  -44.0500  -96.0800 C.3       6 GLY6        0.0000 
     76 DU         32.1900  -54.4300  -95.5200 H         7 CUB7        0.0000 
     77 DU         33.3900  -54.2200  -96.4000 H         7 CUB7        0.0000 
     78 DU         32.8700  -52.8600  -96.7800 H         7 CUB7        0.0000 
     79 DU         35.4100  -49.5100 -100.1700 H         7 CUB7        0.0000 
     80 DU         36.6100  -49.2900 -101.0500 H         7 CUB7        0.0000 
     81 DU         37.8100  -49.0800 -101.9300 H         7 CUB7        0.0000 
     82 DU         39.0000  -48.8600 -102.8100 H         7 CUB7        0.0000 
     83 DU         34.8900  -48.1500 -100.5500 H         7 CUB7        0.0000 
     84 DU         36.0900  -47.9400 -101.4300 H         7 CUB7        0.0000 
     85 DU         32.9300  -53.8300  -94.3700 H         7 CUB7        0.0000 
     86 DU         34.1300  -53.6100  -95.2500 H         7 CUB7        0.0000 
     87 DU         33.6100  -52.2600  -95.6200 H         7 CUB7        0.0000 
     88 DU         34.8000  -52.0400  -96.5000 H         7 CUB7        0.0000 
     89 DU         34.2800  -50.6900  -96.8800 H         7 CUB7        0.0000 
     90 DU         35.4800  -50.4700  -97.7600 H         7 CUB7        0.0000 
     91 DU         34.9600  -49.1200  -98.1400 H         7 CUB7        0.0000 
     92 DU         36.1500  -48.9000  -99.0200 H         7 CUB7        0.0000 
     93 DU         35.6300  -47.5500  -99.3900 H         7 CUB7        0.0000 
     94 DU         35.1100  -46.1900  -99.7700 H         7 CUB7        0.0000 
     95 DU         33.6700  -53.2200  -93.2100 H         7 CUB7        0.0000 
     96 DU         34.8700  -53.0100  -94.0900 H         7 CUB7        0.0000 
     97 DU         36.0600  -52.7900  -94.9700 H         7 CUB7        0.0000 
     98 DU         33.1500  -51.8700  -93.5900 H         7 CUB7        0.0000 
     99 DU         35.5400  -51.4400  -95.3500 H         7 CUB7        0.0000 
    100 DU         33.8300  -50.3000  -94.8500 H         7 CUB7        0.0000 
    101 DU         33.3000  -48.9400  -95.2200 H         7 CUB7        0.0000 
    102 DU         34.5000  -48.7300  -96.1000 H         7 CUB7        0.0000 
    103 DU         36.8900  -48.2900  -97.8600 H         7 CUB7        0.0000 
    104 DU         33.9800  -47.3700  -96.4800 H         7 CUB7        0.0000 
    105 DU         35.1800  -47.1500  -97.3600 H         7 CUB7        0.0000 
    106 DU         36.3700  -46.9400  -98.2400 H         7 CUB7        0.0000 
    107 DU         37.5700  -46.7200  -99.1200 H         7 CUB7        0.0000 
    108 DU         34.6500  -45.8000  -97.7400 H         7 CUB7        0.0000 
    109 DU         35.8500  -45.5800  -98.6100 H         7 CUB7        0.0000 
    110 DU         37.1100  -46.3300  -97.0800 H         7 CUB7        0.0000 
@<TRIPOS>BOND
@<TRIPOS>SUBSTRUCTURE
     1 SER1        1 GROUP   
     2 ALA2        2 GROUP   
     3 ASP3       19 GROUP   
     4 LYS4       23 GROUP   
     5 PHE5       27 GROUP   
     6 GLY6       47 GROUP   
     7 CUB7       76 GROUP   
@<TRIPOS>SET

