#    Name: 6eot_5_SER_LEU_ARG_PHE_LEU_TYR_GLU_GLY_CAVITY_N1_4
#    Modification time : Fri May 22 19:29:22 2020

@<TRIPOS>MOLECULE
6eot_5_SER_LEU_ARG_PHE_LEU_TYR_GLU_GLY_CAVITY_N1_4
  125     0     7     0     0
SMALL
NO_CHARGES


@<TRIPOS>ATOM
      1 OG         81.3800   15.9400   -6.2100 O.3       1 SER1        0.0000 
      2 OG         82.0500   17.5100   -7.4700 O.3       1 SER1        0.0000 
      3 OG         89.3400   21.1900   -4.3300 O.3       1 SER1        0.0000 
      4 N          83.1800   18.6900  -10.7600 N.am      2 ALA2        0.0000 
      5 N          80.8600   17.2900   -6.5900 N.am      2 ALA2        0.0000 
      6 N          80.3300   18.6500   -6.9700 N.am      2 ALA2        0.0000 
      7 N          83.9200   19.2900   -9.6000 N.am      2 ALA2        0.0000 
      8 O          82.1200   16.5400   -5.0600 O.2       2 ALA2        0.0000 
      9 O          81.6000   17.9000   -5.4400 O.2       2 ALA2        0.0000 
     10 N          81.0700   19.2500   -5.8100 N.am      2 ALA2        0.0000 
     11 O          83.0800   19.1100   -3.1200 O.2       2 ALA2        0.0000 
     12 O          82.5500   20.4600   -3.5000 O.2       2 ALA2        0.0000 
     13 O          86.7300   18.7900   -3.3500 O.2       2 ALA2        0.0000 
     14 O          86.2100   20.1500   -3.7300 O.2       2 ALA2        0.0000 
     15 N          83.2900   21.0700   -2.3500 N.am      2 ALA2        0.0000 
     16 N          84.0300   21.6800   -1.1900 N.am      2 ALA2        0.0000 
     17 N          84.7700   22.2800   -0.0400 N.am      2 ALA2        0.0000 
     18 N          87.8400   24.2900   -3.0500 N.am      2 ALA2        0.0000 
     19 N          89.0400   24.5000   -3.9300 N.am      2 ALA2        0.0000 
     20 N          90.2300   24.7200   -4.8100 N.am      2 ALA2        0.0000 
     21 N          87.7500   20.4000    1.0000 N.am      2 ALA2        0.0000 
     22 N          83.1200   22.4600    2.8800 N.am      2 ALA2        0.0000 
     23 N          84.3200   22.6800    2.0000 N.am      2 ALA2        0.0000 
     24 N          88.5800   24.8900   -1.8900 N.am      2 ALA2        0.0000 
     25 N          89.7800   25.1100   -2.7700 N.am      2 ALA2        0.0000 
     26 N          90.9700   25.3200   -3.6500 N.am      2 ALA2        0.0000 
     27 OD1        83.6200   22.6100   -9.2000 O.co2     3 ASP3        0.0000 
     28 OD1        83.6900   21.6400   -6.7900 O.co2     3 ASP3        0.0000 
     29 OD1        83.2300   22.0400   -4.7600 O.co2     3 ASP3        0.0000 
     30 OD1        84.4300   22.2500   -5.6400 O.co2     3 ASP3        0.0000 
     31 OD1        85.1600   22.8600   -4.4800 O.co2     3 ASP3        0.0000 
     32 NZ         87.2300   21.7500    0.6200 N.4       4 LYS4        0.0000 
     33 NZ         88.4300   21.9700   -0.2600 N.4       4 LYS4        0.0000 
     34 NZ         89.6200   22.1800   -1.1400 N.4       4 LYS4        0.0000 
     35 NZ         90.8200   22.4000   -2.0200 N.4       4 LYS4        0.0000 
     36 NZ         86.7100   23.1100    0.2400 N.4       4 LYS4        0.0000 
     37 NZ         87.9100   23.3200   -0.6400 N.4       4 LYS4        0.0000 
     38 NZ         89.1000   23.5400   -1.5200 N.4       4 LYS4        0.0000 
     39 NZ         87.9700   22.3600    1.7700 N.4       4 LYS4        0.0000 
     40 NZ         87.4500   23.7100    1.4000 N.4       4 LYS4        0.0000 
     41 NZ         88.1200   25.2800    0.1400 N.4       4 LYS4        0.0000 
     42 CZ         80.7900   18.2500   -9.0000 C.ar      5 PHE5        0.0000 
     43 CZ         82.6600   20.0400  -11.1400 C.ar      5 PHE5        0.0000 
     44 CZ         82.1400   21.4000  -11.5100 C.ar      5 PHE5        0.0000 
     45 CZ         83.3400   21.6100  -12.3900 C.ar      5 PHE5        0.0000 
     46 CZ         82.5700   16.1500   -7.0900 C.ar      5 PHE5        0.0000 
     47 CZ         82.6400   15.1900   -4.6800 C.ar      5 PHE5        0.0000 
     48 CZ         83.3100   16.7600   -5.9400 C.ar      5 PHE5        0.0000 
     49 CZ         84.0500   17.3600   -4.7800 C.ar      5 PHE5        0.0000 
     50 CZ         83.5300   18.7200   -5.1600 C.ar      5 PHE5        0.0000 
     51 CZ         84.7300   18.9300   -6.0400 C.ar      5 PHE5        0.0000 
     52 CZ         84.7900   17.9700   -3.6300 C.ar      5 PHE5        0.0000 
     53 CZ         85.4700   19.5400   -4.8800 C.ar      5 PHE5        0.0000 
     54 CZ         87.4000   20.3600   -4.6100 C.ar      5 PHE5        0.0000 
     55 CZ         86.9500   20.7500   -2.5700 C.ar      5 PHE5        0.0000 
     56 CZ         88.1400   20.9700   -3.4500 C.ar      5 PHE5        0.0000 
     57 CZ         87.0100   19.7900   -0.1600 C.ar      5 PHE5        0.0000 
     58 CZ         87.6900   21.3600   -1.4200 C.ar      5 PHE5        0.0000 
     59 CZ         88.8800   21.5800   -2.3000 C.ar      5 PHE5        0.0000 
     60 CZ         90.0800   21.7900   -3.1700 C.ar      5 PHE5        0.0000 
     61 CA         81.9900   18.4700   -9.8800 C.3       6 GLY6        0.0000 
     62 CA         82.8200   22.9700  -12.7700 C.3       6 GLY6        0.0000 
     63 CA         83.2500   17.7200   -8.3500 C.3       6 GLY6        0.0000 
     64 CA         82.7300   19.0800   -8.7300 C.3       6 GLY6        0.0000 
     65 CA         82.7900   18.1100   -6.3100 C.3       6 GLY6        0.0000 
     66 CA         83.4700   19.6800   -7.5700 C.3       6 GLY6        0.0000 
     67 CA         84.6600   19.9000   -8.4500 C.3       6 GLY6        0.0000 
     68 CA         82.8600   17.1500   -3.9000 C.3       6 GLY6        0.0000 
     69 CA         82.3400   18.5000   -4.2800 C.3       6 GLY6        0.0000 
     70 CA         81.8100   19.8600   -4.6600 C.3       6 GLY6        0.0000 
     71 CA         84.2100   20.2900   -6.4100 C.3       6 GLY6        0.0000 
     72 CA         85.4000   20.5100   -7.2900 C.3       6 GLY6        0.0000 
     73 CA         83.6000   17.7500   -2.7500 C.3       6 GLY6        0.0000 
     74 CA         85.5300   18.5800   -2.4700 C.3       6 GLY6        0.0000 
     75 CA         83.8200   19.7200   -1.9700 C.3       6 GLY6        0.0000 
     76 CA         85.0100   19.9300   -2.8500 C.3       6 GLY6        0.0000 
     77 CA         86.3600   23.0700   -5.3600 C.3       6 GLY6        0.0000 
     78 CA         86.2700   19.1800   -1.3200 C.3       6 GLY6        0.0000 
     79 CA         85.7500   20.5400   -1.6900 C.3       6 GLY6        0.0000 
     80 CA         86.5800   25.0300   -4.5800 C.3       6 GLY6        0.0000 
     81 CA         85.2900   20.9300    0.3400 C.3       6 GLY6        0.0000 
     82 CA         84.8400   21.3200    2.3800 C.3       6 GLY6        0.0000 
     83 CA         86.0300   21.5400    1.5000 C.3       6 GLY6        0.0000 
     84 CA         92.0200   22.6100   -2.9000 C.3       6 GLY6        0.0000 
     85 CA         90.3000   23.7500   -2.4000 C.3       6 GLY6        0.0000 
     86 CA         91.4900   23.9700   -3.2700 C.3       6 GLY6        0.0000 
     87 CA         85.5800   21.9300    3.5300 C.3       6 GLY6        0.0000 
     88 CA         86.7700   22.1400    2.6500 C.3       6 GLY6        0.0000 
     89 CA         83.8600   23.0700    4.0300 C.3       6 GLY6        0.0000 
     90 DU         80.2700   19.6100   -9.3800 H         7 CUB7        0.0000 
     91 DU         81.4700   19.8300  -10.2600 H         7 CUB7        0.0000 
     92 DU         81.5300   18.8600   -7.8500 H         7 CUB7        0.0000 
     93 DU         81.0100   20.2200   -8.2200 H         7 CUB7        0.0000 
     94 DU         83.4000   20.6500   -9.9800 H         7 CUB7        0.0000 
     95 DU         82.8800   22.0000  -10.3600 H         7 CUB7        0.0000 
     96 DU         82.2700   19.4700   -6.6900 H         7 CUB7        0.0000 
     97 DU         81.7500   20.8200   -7.0700 H         7 CUB7        0.0000 
     98 DU         82.9500   21.0400   -7.9500 H         7 CUB7        0.0000 
     99 DU         84.1400   21.2500   -8.8300 H         7 CUB7        0.0000 
    100 DU         83.0100   20.0700   -5.5400 H         7 CUB7        0.0000 
    101 DU         82.4900   21.4300   -5.9100 H         7 CUB7        0.0000 
    102 DU         84.2700   19.3300   -4.0000 H         7 CUB7        0.0000 
    103 DU         83.7500   20.6800   -4.3800 H         7 CUB7        0.0000 
    104 DU         84.9500   20.9000   -5.2600 H         7 CUB7        0.0000 
    105 DU         82.0300   21.8200   -3.8800 H         7 CUB7        0.0000 
    106 DU         84.4900   21.2900   -3.2300 H         7 CUB7        0.0000 
    107 DU         85.6900   21.5000   -4.1000 H         7 CUB7        0.0000 
    108 DU         86.8800   21.7200   -4.9800 H         7 CUB7        0.0000 
    109 DU         83.9700   22.6400   -3.6000 H         7 CUB7        0.0000 
    110 DU         85.2300   21.8900   -2.0700 H         7 CUB7        0.0000 
    111 DU         86.4300   22.1100   -2.9500 H         7 CUB7        0.0000 
    112 DU         87.6200   22.3200   -3.8300 H         7 CUB7        0.0000 
    113 DU         88.8200   22.5400   -4.7100 H         7 CUB7        0.0000 
    114 DU         85.9000   23.4600   -3.3300 H         7 CUB7        0.0000 
    115 DU         87.1000   23.6800   -4.2100 H         7 CUB7        0.0000 
    116 DU         86.4900   21.1400   -0.5400 H         7 CUB7        0.0000 
    117 DU         85.9700   22.5000   -0.9100 H         7 CUB7        0.0000 
    118 DU         87.1700   22.7200   -1.7900 H         7 CUB7        0.0000 
    119 DU         88.3600   22.9300   -2.6700 H         7 CUB7        0.0000 
    120 DU         89.5600   23.1500   -3.5500 H         7 CUB7        0.0000 
    121 DU         90.7500   23.3600   -4.4300 H         7 CUB7        0.0000 
    122 DU         86.6400   24.0700   -2.1700 H         7 CUB7        0.0000 
    123 DU         85.5100   22.8900    1.1200 H         7 CUB7        0.0000 
    124 DU         84.9900   24.2500    0.7400 H         7 CUB7        0.0000 
    125 DU         86.2500   23.5000    2.2800 H         7 CUB7        0.0000 
@<TRIPOS>BOND
@<TRIPOS>SUBSTRUCTURE
     1 SER1        1 GROUP   
     2 ALA2        4 GROUP   
     3 ASP3       27 GROUP   
     4 LYS4       32 GROUP   
     5 PHE5       42 GROUP   
     6 GLY6       61 GROUP   
     7 CUB7       90 GROUP   
@<TRIPOS>SET

