#    Name: 6eot_1_SER_LEU_ARG_PHE_LEU_TYR_GLU_GLY
#    Modification time : Fri May 22 19:27:56 2020

@<TRIPOS>MOLECULE
6eot_1_SER_LEU_ARG_PHE_LEU_TYR_GLU_GLY
   69    70     8     0     0
SMALL
NO_CHARGES


@<TRIPOS>ATOM
      1 N          47.3650  -42.9910  -30.5490 N.4       1 SER10       0.0000 
      2 CA         48.3000  -44.0250  -30.0060 C.3       1 SER10       0.0000 
      3 C          49.7030  -43.8820  -30.5970 C.2       1 SER10       0.0000 
      4 O          49.9390  -43.0410  -31.4670 O.2       1 SER10       0.0000 
      5 CB         47.7620  -45.4470  -30.2650 C.3       1 SER10       0.0000 
      6 OG         48.4940  -46.4210  -29.5290 O.3       1 SER10       0.0000 
      7 N          50.6260  -44.6870  -30.0740 N.am      2 LEU11       0.0000 
      8 CA         51.9330  -44.9110  -30.6870 C.3       2 LEU11       0.0000 
      9 C          51.8260  -46.2560  -31.3730 C.2       2 LEU11       0.0000 
     10 O          52.3570  -47.2430  -30.8920 O.2       2 LEU11       0.0000 
     11 CB         53.0590  -44.9230  -29.6350 C.3       2 LEU11       0.0000 
     12 CG         53.7500  -43.6090  -29.2860 C.3       2 LEU11       0.0000 
     13 CD1        54.7710  -43.8290  -28.1790 C.3       2 LEU11       0.0000 
     14 CD2        54.4320  -43.0220  -30.5110 C.3       2 LEU11       0.0000 
     15 N          51.1510  -46.2840  -32.5160 N.am      3 ARG12       0.0000 
     16 CA         50.7220  -47.5460  -33.1210 C.3       3 ARG12       0.0000 
     17 C          50.6450  -47.4420  -34.6430 C.2       3 ARG12       0.0000 
     18 O          49.8480  -46.6740  -35.1910 O.2       3 ARG12       0.0000 
     19 CB         49.3680  -47.9290  -32.5330 C.3       3 ARG12       0.0000 
     20 CG         48.9450  -49.3840  -32.6790 C.3       3 ARG12       0.0000 
     21 CD         47.8620  -49.6690  -31.6460 C.3       3 ARG12       0.0000 
     22 NE         46.8020  -50.5630  -32.1030 N.pl3     3 ARG12       0.0000 
     23 CZ         45.6210  -50.7150  -31.4940 C.cat     3 ARG12       0.0000 
     24 NH1        45.3210  -50.0370  -30.3790 N.pl3     3 ARG12       0.0000 
     25 NH2        44.7200  -51.5580  -32.0030 N.pl3     3 ARG12       0.0000 
     26 N          51.4720  -48.2430  -35.3110 N.am      4 PHE13       0.0000 
     27 CA         51.6150  -48.2170  -36.7670 C.3       4 PHE13       0.0000 
     28 C          50.4210  -48.9660  -37.3860 C.2       4 PHE13       0.0000 
     29 O          49.4860  -49.3610  -36.6770 O.2       4 PHE13       0.0000 
     30 CB         52.9540  -48.8830  -37.1330 C.3       4 PHE13       0.0000 
     31 CG         53.6470  -48.3140  -38.3520 C.ar      4 PHE13       0.0000 
     32 CD1        54.0700  -46.9860  -38.3930 C.ar      4 PHE13       0.0000 
     33 CD2        53.9520  -49.1390  -39.4380 C.ar      4 PHE13       0.0000 
     34 CE1        54.7460  -46.4870  -39.5090 C.ar      4 PHE13       0.0000 
     35 CE2        54.6180  -48.6430  -40.5530 C.ar      4 PHE13       0.0000 
     36 CZ         55.0160  -47.3140  -40.5890 C.ar      4 PHE13       0.0000 
     37 N          50.4430  -49.1290  -38.7070 N.am      5 LEU14       0.0000 
     38 CA         49.3990  -49.8520  -39.4350 C.3       5 LEU14       0.0000 
     39 C          49.9660  -50.4440  -40.7100 C.2       5 LEU14       0.0000 
     40 O          49.9480  -49.8040  -41.7590 O.2       5 LEU14       0.0000 
     41 CB         48.2330  -48.9160  -39.7730 C.3       5 LEU14       0.0000 
     42 CG         47.0560  -49.5150  -40.5520 C.3       5 LEU14       0.0000 
     43 CD1        46.2590  -50.4510  -39.6590 C.3       5 LEU14       0.0000 
     44 CD2        46.1670  -48.4140  -41.1000 C.3       5 LEU14       0.0000 
     45 N          50.4930  -51.6580  -40.6000 N.am      6 TYR15       0.0000 
     46 CA         50.8390  -52.4800  -41.7630 C.3       6 TYR15       0.0000 
     47 C          49.9850  -53.7580  -41.7160 C.2       6 TYR15       0.0000 
     48 O          49.6730  -54.2700  -40.6340 O.2       6 TYR15       0.0000 
     49 CB         52.3400  -52.8010  -41.7970 C.3       6 TYR15       0.0000 
     50 CG         52.7580  -53.6000  -43.0140 C.ar      6 TYR15       0.0000 
     51 CD1        52.5580  -53.0980  -44.2980 C.ar      6 TYR15       0.0000 
     52 CD2        53.3440  -54.8600  -42.8890 C.ar      6 TYR15       0.0000 
     53 CE1        52.9240  -53.8250  -45.4230 C.ar      6 TYR15       0.0000 
     54 CE2        53.7180  -55.5930  -44.0100 C.ar      6 TYR15       0.0000 
     55 CZ         53.5050  -55.0690  -45.2760 C.ar      6 TYR15       0.0000 
     56 OH         53.8650  -55.7670  -46.4040 O.3       6 TYR15       0.0000 
     57 N          49.5820  -54.2430  -42.8910 N.am      7 GLU16       0.0000 
     58 CA         48.6650  -55.3790  -43.0120 C.3       7 GLU16       0.0000 
     59 C          49.1170  -56.2870  -44.1760 C.2       7 GLU16       0.0000 
     60 O          48.6140  -56.1890  -45.3000 O.2       7 GLU16       0.0000 
     61 CB         47.2170  -54.8630  -43.1850 C.3       7 GLU16       0.0000 
     62 CG         46.7670  -53.8420  -42.1260 C.3       7 GLU16       0.0000 
     63 CD         45.2690  -53.5200  -42.1470 C.2       7 GLU16       0.0000 
     64 OE1        44.7910  -52.8280  -43.0740 O.co2     7 GLU16       0.0000 
     65 OE2        44.5590  -53.9300  -41.2080 O.co2     7 GLU16       0.0000 
     66 N          50.0890  -57.1560  -43.8940 N.am      8 GLY17       0.0000 
     67 CA         50.6420  -58.0790  -44.8960 C.3       8 GLY17       0.0000 
     68 C          49.7380  -59.2870  -45.1510 C.2       8 GLY17       0.0000 
     69 O          50.2060  -60.4290  -45.2420 O.2       8 GLY17       0.0000 
@<TRIPOS>BOND
     1    1    2 1    
     2    2    3 1    
     3    2    5 1    
     4    3    4 2    
     5    3    7 am   
     6    5    6 1    
     7    7    8 1    
     8    8    9 1    
     9    8   11 1    
    10    9   10 2    
    11    9   15 am   
    12   11   12 1    
    13   12   13 1    
    14   12   14 1    
    15   15   16 1    
    16   16   17 1    
    17   16   19 1    
    18   17   18 2    
    19   17   26 am   
    20   19   20 1    
    21   20   21 1    
    22   21   22 1    
    23   22   23 ar   
    24   23   24 ar   
    25   23   25 ar   
    26   26   27 1    
    27   27   28 1    
    28   27   30 1    
    29   28   29 2    
    30   28   37 am   
    31   30   31 1    
    32   31   32 ar   
    33   31   33 ar   
    34   32   34 ar   
    35   33   35 ar   
    36   34   36 ar   
    37   35   36 ar   
    38   37   38 1    
    39   38   39 1    
    40   38   41 1    
    41   39   40 2    
    42   39   45 am   
    43   41   42 1    
    44   42   43 1    
    45   42   44 1    
    46   45   46 1    
    47   46   47 1    
    48   46   49 1    
    49   47   48 2    
    50   47   57 am   
    51   49   50 1    
    52   50   51 ar   
    53   50   52 ar   
    54   51   53 ar   
    55   52   54 ar   
    56   53   55 ar   
    57   54   55 ar   
    58   55   56 1    
    59   57   58 1    
    60   58   59 1    
    61   58   61 1    
    62   59   60 2    
    63   59   66 am   
    64   61   62 1    
    65   62   63 1    
    66   63   64 ar   
    67   63   65 ar   
    68   66   67 1    
    69   67   68 1    
    70   68   69 2    
@<TRIPOS>SUBSTRUCTURE
     1 SER10       1 RESIDUE 
     2 LEU11       7 RESIDUE 
     3 ARG12      15 RESIDUE 
     4 PHE13      26 RESIDUE 
     5 LEU14      37 RESIDUE 
     6 TYR15      45 RESIDUE 
     7 GLU16      57 RESIDUE 
     8 GLY17      66 RESIDUE 
@<TRIPOS>SET

