#    Name: 6eot_2_SER_LEU_ARG_PHE_LEU_TYR_GLU_GLY
#    Modification time : Fri May 22 19:28:18 2020

@<TRIPOS>MOLECULE
6eot_2_SER_LEU_ARG_PHE_LEU_TYR_GLU_GLY
   69    70     8     0     0
SMALL
NO_CHARGES


@<TRIPOS>ATOM
      1 N          75.4990  -24.2150  -58.9400 N.4       1 SER10       0.0000 
      2 CA         76.6810  -24.9910  -59.3830 C.3       1 SER10       0.0000 
      3 C          76.8030  -26.2300  -58.5120 C.2       1 SER10       0.0000 
      4 O          76.8680  -26.1430  -57.2810 O.2       1 SER10       0.0000 
      5 CB         77.9540  -24.1460  -59.3320 C.3       1 SER10       0.0000 
      6 OG         78.2210  -23.6710  -58.0240 O.3       1 SER10       0.0000 
      7 N          76.8280  -27.3840  -59.1690 N.am      2 LEU11       0.0000 
      8 CA         76.8010  -28.6680  -58.4930 C.3       2 LEU11       0.0000 
      9 C          78.2020  -28.9350  -57.9810 C.2       2 LEU11       0.0000 
     10 O          78.9040  -29.7970  -58.4890 O.2       2 LEU11       0.0000 
     11 CB         76.3290  -29.7650  -59.4590 C.3       2 LEU11       0.0000 
     12 CG         74.9810  -29.4830  -60.1300 C.3       2 LEU11       0.0000 
     13 CD1        74.7280  -30.4970  -61.2230 C.3       2 LEU11       0.0000 
     14 CD2        73.8650  -29.4810  -59.0970 C.3       2 LEU11       0.0000 
     15 N          78.5770  -28.2030  -56.9400 N.am      3 ARG12       0.0000 
     16 CA         79.9530  -28.1450  -56.4960 C.3       3 ARG12       0.0000 
     17 C          79.9650  -28.1170  -54.9690 C.2       3 ARG12       0.0000 
     18 O          79.6830  -27.0860  -54.3500 O.2       3 ARG12       0.0000 
     19 CB         80.6420  -26.9170  -57.1050 C.3       3 ARG12       0.0000 
     20 CG         82.1540  -26.9930  -57.0660 C.3       3 ARG12       0.0000 
     21 CD         82.8160  -25.8480  -57.8130 C.3       3 ARG12       0.0000 
     22 NE         84.2770  -25.9130  -57.6780 N.pl3     3 ARG12       0.0000 
     23 CZ         85.1620  -25.1690  -58.3520 C.cat     3 ARG12       0.0000 
     24 NH1        84.7680  -24.2660  -59.2540 N.pl3     3 ARG12       0.0000 
     25 NH2        86.4660  -25.3390  -58.1270 N.pl3     3 ARG12       0.0000 
     26 N          80.2710  -29.2690  -54.3750 N.am      4 PHE13       0.0000 
     27 CA         80.2220  -29.4440  -52.9170 C.3       4 PHE13       0.0000 
     28 C          81.4330  -28.7740  -52.2560 C.2       4 PHE13       0.0000 
     29 O          82.4890  -28.6320  -52.8870 O.2       4 PHE13       0.0000 
     30 CB         80.1780  -30.9430  -52.5800 C.3       4 PHE13       0.0000 
     31 CG         79.5040  -31.2740  -51.2700 C.ar      4 PHE13       0.0000 
     32 CD1        78.1150  -31.2970  -51.1680 C.ar      4 PHE13       0.0000 
     33 CD2        80.2580  -31.6090  -50.1500 C.ar      4 PHE13       0.0000 
     34 CE1        77.4970  -31.6220  -49.9690 C.ar      4 PHE13       0.0000 
     35 CE2        79.6470  -31.9360  -48.9520 C.ar      4 PHE13       0.0000 
     36 CZ         78.2660  -31.9420  -48.8590 C.ar      4 PHE13       0.0000 
     37 N          81.2620  -28.3570  -50.9980 N.am      5 LEU14       0.0000 
     38 CA         82.3410  -27.7670  -50.1900 C.3       5 LEU14       0.0000 
     39 C          82.7080  -28.7070  -49.0360 C.2       5 LEU14       0.0000 
     40 O          81.8650  -29.0260  -48.2040 O.2       5 LEU14       0.0000 
     41 CB         81.9160  -26.3970  -49.6400 C.3       5 LEU14       0.0000 
     42 CG         82.9660  -25.5720  -48.8750 C.3       5 LEU14       0.0000 
     43 CD1        84.0220  -24.9840  -49.8040 C.3       5 LEU14       0.0000 
     44 CD2        82.2990  -24.4620  -48.0750 C.3       5 LEU14       0.0000 
     45 N          83.9610  -29.1550  -49.0020 N.am      6 TYR15       0.0000 
     46 CA         84.4880  -29.9230  -47.8690 C.3       6 TYR15       0.0000 
     47 C          86.0120  -29.8210  -47.8620 C.2       6 TYR15       0.0000 
     48 O          86.6410  -29.7640  -48.9240 O.2       6 TYR15       0.0000 
     49 CB         84.0220  -31.3840  -47.9310 C.3       6 TYR15       0.0000 
     50 CG         84.5770  -32.2810  -46.8370 C.ar      6 TYR15       0.0000 
     51 CD1        84.2310  -32.0830  -45.4980 C.ar      6 TYR15       0.0000 
     52 CD2        85.4480  -33.3400  -47.1410 C.ar      6 TYR15       0.0000 
     53 CE1        84.7330  -32.9050  -44.4930 C.ar      6 TYR15       0.0000 
     54 CE2        85.9570  -34.1680  -46.1420 C.ar      6 TYR15       0.0000 
     55 CZ         85.5930  -33.9450  -44.8230 C.ar      6 TYR15       0.0000 
     56 OH         86.0850  -34.7540  -43.8330 O.3       6 TYR15       0.0000 
     57 N          86.5840  -29.7870  -46.6580 N.am      7 GLU16       0.0000 
     58 CA         88.0150  -29.5660  -46.4450 C.3       7 GLU16       0.0000 
     59 C          88.5140  -30.4430  -45.2900 C.2       7 GLU16       0.0000 
     60 O          88.2900  -30.1220  -44.1210 O.2       7 GLU16       0.0000 
     61 CB         88.2580  -28.0780  -46.1490 C.3       7 GLU16       0.0000 
     62 CG         88.3140  -27.1900  -47.3980 C.3       7 GLU16       0.0000 
     63 CD         87.7070  -25.7980  -47.2140 C.2       7 GLU16       0.0000 
     64 OE1        87.7990  -25.2100  -46.1110 O.co2     7 GLU16       0.0000 
     65 OE2        87.1380  -25.2820  -48.2010 O.co2     7 GLU16       0.0000 
     66 N          89.1710  -31.5540  -45.6220 N.am      8 GLY17       0.0000 
     67 CA         89.7350  -32.4510  -44.6040 C.3       8 GLY17       0.0000 
     68 C          90.3830  -33.7040  -45.1670 C.2       8 GLY17       0.0000 
     69 O          89.7690  -34.4310  -45.9490 O.2       8 GLY17       0.0000 
@<TRIPOS>BOND
     1    1    2 1    
     2    2    3 1    
     3    2    5 1    
     4    3    4 2    
     5    3    7 am   
     6    5    6 1    
     7    7    8 1    
     8    8    9 1    
     9    8   11 1    
    10    9   10 2    
    11    9   15 am   
    12   11   12 1    
    13   12   13 1    
    14   12   14 1    
    15   15   16 1    
    16   16   17 1    
    17   16   19 1    
    18   17   18 2    
    19   17   26 am   
    20   19   20 1    
    21   20   21 1    
    22   21   22 1    
    23   22   23 ar   
    24   23   24 ar   
    25   23   25 ar   
    26   26   27 1    
    27   27   28 1    
    28   27   30 1    
    29   28   29 2    
    30   28   37 am   
    31   30   31 1    
    32   31   32 ar   
    33   31   33 ar   
    34   32   34 ar   
    35   33   35 ar   
    36   34   36 ar   
    37   35   36 ar   
    38   37   38 1    
    39   38   39 1    
    40   38   41 1    
    41   39   40 2    
    42   39   45 am   
    43   41   42 1    
    44   42   43 1    
    45   42   44 1    
    46   45   46 1    
    47   46   47 1    
    48   46   49 1    
    49   47   48 2    
    50   47   57 am   
    51   49   50 1    
    52   50   51 ar   
    53   50   52 ar   
    54   51   53 ar   
    55   52   54 ar   
    56   53   55 ar   
    57   54   55 ar   
    58   55   56 1    
    59   57   58 1    
    60   58   59 1    
    61   58   61 1    
    62   59   60 2    
    63   59   66 am   
    64   61   62 1    
    65   62   63 1    
    66   63   64 ar   
    67   63   65 ar   
    68   66   67 1    
    69   67   68 1    
    70   68   69 2    
@<TRIPOS>SUBSTRUCTURE
     1 SER10       1 RESIDUE 
     2 LEU11       7 RESIDUE 
     3 ARG12      15 RESIDUE 
     4 PHE13      26 RESIDUE 
     5 LEU14      37 RESIDUE 
     6 TYR15      45 RESIDUE 
     7 GLU16      57 RESIDUE 
     8 GLY17      66 RESIDUE 
@<TRIPOS>SET

