#    Name: 6eot_3_SER_LEU_ARG_PHE_LEU_TYR_GLU_GLY
#    Modification time : Fri May 22 19:28:39 2020

@<TRIPOS>MOLECULE
6eot_3_SER_LEU_ARG_PHE_LEU_TYR_GLU_GLY
   69    70     8     0     0
SMALL
NO_CHARGES


@<TRIPOS>ATOM
      1 N          38.1990  -38.7380 -104.3330 N.4       1 SER10       0.0000 
      2 CA         38.0970  -40.2110 -104.4940 C.3       1 SER10       0.0000 
      3 C          36.9270  -40.7460 -103.6760 C.2       1 SER10       0.0000 
      4 O          36.9140  -40.6420 -102.4460 O.2       1 SER10       0.0000 
      5 CB         39.4130  -40.9100 -104.1090 C.3       1 SER10       0.0000 
      6 OG         39.9250  -40.4380 -102.8760 O.3       1 SER10       0.0000 
      7 N          35.9430  -41.3030 -104.3750 N.am      2 LEU11       0.0000 
      8 CA         34.7900  -41.9340 -103.7500 C.3       2 LEU11       0.0000 
      9 C          35.1360  -43.3470 -103.2500 C.2       2 LEU11       0.0000 
     10 O          34.5450  -44.3270 -103.6830 O.2       2 LEU11       0.0000 
     11 CB         33.6130  -41.9630 -104.7460 C.3       2 LEU11       0.0000 
     12 CG         33.0460  -40.6340 -105.2630 C.3       2 LEU11       0.0000 
     13 CD1        31.6910  -40.8370 -105.9160 C.3       2 LEU11       0.0000 
     14 CD2        32.8890  -39.6090 -104.1650 C.3       2 LEU11       0.0000 
     15 N          36.0640  -43.4280 -102.2980 N.am      3 ARG12       0.0000 
     16 CA         36.5740  -44.6960 -101.7770 C.3       3 ARG12       0.0000 
     17 C          36.4130  -44.7160 -100.2560 C.2       3 ARG12       0.0000 
     18 O          37.1490  -44.0390  -99.5390 O.2       3 ARG12       0.0000 
     19 CB         38.0560  -44.8780 -102.1610 C.3       3 ARG12       0.0000 
     20 CG         38.3100  -45.7940 -103.3540 C.3       3 ARG12       0.0000 
     21 CD         39.8000  -46.1030 -103.5220 C.3       3 ARG12       0.0000 
     22 NE         40.0480  -47.5280 -103.7880 N.pl3     3 ARG12       0.0000 
     23 CZ         41.2410  -48.1350 -103.7560 C.cat     3 ARG12       0.0000 
     24 NH1        42.3550  -47.4620 -103.4650 N.pl3     3 ARG12       0.0000 
     25 NH2        41.3230  -49.4420 -104.0140 N.pl3     3 ARG12       0.0000 
     26 N          35.4600  -45.5070  -99.7690 N.am      4 PHE13       0.0000 
     27 CA         35.2480  -45.6920  -98.3230 C.3       4 PHE13       0.0000 
     28 C          36.3510  -46.6180  -97.7450 C.2       4 PHE13       0.0000 
     29 O          37.2770  -47.0140  -98.4610 O.2       4 PHE13       0.0000 
     30 CB         33.8320  -46.2500  -98.0780 C.3       4 PHE13       0.0000 
     31 CG         33.1650  -45.7590  -96.8050 C.ar      4 PHE13       0.0000 
     32 CD1        32.8000  -44.4210  -96.6510 C.ar      4 PHE13       0.0000 
     33 CD2        32.8550  -46.6530  -95.7730 C.ar      4 PHE13       0.0000 
     34 CE1        32.1670  -43.9900  -95.4880 C.ar      4 PHE13       0.0000 
     35 CE2        32.2320  -46.2220  -94.6120 C.ar      4 PHE13       0.0000 
     36 CZ         31.8850  -44.8890  -94.4680 C.ar      4 PHE13       0.0000 
     37 N          36.2600  -46.9460  -96.4560 N.am      5 LEU14       0.0000 
     38 CA         37.3250  -47.6460  -95.7350 C.3       5 LEU14       0.0000 
     39 C          36.7260  -48.3920  -94.5280 C.2       5 LEU14       0.0000 
     40 O          35.8970  -47.8280  -93.8130 O.2       5 LEU14       0.0000 
     41 CB         38.3710  -46.6040  -95.3130 C.3       5 LEU14       0.0000 
     42 CG         39.6150  -46.9840  -94.5180 C.3       5 LEU14       0.0000 
     43 CD1        40.4260  -48.0660  -95.2160 C.3       5 LEU14       0.0000 
     44 CD2        40.4520  -45.7310  -94.2960 C.3       5 LEU14       0.0000 
     45 N          37.1180  -49.6560  -94.3260 N.am      6 TYR15       0.0000 
     46 CA         36.5270  -50.5140  -93.2750 C.3       6 TYR15       0.0000 
     47 C          37.3380  -51.8090  -92.9770 C.2       6 TYR15       0.0000 
     48 O          37.8580  -52.4520  -93.8930 O.2       6 TYR15       0.0000 
     49 CB         35.0680  -50.8630  -93.6390 C.3       6 TYR15       0.0000 
     50 CG         34.3600  -51.7230  -92.6090 C.ar      6 TYR15       0.0000 
     51 CD1        34.2700  -51.3120  -91.2750 C.ar      6 TYR15       0.0000 
     52 CD2        33.7820  -52.9450  -92.9630 C.ar      6 TYR15       0.0000 
     53 CE1        33.6410  -52.0960  -90.3270 C.ar      6 TYR15       0.0000 
     54 CE2        33.1430  -53.7270  -92.0240 C.ar      6 TYR15       0.0000 
     55 CZ         33.0780  -53.2970  -90.7090 C.ar      6 TYR15       0.0000 
     56 OH         32.4600  -54.0480  -89.7570 O.3       6 TYR15       0.0000 
     57 N          37.4090  -52.1810  -91.6920 N.am      7 GLU16       0.0000 
     58 CA         38.2430  -53.2930  -91.1920 C.3       7 GLU16       0.0000 
     59 C          37.4580  -54.2560  -90.2780 C.2       7 GLU16       0.0000 
     60 O          36.2680  -54.0550  -90.0090 O.2       7 GLU16       0.0000 
     61 CB         39.4520  -52.7370  -90.4020 C.3       7 GLU16       0.0000 
     62 CG         40.0560  -51.4100  -90.8940 C.3       7 GLU16       0.0000 
     63 CD         40.8420  -51.5150  -92.2020 C.2       7 GLU16       0.0000 
     64 OE1        41.6160  -50.5810  -92.5040 O.co2     7 GLU16       0.0000 
     65 OE2        40.7000  -52.5170  -92.9350 O.co2     7 GLU16       0.0000 
     66 N          38.1430  -55.2980  -89.8070 N.am      8 GLY17       0.0000 
     67 CA         37.5970  -56.2200  -88.8100 C.3       8 GLY17       0.0000 
     68 C          36.4120  -57.0230  -89.3100 C.2       8 GLY17       0.0000 
     69 O          36.5560  -58.1780  -89.7060 O.2       8 GLY17       0.0000 
@<TRIPOS>BOND
     1    1    2 1    
     2    2    3 1    
     3    2    5 1    
     4    3    4 2    
     5    3    7 am   
     6    5    6 1    
     7    7    8 1    
     8    8    9 1    
     9    8   11 1    
    10    9   10 2    
    11    9   15 am   
    12   11   12 1    
    13   12   13 1    
    14   12   14 1    
    15   15   16 1    
    16   16   17 1    
    17   16   19 1    
    18   17   18 2    
    19   17   26 am   
    20   19   20 1    
    21   20   21 1    
    22   21   22 1    
    23   22   23 ar   
    24   23   24 ar   
    25   23   25 ar   
    26   26   27 1    
    27   27   28 1    
    28   27   30 1    
    29   28   29 2    
    30   28   37 am   
    31   30   31 1    
    32   31   32 ar   
    33   31   33 ar   
    34   32   34 ar   
    35   33   35 ar   
    36   34   36 ar   
    37   35   36 ar   
    38   37   38 1    
    39   38   39 1    
    40   38   41 1    
    41   39   40 2    
    42   39   45 am   
    43   41   42 1    
    44   42   43 1    
    45   42   44 1    
    46   45   46 1    
    47   46   47 1    
    48   46   49 1    
    49   47   48 2    
    50   47   57 am   
    51   49   50 1    
    52   50   51 ar   
    53   50   52 ar   
    54   51   53 ar   
    55   52   54 ar   
    56   53   55 ar   
    57   54   55 ar   
    58   55   56 1    
    59   57   58 1    
    60   58   59 1    
    61   58   61 1    
    62   59   60 2    
    63   59   66 am   
    64   61   62 1    
    65   62   63 1    
    66   63   64 ar   
    67   63   65 ar   
    68   66   67 1    
    69   67   68 1    
    70   68   69 2    
@<TRIPOS>SUBSTRUCTURE
     1 SER10       1 RESIDUE 
     2 LEU11       7 RESIDUE 
     3 ARG12      15 RESIDUE 
     4 PHE13      26 RESIDUE 
     5 LEU14      37 RESIDUE 
     6 TYR15      45 RESIDUE 
     7 GLU16      57 RESIDUE 
     8 GLY17      66 RESIDUE 
@<TRIPOS>SET

