#    Name: 6eot_6_SER_LEU_ARG_PHE_LEU_TYR_GLU_GLY
#    Modification time : Fri May 22 19:29:39 2020

@<TRIPOS>MOLECULE
6eot_6_SER_LEU_ARG_PHE_LEU_TYR_GLU_GLY
   69    70     8     0     0
SMALL
NO_CHARGES


@<TRIPOS>ATOM
      1 N          77.9070  -15.0180   14.6720 N.4       1 SER10       0.0000 
      2 CA         79.2480  -15.1530   15.2960 C.3       1 SER10       0.0000 
      3 C          80.2180  -14.2270   14.5830 C.2       1 SER10       0.0000 
      4 O          80.3160  -14.2660   13.3600 O.2       1 SER10       0.0000 
      5 CB         79.7410  -16.6040   15.2140 C.3       1 SER10       0.0000 
      6 OG         80.9590  -16.7830   15.9280 O.3       1 SER10       0.0000 
      7 N          80.9250  -13.3960   15.3440 N.am      2 LEU11       0.0000 
      8 CA         81.9840  -12.5570   14.7880 C.3       2 LEU11       0.0000 
      9 C          83.1650  -13.4430   14.3940 C.2       2 LEU11       0.0000 
     10 O          84.1590  -13.5260   15.1100 O.2       2 LEU11       0.0000 
     11 CB         82.4080  -11.4680   15.7890 C.3       2 LEU11       0.0000 
     12 CG         81.3000  -10.4810   16.1770 C.3       2 LEU11       0.0000 
     13 CD1        81.7050   -9.5670   17.3240 C.3       2 LEU11       0.0000 
     14 CD2        80.8880   -9.6640   14.9640 C.3       2 LEU11       0.0000 
     15 N          83.0300  -14.0840   13.2310 N.am      3 ARG12       0.0000 
     16 CA         83.9620  -15.1140   12.7590 C.3       3 ARG12       0.0000 
     17 C          83.9260  -15.2440   11.2140 C.2       3 ARG12       0.0000 
     18 O          82.9290  -15.6900   10.6260 O.2       3 ARG12       0.0000 
     19 CB         83.6260  -16.4530   13.4240 C.3       3 ARG12       0.0000 
     20 CG         84.7470  -17.4750   13.4180 C.3       3 ARG12       0.0000 
     21 CD         84.3680  -18.6190   14.3400 C.3       3 ARG12       0.0000 
     22 NE         85.2520  -19.7830   14.2310 N.pl3     3 ARG12       0.0000 
     23 CZ         85.1020  -20.9250   14.9170 C.cat     3 ARG12       0.0000 
     24 NH1        84.1020  -21.0870   15.7950 N.pl3     3 ARG12       0.0000 
     25 NH2        85.9710  -21.9180   14.7350 N.pl3     3 ARG12       0.0000 
     26 N          85.0310  -14.8620   10.5750 N.am      4 PHE13       0.0000 
     27 CA         85.1560  -14.8360    9.1100 C.3       4 PHE13       0.0000 
     28 C          85.3640  -16.2640    8.5610 C.2       4 PHE13       0.0000 
     29 O          85.6230  -17.2090    9.3210 O.2       4 PHE13       0.0000 
     30 CB         86.3430  -13.9230    8.7410 C.3       4 PHE13       0.0000 
     31 CG         86.1980  -13.1720    7.4370 C.ar      4 PHE13       0.0000 
     32 CD1        85.2440  -12.1600    7.2900 C.ar      4 PHE13       0.0000 
     33 CD2        87.0720  -13.4160    6.3850 C.ar      4 PHE13       0.0000 
     34 CE1        85.1400  -11.4430    6.1040 C.ar      4 PHE13       0.0000 
     35 CE2        86.9710  -12.7080    5.2010 C.ar      4 PHE13       0.0000 
     36 CZ         86.0030  -11.7220    5.0550 C.ar      4 PHE13       0.0000 
     37 N          85.2360  -16.4130    7.2420 N.am      5 LEU14       0.0000 
     38 CA         85.5340  -17.6670    6.5380 C.3       5 LEU14       0.0000 
     39 C          86.4930  -17.3570    5.3960 C.2       5 LEU14       0.0000 
     40 O          86.1390  -16.6100    4.4860 O.2       5 LEU14       0.0000 
     41 CB         84.2450  -18.2950    5.9890 C.3       5 LEU14       0.0000 
     42 CG         84.3410  -19.5600    5.1170 C.3       5 LEU14       0.0000 
     43 CD1        84.9280  -20.7370    5.8920 C.3       5 LEU14       0.0000 
     44 CD2        82.9730  -19.9200    4.5490 C.3       5 LEU14       0.0000 
     45 N          87.7040  -17.9110    5.4500 N.am      6 TYR15       0.0000 
     46 CA         88.6480  -17.8150    4.3320 C.3       6 TYR15       0.0000 
     47 C          89.5230  -19.0730    4.2240 C.2       6 TYR15       0.0000 
     48 O          90.3190  -19.3750    5.1190 O.2       6 TYR15       0.0000 
     49 CB         89.5000  -16.5450    4.4440 C.3       6 TYR15       0.0000 
     50 CG         90.5110  -16.3680    3.3240 C.ar      6 TYR15       0.0000 
     51 CD1        90.1440  -16.5150    1.9820 C.ar      6 TYR15       0.0000 
     52 CD2        91.8370  -16.0460    3.6030 C.ar      6 TYR15       0.0000 
     53 CE1        91.0700  -16.3600    0.9620 C.ar      6 TYR15       0.0000 
     54 CE2        92.7660  -15.8870    2.5880 C.ar      6 TYR15       0.0000 
     55 CZ         92.3760  -16.0460    1.2740 C.ar      6 TYR15       0.0000 
     56 OH         93.2930  -15.8840    0.2750 O.3       6 TYR15       0.0000 
     57 N          89.3600  -19.7880    3.1080 N.am      7 GLU16       0.0000 
     58 CA         90.1020  -21.0200    2.8270 C.3       7 GLU16       0.0000 
     59 C          91.3850  -20.6070    2.0750 C.2       7 GLU16       0.0000 
     60 O          91.3490  -20.2760    0.8790 O.2       7 GLU16       0.0000 
     61 CB         89.2630  -22.0230    1.9950 C.3       7 GLU16       0.0000 
     62 CG         87.7500  -22.1120    2.2710 C.3       7 GLU16       0.0000 
     63 CD         87.3760  -22.9750    3.4660 C.2       7 GLU16       0.0000 
     64 OE1        86.4940  -23.8520    3.3090 O.co2     7 GLU16       0.0000 
     65 OE2        87.9520  -22.7670    4.5560 O.co2     7 GLU16       0.0000 
     66 N          92.5060  -20.5960    2.7960 N.am      8 GLY17       0.0000 
     67 CA         93.7890  -20.1290    2.2530 C.3       8 GLY17       0.0000 
     68 C          94.7180  -19.5970    3.3350 C.2       8 GLY17       0.0000 
     69 O          95.0840  -18.4180    3.3420 O.2       8 GLY17       0.0000 
@<TRIPOS>BOND
     1    1    2 1    
     2    2    3 1    
     3    2    5 1    
     4    3    4 2    
     5    3    7 am   
     6    5    6 1    
     7    7    8 1    
     8    8    9 1    
     9    8   11 1    
    10    9   10 2    
    11    9   15 am   
    12   11   12 1    
    13   12   13 1    
    14   12   14 1    
    15   15   16 1    
    16   16   17 1    
    17   16   19 1    
    18   17   18 2    
    19   17   26 am   
    20   19   20 1    
    21   20   21 1    
    22   21   22 1    
    23   22   23 ar   
    24   23   24 ar   
    25   23   25 ar   
    26   26   27 1    
    27   27   28 1    
    28   27   30 1    
    29   28   29 2    
    30   28   37 am   
    31   30   31 1    
    32   31   32 ar   
    33   31   33 ar   
    34   32   34 ar   
    35   33   35 ar   
    36   34   36 ar   
    37   35   36 ar   
    38   37   38 1    
    39   38   39 1    
    40   38   41 1    
    41   39   40 2    
    42   39   45 am   
    43   41   42 1    
    44   42   43 1    
    45   42   44 1    
    46   45   46 1    
    47   46   47 1    
    48   46   49 1    
    49   47   48 2    
    50   47   57 am   
    51   49   50 1    
    52   50   51 ar   
    53   50   52 ar   
    54   51   53 ar   
    55   52   54 ar   
    56   53   55 ar   
    57   54   55 ar   
    58   55   56 1    
    59   57   58 1    
    60   58   59 1    
    61   58   61 1    
    62   59   60 2    
    63   59   66 am   
    64   61   62 1    
    65   62   63 1    
    66   63   64 ar   
    67   63   65 ar   
    68   66   67 1    
    69   67   68 1    
    70   68   69 2    
@<TRIPOS>SUBSTRUCTURE
     1 SER10       1 RESIDUE 
     2 LEU11       7 RESIDUE 
     3 ARG12      15 RESIDUE 
     4 PHE13      26 RESIDUE 
     5 LEU14      37 RESIDUE 
     6 TYR15      45 RESIDUE 
     7 GLU16      57 RESIDUE 
     8 GLY17      66 RESIDUE 
@<TRIPOS>SET

