#    Name: 6eot_4_SER_LEU_ARG_PHE_LEU_TYR_GLU_GLY
#    Modification time : Fri May 22 19:28:59 2020

@<TRIPOS>MOLECULE
6eot_4_SER_LEU_ARG_PHE_LEU_TYR_GLU_GLY
   69    70     8     0     0
SMALL
NO_CHARGES


@<TRIPOS>ATOM
      1 N          11.4350  -23.8230  -73.6350 N.4       1 SER10       0.0000 
      2 CA         10.0860  -24.4460  -73.5080 C.3       1 SER10       0.0000 
      3 C          10.0220  -25.6450  -74.4450 C.2       1 SER10       0.0000 
      4 O           9.9130  -25.4870  -75.6650 O.2       1 SER10       0.0000 
      5 CB          8.9630  -23.4400  -73.8110 C.3       1 SER10       0.0000 
      6 OG          7.6860  -23.9940  -73.5250 O.3       1 SER10       0.0000 
      7 N          10.1220  -26.8370  -73.8620 N.am      2 LEU11       0.0000 
      8 CA         10.0970  -28.0800  -74.6160 C.3       2 LEU11       0.0000 
      9 C           8.6760  -28.3340  -75.0620 C.2       2 LEU11       0.0000 
     10 O           7.9500  -29.1040  -74.4540 O.2       2 LEU11       0.0000 
     11 CB         10.6100  -29.2330  -73.7580 C.3       2 LEU11       0.0000 
     12 CG         12.0510  -29.0560  -73.2940 C.3       2 LEU11       0.0000 
     13 CD1        12.4230  -30.1270  -72.2860 C.3       2 LEU11       0.0000 
     14 CD2        12.9900  -29.0760  -74.4820 C.3       2 LEU11       0.0000 
     15 N           8.3030  -27.6740  -76.1500 N.am      3 ARG12       0.0000 
     16 CA          6.9110  -27.5450  -76.5460 C.3       3 ARG12       0.0000 
     17 C           6.8540  -27.2210  -78.0380 C.2       3 ARG12       0.0000 
     18 O           7.1130  -26.0870  -78.4540 O.2       3 ARG12       0.0000 
     19 CB          6.2610  -26.4460  -75.7090 C.3       3 ARG12       0.0000 
     20 CG          4.7600  -26.3290  -75.8350 C.3       3 ARG12       0.0000 
     21 CD          4.2520  -25.3490  -74.7900 C.3       3 ARG12       0.0000 
     22 NE          2.9460  -24.8010  -75.1350 N.pl3     3 ARG12       0.0000 
     23 CZ          2.3100  -23.8590  -74.4400 C.cat     3 ARG12       0.0000 
     24 NH1         2.8500  -23.3370  -73.3350 N.pl3     3 ARG12       0.0000 
     25 NH2         1.1180  -23.4330  -74.8580 N.pl3     3 ARG12       0.0000 
     26 N           6.5150  -28.2400  -78.8270 N.am      4 PHE13       0.0000 
     27 CA          6.5720  -28.1920  -80.2950 C.3       4 PHE13       0.0000 
     28 C           5.4690  -27.2700  -80.8450 C.2       4 PHE13       0.0000 
     29 O           4.6910  -26.6800  -80.0810 O.2       4 PHE13       0.0000 
     30 CB          6.4280  -29.6350  -80.8390 C.3       4 PHE13       0.0000 
     31 CG          7.1220  -29.9010  -82.1660 C.ar      4 PHE13       0.0000 
     32 CD1         8.5070  -29.8050  -82.2920 C.ar      4 PHE13       0.0000 
     33 CD2         6.3870  -30.3210  -83.2790 C.ar      4 PHE13       0.0000 
     34 CE1         9.1320  -30.0830  -83.5040 C.ar      4 PHE13       0.0000 
     35 CE2         7.0070  -30.5960  -84.4880 C.ar      4 PHE13       0.0000 
     36 CZ          8.3800  -30.4740  -84.6020 C.ar      4 PHE13       0.0000 
     37 N           5.4430  -27.1060  -82.1650 N.am      5 LEU14       0.0000 
     38 CA          4.3410  -26.4410  -82.8560 C.3       5 LEU14       0.0000 
     39 C           3.9590  -27.2580  -84.0780 C.2       5 LEU14       0.0000 
     40 O           4.7410  -27.3560  -85.0240 O.2       5 LEU14       0.0000 
     41 CB          4.7510  -25.0290  -83.2790 C.3       5 LEU14       0.0000 
     42 CG          3.8260  -24.2710  -84.2390 C.3       5 LEU14       0.0000 
     43 CD1         2.3940  -24.2200  -83.7280 C.3       5 LEU14       0.0000 
     44 CD2         4.3660  -22.8680  -84.4670 C.3       5 LEU14       0.0000 
     45 N           2.7700  -27.8540  -84.0560 N.am      6 TYR15       0.0000 
     46 CA          2.2470  -28.5400  -85.2350 C.3       6 TYR15       0.0000 
     47 C           0.7430  -28.3070  -85.3950 C.2       6 TYR15       0.0000 
     48 O          -0.0270  -28.4100  -84.4330 O.2       6 TYR15       0.0000 
     49 CB          2.5850  -30.0390  -85.2150 C.3       6 TYR15       0.0000 
     50 CG          2.1260  -30.7840  -86.4560 C.ar      6 TYR15       0.0000 
     51 CD1         2.4220  -30.3040  -87.7330 C.ar      6 TYR15       0.0000 
     52 CD2         1.3940  -31.9650  -86.3610 C.ar      6 TYR15       0.0000 
     53 CE1         1.9980  -30.9660  -88.8720 C.ar      6 TYR15       0.0000 
     54 CE2         0.9710  -32.6390  -87.5040 C.ar      6 TYR15       0.0000 
     55 CZ          1.2770  -32.1270  -88.7540 C.ar      6 TYR15       0.0000 
     56 OH          0.8720  -32.7650  -89.8970 O.3       6 TYR15       0.0000 
     57 N           0.3590  -27.9850  -86.6320 N.am      7 GLU16       0.0000 
     58 CA         -1.0170  -27.6690  -87.0110 C.3       7 GLU16       0.0000 
     59 C          -1.6080  -28.8730  -87.7820 C.2       7 GLU16       0.0000 
     60 O          -1.8710  -28.8140  -88.9920 O.2       7 GLU16       0.0000 
     61 CB         -1.0470  -26.3650  -87.8410 C.3       7 GLU16       0.0000 
     62 CG         -0.2000  -25.2030  -87.2990 C.3       7 GLU16       0.0000 
     63 CD         -0.8360  -24.4530  -86.1290 C.2       7 GLU16       0.0000 
     64 OE1        -1.0450  -23.2290  -86.2630 O.co2     7 GLU16       0.0000 
     65 OE2        -1.1140  -25.0670  -85.0730 O.co2     7 GLU16       0.0000 
     66 N          -1.7910  -29.9750  -87.0510 N.am      8 GLY17       0.0000 
     67 CA         -2.3320  -31.2270  -87.6110 C.3       8 GLY17       0.0000 
     68 C          -2.3470  -32.3800  -86.6090 C.2       8 GLY17       0.0000 
     69 O          -2.8970  -33.4580  -86.8690 O.2       8 GLY17       0.0000 
@<TRIPOS>BOND
     1    1    2 1    
     2    2    3 1    
     3    2    5 1    
     4    3    4 2    
     5    3    7 am   
     6    5    6 1    
     7    7    8 1    
     8    8    9 1    
     9    8   11 1    
    10    9   10 2    
    11    9   15 am   
    12   11   12 1    
    13   12   13 1    
    14   12   14 1    
    15   15   16 1    
    16   16   17 1    
    17   16   19 1    
    18   17   18 2    
    19   17   26 am   
    20   19   20 1    
    21   20   21 1    
    22   21   22 1    
    23   22   23 ar   
    24   23   24 ar   
    25   23   25 ar   
    26   26   27 1    
    27   27   28 1    
    28   27   30 1    
    29   28   29 2    
    30   28   37 am   
    31   30   31 1    
    32   31   32 ar   
    33   31   33 ar   
    34   32   34 ar   
    35   33   35 ar   
    36   34   36 ar   
    37   35   36 ar   
    38   37   38 1    
    39   38   39 1    
    40   38   41 1    
    41   39   40 2    
    42   39   45 am   
    43   41   42 1    
    44   42   43 1    
    45   42   44 1    
    46   45   46 1    
    47   46   47 1    
    48   46   49 1    
    49   47   48 2    
    50   47   57 am   
    51   49   50 1    
    52   50   51 ar   
    53   50   52 ar   
    54   51   53 ar   
    55   52   54 ar   
    56   53   55 ar   
    57   54   55 ar   
    58   55   56 1    
    59   57   58 1    
    60   58   59 1    
    61   58   61 1    
    62   59   60 2    
    63   59   66 am   
    64   61   62 1    
    65   62   63 1    
    66   63   64 ar   
    67   63   65 ar   
    68   66   67 1    
    69   67   68 1    
    70   68   69 2    
@<TRIPOS>SUBSTRUCTURE
     1 SER10       1 RESIDUE 
     2 LEU11       7 RESIDUE 
     3 ARG12      15 RESIDUE 
     4 PHE13      26 RESIDUE 
     5 LEU14      37 RESIDUE 
     6 TYR15      45 RESIDUE 
     7 GLU16      57 RESIDUE 
     8 GLY17      66 RESIDUE 
@<TRIPOS>SET

