#    Name: 6eot_5_SER_LEU_ARG_PHE_LEU_TYR_GLU_GLY
#    Modification time : Fri May 22 19:29:19 2020

@<TRIPOS>MOLECULE
6eot_5_SER_LEU_ARG_PHE_LEU_TYR_GLU_GLY
   69    70     8     0     0
SMALL
NO_CHARGES


@<TRIPOS>ATOM
      1 N          74.8000   16.2880  -13.5660 N.4       1 SER10       0.0000 
      2 CA         75.8580   17.0970  -14.2260 C.3       1 SER10       0.0000 
      3 C          77.1430   16.9330  -13.4580 C.2       1 SER10       0.0000 
      4 O          77.1760   17.1700  -12.2490 O.2       1 SER10       0.0000 
      5 CB         75.4820   18.5730  -14.2790 C.3       1 SER10       0.0000 
      6 OG         76.5270   19.3140  -14.8850 O.3       1 SER10       0.0000 
      7 N          78.1940   16.5520  -14.1780 N.am      2 LEU11       0.0000 
      8 CA         79.4460   16.1180  -13.5790 C.3       2 LEU11       0.0000 
      9 C          80.1600   17.3440  -13.0720 C.2       2 LEU11       0.0000 
     10 O          81.0830   17.8400  -13.6950 O.2       2 LEU11       0.0000 
     11 CB         80.2870   15.3380  -14.5950 C.3       2 LEU11       0.0000 
     12 CG         79.5570   14.0850  -15.1040 C.3       2 LEU11       0.0000 
     13 CD1        80.2110   13.4790  -16.3310 C.3       2 LEU11       0.0000 
     14 CD2        79.4480   13.0540  -13.9970 C.3       2 LEU11       0.0000 
     15 N          79.6960   17.8140  -11.9200 N.am      3 ARG12       0.0000 
     16 CA         80.0430   19.1220  -11.4080 C.3       3 ARG12       0.0000 
     17 C          79.9030   19.1120   -9.8880 C.2       3 ARG12       0.0000 
     18 O          78.8000   19.0930   -9.3400 O.2       3 ARG12       0.0000 
     19 CB         79.1480   20.1830  -12.0500 C.3       3 ARG12       0.0000 
     20 CG         79.8290   21.5160  -12.2370 C.3       3 ARG12       0.0000 
     21 CD         78.9570   22.4060  -13.0840 C.3       3 ARG12       0.0000 
     22 NE         79.3990   23.7960  -13.0490 N.pl3     3 ARG12       0.0000 
     23 CZ         78.9150   24.7650  -13.8290 C.cat     3 ARG12       0.0000 
     24 NH1        77.9610   24.5000  -14.7280 N.pl3     3 ARG12       0.0000 
     25 NH2        79.3970   26.0050  -13.7140 N.pl3     3 ARG12       0.0000 
     26 N          81.0510   19.1230   -9.2230 N.am      4 PHE13       0.0000 
     27 CA         81.1390   19.0150   -7.7730 C.3       4 PHE13       0.0000 
     28 C          80.8590   20.3870   -7.1200 C.2       4 PHE13       0.0000 
     29 O          80.6030   21.3790   -7.8140 O.2       4 PHE13       0.0000 
     30 CB         82.5410   18.4760   -7.4080 C.3       4 PHE13       0.0000 
     31 CG         82.5690   17.5970   -6.1880 C.ar      4 PHE13       0.0000 
     32 CD1        81.9060   16.3730   -6.1810 C.ar      4 PHE13       0.0000 
     33 CD2        83.2730   17.9820   -5.0500 C.ar      4 PHE13       0.0000 
     34 CE1        81.9300   15.5630   -5.0570 C.ar      4 PHE13       0.0000 
     35 CE2        83.3050   17.1750   -3.9280 C.ar      4 PHE13       0.0000 
     36 CZ         82.6310   15.9650   -3.9290 C.ar      4 PHE13       0.0000 
     37 N          80.8660   20.4230   -5.7880 N.am      5 LEU14       0.0000 
     38 CA         80.7970   21.6810   -5.0250 C.3       5 LEU14       0.0000 
     39 C          81.6440   21.5940   -3.7560 C.2       5 LEU14       0.0000 
     40 O          81.3690   20.7650   -2.8840 O.2       5 LEU14       0.0000 
     41 CB         79.3490   22.0070   -4.6490 C.3       5 LEU14       0.0000 
     42 CG         79.0510   23.3060   -3.8850 C.3       5 LEU14       0.0000 
     43 CD1        79.4780   24.5560   -4.6400 C.3       5 LEU14       0.0000 
     44 CD2        77.5680   23.3740   -3.5850 C.3       5 LEU14       0.0000 
     45 N          82.6710   22.4420   -3.6670 N.am      6 TYR15       0.0000 
     46 CA         83.4650   22.5920   -2.4460 C.3       6 TYR15       0.0000 
     47 C          83.9050   24.0540   -2.3120 C.2       6 TYR15       0.0000 
     48 O          84.3590   24.6520   -3.2820 O.2       6 TYR15       0.0000 
     49 CB         84.6640   21.6210   -2.4430 C.3       6 TYR15       0.0000 
     50 CG         85.5770   21.7330   -1.2210 C.ar      6 TYR15       0.0000 
     51 CD1        85.0530   21.7550    0.0800 C.ar      6 TYR15       0.0000 
     52 CD2        86.9640   21.8120   -1.3620 C.ar      6 TYR15       0.0000 
     53 CE1        85.8800   21.8690    1.1930 C.ar      6 TYR15       0.0000 
     54 CE2        87.7960   21.9220   -0.2540 C.ar      6 TYR15       0.0000 
     55 CZ         87.2510   21.9510    1.0210 C.ar      6 TYR15       0.0000 
     56 OH         88.0640   22.0570    2.1260 O.3       6 TYR15       0.0000 
     57 N          83.7630   24.6090   -1.1050 N.am      7 GLU16       0.0000 
     58 CA         84.0500   26.0280   -0.8180 C.3       7 GLU16       0.0000 
     59 C          85.4810   26.1860   -0.2560 C.2       7 GLU16       0.0000 
     60 O          85.6950   26.2460    0.9660 O.2       7 GLU16       0.0000 
     61 CB         83.0020   26.6260    0.1570 C.3       7 GLU16       0.0000 
     62 CG         81.5390   26.1980   -0.0380 C.3       7 GLU16       0.0000 
     63 CD         80.8200   26.9120   -1.1750 C.2       7 GLU16       0.0000 
     64 OE1        79.8040   27.5860   -0.8920 O.co2     7 GLU16       0.0000 
     65 OE2        81.2500   26.7930   -2.3460 O.co2     7 GLU16       0.0000 
     66 N          86.4530   26.2350   -1.1680 N.am      8 GLY17       0.0000 
     67 CA         87.8710   26.4040   -0.8190 C.3       8 GLY17       0.0000 
     68 C          88.6650   25.1090   -0.8920 C.2       8 GLY17       0.0000 
     69 O          89.8990   25.1240   -0.9760 O.2       8 GLY17       0.0000 
@<TRIPOS>BOND
     1    1    2 1    
     2    2    3 1    
     3    2    5 1    
     4    3    4 2    
     5    3    7 am   
     6    5    6 1    
     7    7    8 1    
     8    8    9 1    
     9    8   11 1    
    10    9   10 2    
    11    9   15 am   
    12   11   12 1    
    13   12   13 1    
    14   12   14 1    
    15   15   16 1    
    16   16   17 1    
    17   16   19 1    
    18   17   18 2    
    19   17   26 am   
    20   19   20 1    
    21   20   21 1    
    22   21   22 1    
    23   22   23 ar   
    24   23   24 ar   
    25   23   25 ar   
    26   26   27 1    
    27   27   28 1    
    28   27   30 1    
    29   28   29 2    
    30   28   37 am   
    31   30   31 1    
    32   31   32 ar   
    33   31   33 ar   
    34   32   34 ar   
    35   33   35 ar   
    36   34   36 ar   
    37   35   36 ar   
    38   37   38 1    
    39   38   39 1    
    40   38   41 1    
    41   39   40 2    
    42   39   45 am   
    43   41   42 1    
    44   42   43 1    
    45   42   44 1    
    46   45   46 1    
    47   46   47 1    
    48   46   49 1    
    49   47   48 2    
    50   47   57 am   
    51   49   50 1    
    52   50   51 ar   
    53   50   52 ar   
    54   51   53 ar   
    55   52   54 ar   
    56   53   55 ar   
    57   54   55 ar   
    58   55   56 1    
    59   57   58 1    
    60   58   59 1    
    61   58   61 1    
    62   59   60 2    
    63   59   66 am   
    64   61   62 1    
    65   62   63 1    
    66   63   64 ar   
    67   63   65 ar   
    68   66   67 1    
    69   67   68 1    
    70   68   69 2    
@<TRIPOS>SUBSTRUCTURE
     1 SER10       1 RESIDUE 
     2 LEU11       7 RESIDUE 
     3 ARG12      15 RESIDUE 
     4 PHE13      26 RESIDUE 
     5 LEU14      37 RESIDUE 
     6 TYR15      45 RESIDUE 
     7 GLU16      57 RESIDUE 
     8 GLY17      66 RESIDUE 
@<TRIPOS>SET

