#    Name: 6mit_1_NOV
#    Modification time : Fri May 22 19:25:24 2020

@<TRIPOS>MOLECULE
6mit_1_NOV
   44    47     1     0     0
SMALL
NO_CHARGES


@<TRIPOS>ATOM
      1 C1        -13.5620  -38.3440   84.0280 C.3       1 NOV302      0.0000 
      2 O1        -13.1040  -37.3200   83.1460 O.3       1 NOV302      0.0000 
      3 N1         -9.4840  -35.8510   85.1440 N.am      1 NOV302      0.0000 
      4 C12       -10.8610  -35.7910   84.9280 C.2       1 NOV302      0.0000 
      5 O4        -11.7110  -36.2130   85.7220 O.2       1 NOV302      0.0000 
      6 O5        -11.2260  -35.1660   83.7420 O.3       1 NOV302      0.0000 
      7 C27       -11.7320  -37.3780   82.7160 C.3       1 NOV302      0.0000 
      8 C28       -11.2080  -35.8900   82.5020 C.3       1 NOV302      0.0000 
      9 C29        -9.7850  -35.8680   81.8290 C.3       1 NOV302      0.0000 
     10 O6         -8.8670  -35.5520   82.8230 O.3       1 NOV302      0.0000 
     11 C30        -9.5620  -37.2830   81.2420 C.3       1 NOV302      0.0000 
     12 O7        -10.7010  -37.5460   80.5400 O.3       1 NOV302      0.0000 
     13 C31       -11.6870  -38.1050   81.3250 C.3       1 NOV302      0.0000 
     14 C23       -13.0180  -37.8730   80.5770 C.3       1 NOV302      0.0000 
     15 C26       -11.3980  -39.6150   81.4950 C.3       1 NOV302      0.0000 
     16 O8         -8.5460  -37.1910   80.2760 O.3       1 NOV302      0.0000 
     17 C3         -8.4700  -38.1220   79.2620 C.ar      1 NOV302      0.0000 
     18 C4         -7.4760  -39.1100   79.4320 C.ar      1 NOV302      0.0000 
     19 C2         -6.5700  -39.2340   80.6310 C.3       1 NOV302      0.0000 
     20 C5         -7.3520  -40.0270   78.3990 C.ar      1 NOV302      0.0000 
     21 C9         -8.1440  -39.9730   77.2540 C.ar      1 NOV302      0.0000 
     22 C10        -9.1110  -38.9790   77.0950 C.ar      1 NOV302      0.0000 
     23 C11        -9.2750  -38.0520   78.0830 C.ar      1 NOV302      0.0000 
     24 O10        -6.4020  -40.9620   78.6270 O.3       1 NOV302      0.0000 
     25 C6         -6.0950  -41.8650   77.6300 C.2       1 NOV302      0.0000 
     26 O11        -5.1110  -42.5510   77.8720 O.2       1 NOV302      0.0000 
     27 C7         -6.9070  -41.8290   76.4170 C.2       1 NOV302      0.0000 
     28 C8         -7.9390  -40.9510   76.2720 C.2       1 NOV302      0.0000 
     29 O9         -8.6570  -40.7640   75.1490 O.co2     1 NOV302      0.0000 
     30 N2         -6.4020  -42.4170   75.2630 N.am      1 NOV302      0.0000 
     31 C13        -5.7490  -41.6250   74.3010 C.2       1 NOV302      0.0000 
     32 O2         -5.5940  -40.4130   74.4480 O.2       1 NOV302      0.0000 
     33 C14        -5.3090  -42.3670   73.1130 C.ar      1 NOV302      0.0000 
     34 C15        -4.6660  -41.6270   72.1310 C.ar      1 NOV302      0.0000 
     35 C16        -4.2430  -42.2570   70.9700 C.ar      1 NOV302      0.0000 
     36 C17        -4.4870  -43.6290   70.8320 C.ar      1 NOV302      0.0000 
     37 O3         -4.0840  -44.2610   69.7230 O.3       1 NOV302      0.0000 
     38 C18        -5.1370  -44.3800   71.8110 C.ar      1 NOV302      0.0000 
     39 C19        -5.5520  -43.7330   72.9510 C.ar      1 NOV302      0.0000 
     40 C20        -3.5190  -41.4860   69.8900 C.3       1 NOV302      0.0000 
     41 C21        -4.4570  -40.5500   69.2050 C.2       1 NOV302      0.0000 
     42 C22        -4.1560  -39.9180   68.0640 C.2       1 NOV302      0.0000 
     43 C24        -2.8390  -40.0960   67.3740 C.3       1 NOV302      0.0000 
     44 C25        -5.1660  -39.0070   67.4560 C.3       1 NOV302      0.0000 
@<TRIPOS>BOND
     1    1    2 1    
     2    2    7 1    
     3    3    4 am   
     4    4    5 2    
     5    4    6 1    
     6    6    8 1    
     7    7    8 1    
     8    7   13 1    
     9    8    9 1    
    10    9   10 1    
    11    9   11 1    
    12   11   12 1    
    13   11   16 1    
    14   12   13 1    
    15   13   14 1    
    16   13   15 1    
    17   16   17 1    
    18   17   18 ar   
    19   17   23 ar   
    20   18   19 1    
    21   18   20 ar   
    22   20   21 ar   
    23   20   24 1    
    24   21   22 ar   
    25   21   28 1    
    26   22   23 ar   
    27   24   25 1    
    28   25   26 2    
    29   25   27 1    
    30   27   28 2    
    31   27   30 1    
    32   28   29 ar   
    33   30   31 am   
    34   31   32 2    
    35   31   33 1    
    36   33   34 ar   
    37   33   39 ar   
    38   34   35 ar   
    39   35   36 ar   
    40   35   40 1    
    41   36   37 1    
    42   36   38 ar   
    43   38   39 ar   
    44   40   41 1    
    45   41   42 2    
    46   42   43 1    
    47   42   44 1    
@<TRIPOS>SUBSTRUCTURE
     1 NOV302      1 GROUP   
@<TRIPOS>SET

