#    Name: 6ecv_1_SAH
#    Modification time : Fri May 22 19:29:09 2020

@<TRIPOS>MOLECULE
6ecv_1_SAH
   26    28     1     0     0
SMALL
NO_CHARGES


@<TRIPOS>ATOM
      1 N         -45.6170   65.9700    2.2880 N.4       1 SAH1301     0.0000 
      2 CA        -46.2890   66.9380    1.4280 C.3       1 SAH1301     0.0000 
      3 CB        -47.1980   67.8410    2.2510 C.3       1 SAH1301     0.0000 
      4 CG        -48.4540   68.3490    1.5580 C.3       1 SAH1301     0.0000 
      5 SD        -49.9580   67.6720    2.3100 S.3       1 SAH1301     0.0000 
      6 C         -45.2730   67.7780    0.6630 C.2       1 SAH1301     0.0000 
      7 O         -45.6200   68.4200   -0.3260 O.co2     1 SAH1301     0.0000 
      8 OXT       -44.0920   67.8440    1.0140 O.co2     1 SAH1301     0.0000 
      9 C5'       -50.6440   67.6310    0.6460 C.3       1 SAH1301     0.0000 
     10 C4'       -50.3080   66.3270   -0.0490 C.3       1 SAH1301     0.0000 
     11 O4'       -50.8730   65.2390    0.6720 O.3       1 SAH1301     0.0000 
     12 C3'       -50.9410   66.3700   -1.4250 C.3       1 SAH1301     0.0000 
     13 O3'       -50.0850   65.7470   -2.3480 O.3       1 SAH1301     0.0000 
     14 C2'       -52.1860   65.5420   -1.2370 C.3       1 SAH1301     0.0000 
     15 O2'       -52.6170   64.9620   -2.4440 O.3       1 SAH1301     0.0000 
     16 C1'       -51.7100   64.5220   -0.2070 C.3       1 SAH1301     0.0000 
     17 N9        -52.8670   63.8770    0.4220 N.pl3     1 SAH1301     0.0000 
     18 C8        -53.8370   64.4490    1.2090 C.2       1 SAH1301     0.0000 
     19 N7        -54.7320   63.4780    1.5320 N.2       1 SAH1301     0.0000 
     20 C5        -54.3530   62.3200    0.9420 C.ar      1 SAH1301     0.0000 
     21 C6        -54.8940   61.0470    0.9430 C.ar      1 SAH1301     0.0000 
     22 N6        -56.0110   60.7870    1.6120 N.pl3     1 SAH1301     0.0000 
     23 N1        -54.2590   60.0490    0.2390 N.ar      1 SAH1301     0.0000 
     24 C2        -53.0950   60.3020   -0.4560 C.ar      1 SAH1301     0.0000 
     25 N3        -52.5570   61.5700   -0.4590 N.ar      1 SAH1301     0.0000 
     26 C4        -53.1810   62.5560    0.2420 C.ar      1 SAH1301     0.0000 
@<TRIPOS>BOND
     1    1    2 1    
     2    2    3 1    
     3    2    6 1    
     4    3    4 1    
     5    4    5 1    
     6    5    9 1    
     7    6    7 ar   
     8    6    8 ar   
     9    9   10 1    
    10   10   11 1    
    11   10   12 1    
    12   11   16 1    
    13   12   13 1    
    14   12   14 1    
    15   14   15 1    
    16   14   16 1    
    17   16   17 1    
    18   17   18 1    
    19   17   26 1    
    20   18   19 2    
    21   19   20 1    
    22   20   21 ar   
    23   20   26 ar   
    24   21   22 1    
    25   21   23 ar   
    26   23   24 ar   
    27   24   25 ar   
    28   25   26 ar   
@<TRIPOS>SUBSTRUCTURE
     1 SAH1301     1 GROUP   
@<TRIPOS>SET

