#    Name: 6ecv_2_SAH_CAVITY_N1_4
#    Modification time : Fri May 22 19:29:15 2020

@<TRIPOS>MOLECULE
6ecv_2_SAH_CAVITY_N1_4
   82     0     6     0     0
SMALL
NO_CHARGES


@<TRIPOS>ATOM
      1 OG        -25.3300   33.0800   38.2200 O.3       1 SER1        0.0000 
      2 OG        -26.7000   39.1000   43.6400 O.3       1 SER1        0.0000 
      3 OG        -26.7600   40.2900   42.7300 O.3       1 SER1        0.0000 
      4 O         -23.1500   33.3300   33.5200 O.2       2 ALA2        0.0000 
      5 N         -24.2900   34.3900   34.9500 N.am      2 ALA2        0.0000 
      6 O         -26.7900   33.2400   38.5100 O.2       2 ALA2        0.0000 
      7 O         -23.8600   32.9200   37.9400 O.2       2 ALA2        0.0000 
      8 N         -26.4200   32.9500   40.5800 N.am      2 ALA2        0.0000 
      9 N         -24.9600   32.8000   40.2900 N.am      2 ALA2        0.0000 
     10 O         -27.9400   34.3000   39.9500 O.2       2 ALA2        0.0000 
     11 O         -26.4700   34.1400   39.6600 O.2       2 ALA2        0.0000 
     12 N         -26.5200   35.3300   38.7500 N.am      2 ALA2        0.0000 
     13 N         -29.1300   36.5400   40.4700 N.am      2 ALA2        0.0000 
     14 N         -27.6700   36.3900   40.1900 N.am      2 ALA2        0.0000 
     15 N         -29.1800   37.7300   39.5500 N.am      2 ALA2        0.0000 
     16 N         -27.7200   37.5800   39.2700 N.am      2 ALA2        0.0000 
     17 N         -30.3300   38.7900   40.9900 N.am      2 ALA2        0.0000 
     18 N         -28.8600   38.6400   40.7100 N.am      2 ALA2        0.0000 
     19 N         -27.4000   38.4800   40.4200 N.am      2 ALA2        0.0000 
     20 N         -25.9300   38.3200   40.1400 N.am      2 ALA2        0.0000 
     21 N         -26.6500   37.9100   44.5600 N.am      2 ALA2        0.0000 
     22 NZ        -21.4100   35.2700   33.4700 N.4       3 LYS4        0.0000 
     23 NZ        -30.5400   35.5100   41.6700 N.4       3 LYS4        0.0000 
     24 NZ        -30.1200   34.0500   44.6600 N.4       3 LYS4        0.0000 
     25 NZ        -30.1700   35.2300   43.7400 N.4       3 LYS4        0.0000 
     26 NZ        -29.9500   38.5100   43.0600 N.4       3 LYS4        0.0000 
     27 NZ        -31.4700   39.8500   42.4300 N.4       3 LYS4        0.0000 
     28 NZ        -30.0100   39.7000   42.1500 N.4       3 LYS4        0.0000 
     29 NZ        -28.5400   39.5400   41.8600 N.4       3 LYS4        0.0000 
     30 NZ        -28.1700   39.2600   43.9300 N.4       3 LYS4        0.0000 
     31 NZ        -28.2200   40.4400   43.0100 N.4       3 LYS4        0.0000 
     32 CZ        -25.8800   37.1400   41.0500 C.ar      4 PHE5        0.0000 
     33 CZ        -24.4200   36.9800   40.7700 C.ar      4 PHE5        0.0000 
     34 CA        -25.7000   33.3600   36.1600 C.3       5 GLY6        0.0000 
     35 CA        -24.2400   33.2100   35.8700 C.3       5 GLY6        0.0000 
     36 CA        -22.7700   33.0500   35.5800 C.3       5 GLY6        0.0000 
     37 CA        -22.8300   34.2400   34.6700 C.3       5 GLY6        0.0000 
     38 CA        -21.3600   34.0800   34.3800 C.3       5 GLY6        0.0000 
     39 CA        -22.8800   35.4200   33.7500 C.3       5 GLY6        0.0000 
     40 CA        -22.4000   32.7700   37.6500 C.3       5 GLY6        0.0000 
     41 CA        -25.3800   34.2700   37.3100 C.3       5 GLY6        0.0000 
     42 CA        -22.4500   33.9600   36.7400 C.3       5 GLY6        0.0000 
     43 CA        -25.4300   35.4500   36.3900 C.3       5 GLY6        0.0000 
     44 CA        -23.9700   35.3000   36.1100 C.3       5 GLY6        0.0000 
     45 CA        -22.5000   35.1400   35.8200 C.3       5 GLY6        0.0000 
     46 CA        -21.0400   34.9900   35.5400 C.3       5 GLY6        0.0000 
     47 CA        -22.5600   36.3300   34.9100 C.3       5 GLY6        0.0000 
     48 CA        -21.0900   36.1700   34.6200 C.3       5 GLY6        0.0000 
     49 CA        -22.1300   34.8600   37.8900 C.3       5 GLY6        0.0000 
     50 CA        -26.5800   36.5100   37.8300 C.3       5 GLY6        0.0000 
     51 CA        -25.1100   36.3600   37.5500 C.3       5 GLY6        0.0000 
     52 CA        -23.6500   36.2000   37.2600 C.3       5 GLY6        0.0000 
     53 CA        -22.1800   36.0500   36.9700 C.3       5 GLY6        0.0000 
     54 CA        -22.2300   37.2300   36.0600 C.3       5 GLY6        0.0000 
     55 CA        -29.0300   34.1700   42.3000 C.3       5 GLY6        0.0000 
     56 CA        -29.0800   35.3600   41.3900 C.3       5 GLY6        0.0000 
     57 CA        -27.6200   35.2000   41.1000 C.3       5 GLY6        0.0000 
     58 CA        -26.2500   37.4200   38.9800 C.3       5 GLY6        0.0000 
     59 CA        -24.7900   37.2600   38.7000 C.3       5 GLY6        0.0000 
     60 CA        -23.3300   37.1100   38.4100 C.3       5 GLY6        0.0000 
     61 CA        -21.8600   36.9500   38.1300 C.3       5 GLY6        0.0000 
     62 CA        -26.8100   41.4700   41.8100 C.3       5 GLY6        0.0000 
     63 DU        -23.9200   34.1100   37.0200 H         6 CUB7        0.0000 
     64 DU        -25.0100   33.9900   39.3800 H         6 CUB7        0.0000 
     65 DU        -23.5400   33.8300   39.0900 H         6 CUB7        0.0000 
     66 DU        -25.0600   35.1700   38.4600 H         6 CUB7        0.0000 
     67 DU        -23.6000   35.0200   38.1800 H         6 CUB7        0.0000 
     68 DU        -26.1500   35.0500   40.8200 H         6 CUB7        0.0000 
     69 DU        -24.6900   34.8900   40.5300 H         6 CUB7        0.0000 
     70 DU        -30.6000   36.7000   40.7600 H         6 CUB7        0.0000 
     71 DU        -26.2000   36.2300   39.9000 H         6 CUB7        0.0000 
     72 DU        -24.7400   36.0800   39.6100 H         6 CUB7        0.0000 
     73 DU        -28.7100   35.0800   43.4600 H         6 CUB7        0.0000 
     74 DU        -30.2200   36.4200   42.8300 H         6 CUB7        0.0000 
     75 DU        -28.7600   36.2600   42.5400 H         6 CUB7        0.0000 
     76 DU        -25.8300   35.9500   41.9700 H         6 CUB7        0.0000 
     77 DU        -30.2700   37.6100   41.9100 H         6 CUB7        0.0000 
     78 DU        -28.8100   37.4500   41.6200 H         6 CUB7        0.0000 
     79 DU        -27.3500   37.2900   41.3400 H         6 CUB7        0.0000 
     80 DU        -29.8500   36.1400   44.8900 H         6 CUB7        0.0000 
     81 DU        -28.4900   38.3500   42.7800 H         6 CUB7        0.0000 
     82 DU        -27.0200   38.2000   42.4900 H         6 CUB7        0.0000 
@<TRIPOS>BOND
@<TRIPOS>SUBSTRUCTURE
     1 SER1        1 GROUP   
     2 ALA2        4 GROUP   
     3 LYS4       22 GROUP   
     4 PHE5       32 GROUP   
     5 GLY6       34 GROUP   
     6 CUB7       63 GROUP   
@<TRIPOS>SET

