#    Name: 6ecv_1_SAH_CAVITY_N1_6
#    Modification time : Fri May 22 19:29:11 2020

@<TRIPOS>MOLECULE
6ecv_1_SAH_CAVITY_N1_6
   79     0     7     0     0
SMALL
NO_CHARGES


@<TRIPOS>ATOM
      1 OG        -43.2600   69.0700   -2.5600 O.3       1 SER1        0.0000 
      2 OG        -42.9400   69.9800   -1.4100 O.3       1 SER1        0.0000 
      3 OG        -41.4800   69.8200   -1.6900 O.3       1 SER1        0.0000 
      4 N         -44.6200   66.8600   -0.4400 N.am      2 ALA2        0.0000 
      5 O         -44.7300   69.2300   -2.2800 O.2       2 ALA2        0.0000 
      6 O         -47.7100   70.7300   -2.6200 O.2       2 ALA2        0.0000 
      7 N         -47.1800   66.8900    2.2000 N.am      2 ALA2        0.0000 
      8 N         -45.7200   66.7300    1.9100 N.am      2 ALA2        0.0000 
      9 N         -45.3900   67.6300    3.0600 N.am      2 ALA2        0.0000 
     10 N         -48.3700   69.1300    2.7200 N.am      2 ALA2        0.0000 
     11 N         -46.9100   68.9800    2.4300 N.am      2 ALA2        0.0000 
     12 N         -45.4500   68.8200    2.1500 N.am      2 ALA2        0.0000 
     13 N         -45.6500   73.5700   -1.5200 N.am      2 ALA2        0.0000 
     14 N         -44.1900   73.4100   -1.8000 N.am      2 ALA2        0.0000 
     15 N         -49.6700   73.7500    1.4100 N.am      2 ALA2        0.0000 
     16 N         -45.2800   73.2800    0.5500 N.am      2 ALA2        0.0000 
     17 N         -46.3700   73.1600    2.9100 N.am      2 ALA2        0.0000 
     18 OD1       -44.3000   67.7600    0.7100 O.co2     3 ASP3        0.0000 
     19 OD1       -43.9300   67.4800    2.7800 O.co2     3 ASP3        0.0000 
     20 OD1       -43.9800   68.6600    1.8600 O.co2     3 ASP3        0.0000 
     21 OD1       -43.6600   69.5700    3.0200 O.co2     3 ASP3        0.0000 
     22 NZ        -45.1200   69.7200    3.3000 N.4       4 LYS4        0.0000 
     23 NZ        -46.6400   71.0700    2.6700 N.4       4 LYS4        0.0000 
     24 NZ        -47.7800   72.1300    4.1100 N.4       4 LYS4        0.0000 
     25 NZ        -46.3200   71.9700    3.8200 N.4       4 LYS4        0.0000 
     26 CZ        -46.2400   70.5700   -2.9100 C.ar      5 PHE5        0.0000 
     27 CZ        -44.7800   70.4200   -3.1900 C.ar      5 PHE5        0.0000 
     28 CZ        -47.7600   71.9200   -3.5400 C.ar      5 PHE5        0.0000 
     29 CZ        -45.9700   72.6600   -2.6700 C.ar      5 PHE5        0.0000 
     30 CZ        -51.3500   70.6300    2.3700 C.ar      5 PHE5        0.0000 
     31 CZ        -49.8900   70.4800    2.0900 C.ar      5 PHE5        0.0000 
     32 CA        -47.5500   67.1700    0.1300 C.3       6 GLY6        0.0000 
     33 CA        -46.0900   67.0100   -0.1600 C.3       6 GLY6        0.0000 
     34 CA        -47.6000   68.3600   -0.7900 C.3       6 GLY6        0.0000 
     35 CA        -46.1400   68.2000   -1.0700 C.3       6 GLY6        0.0000 
     36 CA        -44.6800   68.0400   -1.3600 C.3       6 GLY6        0.0000 
     37 CA        -47.6600   69.5400   -1.7000 C.3       6 GLY6        0.0000 
     38 CA        -46.1900   69.3900   -1.9900 C.3       6 GLY6        0.0000 
     39 CA        -43.3200   70.2600   -3.4800 C.3       6 GLY6        0.0000 
     40 CA        -44.4600   71.3200   -2.0400 C.3       6 GLY6        0.0000 
     41 CA        -42.9900   71.1600   -2.3200 C.3       6 GLY6        0.0000 
     42 CA        -44.5100   72.5100   -2.9500 C.3       6 GLY6        0.0000 
     43 CA        -44.0300   69.8500    0.9500 C.3       6 GLY6        0.0000 
     44 CA        -42.5700   69.6900    0.6600 C.3       6 GLY6        0.0000 
     45 CA        -44.0900   71.0400    0.0300 C.3       6 GLY6        0.0000 
     46 CA        -42.6200   70.8800   -0.2500 C.3       6 GLY6        0.0000 
     47 CA        -44.1400   72.2200   -0.8900 C.3       6 GLY6        0.0000 
     48 CA        -42.6700   72.0700   -1.1700 C.3       6 GLY6        0.0000 
     49 CA        -45.1800   70.9100    2.3900 C.3       6 GLY6        0.0000 
     50 CA        -43.7100   70.7600    2.1000 C.3       6 GLY6        0.0000 
     51 CA        -45.2300   72.1000    1.4700 C.3       6 GLY6        0.0000 
     52 CA        -43.8200   73.1300    0.2700 C.3       6 GLY6        0.0000 
     53 CA        -49.3000   73.4700    3.4800 C.3       6 GLY6        0.0000 
     54 CA        -44.9100   73.0000    2.6200 C.3       6 GLY6        0.0000 
     55 DU        -47.2300   68.0700    1.2800 H         7 CUB7        0.0000 
     56 DU        -45.7700   67.9200    1.0000 H         7 CUB7        0.0000 
     57 DU        -50.2100   69.5700    0.9400 H         7 CUB7        0.0000 
     58 DU        -48.7500   69.4200    0.6500 H         7 CUB7        0.0000 
     59 DU        -47.2800   69.2600    0.3600 H         7 CUB7        0.0000 
     60 DU        -45.8200   69.1000    0.0800 H         7 CUB7        0.0000 
     61 DU        -44.3500   68.9500   -0.2100 H         7 CUB7        0.0000 
     62 DU        -42.8900   68.7900   -0.4900 H         7 CUB7        0.0000 
     63 DU        -48.8000   70.6000   -0.2700 H         7 CUB7        0.0000 
     64 DU        -47.3400   70.4500   -0.5500 H         7 CUB7        0.0000 
     65 DU        -45.8700   70.2900   -0.8400 H         7 CUB7        0.0000 
     66 DU        -44.4100   70.1300   -1.1200 H         7 CUB7        0.0000 
     67 DU        -47.3900   71.6300   -1.4700 H         7 CUB7        0.0000 
     68 DU        -45.9200   71.4800   -1.7500 H         7 CUB7        0.0000 
     69 DU        -48.4300   70.3200    1.8000 H         7 CUB7        0.0000 
     70 DU        -45.5000   70.0100    1.2300 H         7 CUB7        0.0000 
     71 DU        -45.5500   71.1900    0.3200 H         7 CUB7        0.0000 
     72 DU        -45.6000   72.3800   -0.6000 H         7 CUB7        0.0000 
     73 DU        -47.1200   73.7200   -1.2300 H         7 CUB7        0.0000 
     74 DU        -48.1100   71.2200    2.9600 H         7 CUB7        0.0000 
     75 DU        -49.6200   72.5700    2.3300 H         7 CUB7        0.0000 
     76 DU        -46.6900   72.2500    1.7500 H         7 CUB7        0.0000 
     77 DU        -48.2100   73.6000    1.1200 H         7 CUB7        0.0000 
     78 DU        -46.7400   73.4400    0.8400 H         7 CUB7        0.0000 
     79 DU        -47.8400   73.3100    3.1900 H         7 CUB7        0.0000 
@<TRIPOS>BOND
@<TRIPOS>SUBSTRUCTURE
     1 SER1        1 GROUP   
     2 ALA2        4 GROUP   
     3 ASP3       18 GROUP   
     4 LYS4       22 GROUP   
     5 PHE5       26 GROUP   
     6 GLY6       32 GROUP   
     7 CUB7       55 GROUP   
@<TRIPOS>SET

