#    Name: 6ecv_2_SAH
#    Modification time : Fri May 22 19:29:14 2020

@<TRIPOS>MOLECULE
6ecv_2_SAH
   26    28     1     0     0
SMALL
NO_CHARGES


@<TRIPOS>ATOM
      1 N         -30.1890   37.8230   39.3770 N.4       1 SAH1300     0.0000 
      2 CA        -29.7980   36.5340   39.9340 C.3       1 SAH1300     0.0000 
      3 CB        -28.7070   36.7030   40.9940 C.3       1 SAH1300     0.0000 
      4 CG        -27.7580   37.8890   40.8130 C.3       1 SAH1300     0.0000 
      5 SD        -26.1790   37.5250   39.9820 S.3       1 SAH1300     0.0000 
      6 C         -31.0000   35.8040   40.5250 C.2       1 SAH1300     0.0000 
      7 O         -32.1520   36.1490   40.2550 O.co2     1 SAH1300     0.0000 
      8 OXT       -30.8460   34.8460   41.2830 O.co2     1 SAH1300     0.0000 
      9 C5'       -26.1690   35.7960   40.5170 C.3       1 SAH1300     0.0000 
     10 C4'       -26.3010   34.8120   39.3630 C.3       1 SAH1300     0.0000 
     11 O4'       -25.6580   35.3050   38.1960 O.3       1 SAH1300     0.0000 
     12 C3'       -25.6410   33.4910   39.7240 C.3       1 SAH1300     0.0000 
     13 O3'       -26.4600   32.4550   39.2370 O.3       1 SAH1300     0.0000 
     14 C2'       -24.3480   33.5090   38.9370 C.3       1 SAH1300     0.0000 
     15 O2'       -23.8880   32.2200   38.5980 O.3       1 SAH1300     0.0000 
     16 C1'       -24.8000   34.2960   37.7140 C.3       1 SAH1300     0.0000 
     17 N9        -23.6740   34.8090   36.9240 N.pl3     1 SAH1300     0.0000 
     18 C8        -22.7500   35.7660   37.2520 C.2       1 SAH1300     0.0000 
     19 N7        -21.8980   35.8960   36.2070 N.2       1 SAH1300     0.0000 
     20 C5        -22.2650   35.0270   35.2300 C.ar      1 SAH1300     0.0000 
     21 C6        -21.7660   34.7410   33.9640 C.ar      1 SAH1300     0.0000 
     22 N6        -20.6940   35.3740   33.4770 N.pl3     1 SAH1300     0.0000 
     23 N1        -22.3940   33.7730   33.2010 N.ar      1 SAH1300     0.0000 
     24 C2        -23.5080   33.1080   33.6670 C.ar      1 SAH1300     0.0000 
     25 N3        -24.0010   33.4100   34.9200 N.ar      1 SAH1300     0.0000 
     26 C4        -23.3840   34.3440   35.6770 C.ar      1 SAH1300     0.0000 
@<TRIPOS>BOND
     1    1    2 1    
     2    2    3 1    
     3    2    6 1    
     4    3    4 1    
     5    4    5 1    
     6    5    9 1    
     7    6    7 ar   
     8    6    8 ar   
     9    9   10 1    
    10   10   11 1    
    11   10   12 1    
    12   11   16 1    
    13   12   13 1    
    14   12   14 1    
    15   14   15 1    
    16   14   16 1    
    17   16   17 1    
    18   17   18 1    
    19   17   26 1    
    20   18   19 2    
    21   19   20 1    
    22   20   21 ar   
    23   20   26 ar   
    24   21   22 1    
    25   21   23 ar   
    26   23   24 ar   
    27   24   25 ar   
    28   25   26 ar   
@<TRIPOS>SUBSTRUCTURE
     1 SAH1300     1 GROUP   
@<TRIPOS>SET

