#    Name: 6fzi_1_NAD
#    Modification time : Fri May 22 19:26:43 2020

@<TRIPOS>MOLECULE
6fzi_1_NAD
   44    48     1     0     1
SMALL
NO_CHARGES


@<TRIPOS>ATOM
      1 PA         -4.6360  -11.7090   16.3440 P.3       1 NAD401      0.0000 
      2 O1A        -3.4830  -12.5880   16.5770 O.co2     1 NAD401      0.0000 
      3 O2A        -4.7830  -10.5140   17.1960 O.co2     1 NAD401      0.0000 
      4 O5B        -5.9990  -12.5030   16.3360 O.3       1 NAD401      0.0000 
      5 C5B        -6.0000  -13.9150   16.2100 C.3       1 NAD401      0.0000 
      6 C4B        -7.0420  -14.5440   17.1060 C.3       1 NAD401      0.0000 
      7 O4B        -7.5600  -15.7270   16.4960 O.3       1 NAD401      0.0000 
      8 C3B        -6.3950  -14.9530   18.4090 C.3       1 NAD401      0.0000 
      9 O3B        -7.3190  -14.6630   19.4620 O.3       1 NAD401      0.0000 
     10 C2B        -6.2840  -16.4540   18.3050 C.3       1 NAD401      0.0000 
     11 O2B        -6.2270  -17.0820   19.5930 O.3       1 NAD401      0.0000 
     12 C1B        -7.5020  -16.7890   17.4570 C.3       1 NAD401      0.0000 
     13 N9A        -7.3390  -18.1150   16.8170 N.pl3     1 NAD401      0.0000 
     14 C8A        -6.1970  -18.6190   16.3170 C.2       1 NAD401      0.0000 
     15 N7A        -6.3860  -19.8680   15.8270 N.2       1 NAD401      0.0000 
     16 C5A        -7.6770  -20.1860   16.0280 C.ar      1 NAD401      0.0000 
     17 C6A        -8.5410  -21.3500   15.7490 C.ar      1 NAD401      0.0000 
     18 N6A        -8.0580  -22.4620   15.1490 N.pl3     1 NAD401      0.0000 
     19 N1A        -9.8320  -21.2570   16.1210 N.ar      1 NAD401      0.0000 
     20 C2A       -10.3280  -20.1660   16.7290 C.ar      1 NAD401      0.0000 
     21 N3A        -9.6020  -19.0820   17.0110 N.ar      1 NAD401      0.0000 
     22 C4A        -8.2940  -19.0350   16.7020 C.ar      1 NAD401      0.0000 
     23 O3         -4.4990  -11.1780   14.8510 O.3       1 NAD401      0.0000 
     24 PN         -5.3840  -10.0810   14.0860 P.3       1 NAD401      0.0000 
     25 O1N        -4.4360   -8.9220   13.9850 O.co2     1 NAD401      0.0000 
     26 O2N        -6.7430   -9.8490   14.6620 O.co2     1 NAD401      0.0000 
     27 O5D        -5.5720  -10.8010   12.6640 O.3       1 NAD401      0.0000 
     28 C5D        -6.6650  -11.6540   12.3200 C.3       1 NAD401      0.0000 
     29 C4D        -6.8340  -11.6400   10.8090 C.3       1 NAD401      0.0000 
     30 O4D        -7.1410  -10.3130   10.3900 O.3       1 NAD401      0.0000 
     31 C3D        -5.5220  -12.0300   10.1260 C.3       1 NAD401      0.0000 
     32 O3D        -5.7310  -12.8360    8.9610 O.3       1 NAD401      0.0000 
     33 C2D        -4.9540  -10.7210    9.6530 C.3       1 NAD401      0.0000 
     34 O2D        -4.1540  -10.9520    8.4960 O.3       1 NAD401      0.0000 
     35 C1D        -6.2130   -9.9220    9.3650 C.3       1 NAD401      0.0000 
     36 N1N        -5.9730   -8.4740    9.3910 N.pl3     1 NAD401      0.0000 
     37 C2N        -5.2950   -7.9230   10.4150 C.ar      1 NAD401      0.0000 
     38 C3N        -5.0600   -6.5490   10.4670 C.ar      1 NAD401      0.0000 
     39 C7N        -4.2920   -5.9450   11.6150 C.2       1 NAD401      0.0000 
     40 O7N        -3.7120   -4.8770   11.4690 O.2       1 NAD401      0.0000 
     41 N7N        -4.2400   -6.5980   12.7740 N.am      1 NAD401      0.0000 
     42 C4N        -5.5270   -5.7470    9.4310 C.ar      1 NAD401      0.0000 
     43 C5N        -6.2280   -6.3330    8.3840 C.ar      1 NAD401      0.0000 
     44 C6N        -6.4400   -7.7110    8.3910 C.ar      1 NAD401      0.0000 
@<TRIPOS>BOND
     1    1    2 ar   
     2    1    3 ar   
     3    1    4 1    
     4    1   23 1    
     5    4    5 1    
     6    5    6 1    
     7    6    7 1    
     8    6    8 1    
     9    7   12 1    
    10    8    9 1    
    11    8   10 1    
    12   10   11 1    
    13   10   12 1    
    14   12   13 1    
    15   13   14 1    
    16   13   22 1    
    17   14   15 2    
    18   15   16 1    
    19   16   17 ar   
    20   16   22 ar   
    21   17   18 1    
    22   17   19 ar   
    23   19   20 ar   
    24   20   21 ar   
    25   21   22 ar   
    26   23   24 1    
    27   24   25 ar   
    28   24   26 ar   
    29   24   27 1    
    30   27   28 1    
    31   28   29 1    
    32   29   30 1    
    33   29   31 1    
    34   30   35 1    
    35   31   32 1    
    36   31   33 1    
    37   33   34 1    
    38   33   35 1    
    39   35   36 1    
    40   36   37 ar   
    41   36   44 ar   
    42   37   38 ar   
    43   38   39 1    
    44   38   42 ar   
    45   39   40 2    
    46   39   41 am   
    47   42   43 ar   
    48   43   44 ar   
@<TRIPOS>SUBSTRUCTURE
     1 NAD401      1 GROUP   
@<TRIPOS>SET
ATOM$ORANGE STATIC     ATOMS   COLORGROUP SYSTEM 
42 5 5 6 6 8 8 10 10 12 12 14 14 16 16 17 17 20 \
20 22 22 28 28 29 29 31 31 33 33 35 35 37 37 38 38 39 \
39 42 42 43 43 44 44 

