#    Name: 6fzi_2_NAD
#    Modification time : Fri May 22 19:26:55 2020

@<TRIPOS>MOLECULE
6fzi_2_NAD
   44    48     1     0     1
SMALL
NO_CHARGES


@<TRIPOS>ATOM
      1 PA         12.7890  -17.6090   24.6490 P.3       1 NAD401      0.0000 
      2 O1A        11.3410  -17.8260   24.3640 O.co2     1 NAD401      0.0000 
      3 O2A        13.5700  -16.5430   23.9250 O.co2     1 NAD401      0.0000 
      4 O5B        13.5260  -19.0070   24.4200 O.3       1 NAD401      0.0000 
      5 C5B        12.7500  -20.1770   24.2140 C.3       1 NAD401      0.0000 
      6 C4B        13.4070  -21.0630   23.1790 C.3       1 NAD401      0.0000 
      7 O4B        13.0700  -22.4010   23.5120 O.3       1 NAD401      0.0000 
      8 C3B        12.8790  -20.7950   21.7740 C.3       1 NAD401      0.0000 
      9 O3B        13.9980  -20.7850   20.8660 O.3       1 NAD401      0.0000 
     10 C2B        11.9410  -21.9640   21.5180 C.3       1 NAD401      0.0000 
     11 O2B        11.7980  -22.2930   20.1370 O.3       1 NAD401      0.0000 
     12 C1B        12.6000  -23.0580   22.3330 C.3       1 NAD401      0.0000 
     13 N9A        11.7110  -24.1670   22.7420 N.pl3     1 NAD401      0.0000 
     14 C8A        10.4890  -24.1270   23.2890 C.2       1 NAD401      0.0000 
     15 N7A        10.0500  -25.3930   23.5340 N.2       1 NAD401      0.0000 
     16 C5A        11.0100  -26.2600   23.1430 C.ar      1 NAD401      0.0000 
     17 C6A        11.2210  -27.7310   23.1020 C.ar      1 NAD401      0.0000 
     18 N6A        10.2830  -28.5970   23.5350 N.pl3     1 NAD401      0.0000 
     19 N1A        12.3900  -28.1990   22.6050 N.ar      1 NAD401      0.0000 
     20 C2A        13.3470  -27.3670   22.1410 C.ar      1 NAD401      0.0000 
     21 N3A        13.2320  -26.0250   22.1400 N.ar      1 NAD401      0.0000 
     22 C4A        12.1080  -25.4350   22.6260 C.ar      1 NAD401      0.0000 
     23 O3         12.8940  -17.3860   26.2500 O.3       1 NAD401      0.0000 
     24 PN         14.2010  -17.1350   27.1350 P.3       1 NAD401      0.0000 
     25 O1N        14.0540  -15.7480   27.6430 O.co2     1 NAD401      0.0000 
     26 O2N        15.4830  -17.5370   26.4730 O.co2     1 NAD401      0.0000 
     27 O5D        13.8480  -18.1090   28.3440 O.3       1 NAD401      0.0000 
     28 C5D        14.2130  -19.4850   28.4790 C.3       1 NAD401      0.0000 
     29 C4D        14.2410  -19.8570   29.9620 C.3       1 NAD401      0.0000 
     30 O4D        15.2120  -19.0320   30.6050 O.3       1 NAD401      0.0000 
     31 C3D        12.9190  -19.5800   30.6720 C.3       1 NAD401      0.0000 
     32 O3D        12.6760  -20.6770   31.5770 O.3       1 NAD401      0.0000 
     33 C2D        13.1410  -18.2780   31.4290 C.3       1 NAD401      0.0000 
     34 O2D        12.3210  -18.1960   32.5850 O.3       1 NAD401      0.0000 
     35 C1D        14.6260  -18.3650   31.7400 C.3       1 NAD401      0.0000 
     36 N1N        15.2740  -17.0590   31.9740 N.pl3     1 NAD401      0.0000 
     37 C2N        14.9760  -15.9920   31.1910 C.ar      1 NAD401      0.0000 
     38 C3N        15.5970  -14.7540   31.4080 C.ar      1 NAD401      0.0000 
     39 C7N        15.2900  -13.5620   30.5450 C.2       1 NAD401      0.0000 
     40 O7N        15.4550  -12.4310   30.9820 O.2       1 NAD401      0.0000 
     41 N7N        14.8810  -13.7660   29.3010 N.am      1 NAD401      0.0000 
     42 C4N        16.5120  -14.6170   32.4590 C.ar      1 NAD401      0.0000 
     43 C5N        16.8030  -15.7290   33.2470 C.ar      1 NAD401      0.0000 
     44 C6N        16.1550  -16.9390   32.9870 C.ar      1 NAD401      0.0000 
@<TRIPOS>BOND
     1    1    2 ar   
     2    1    3 ar   
     3    1    4 1    
     4    1   23 1    
     5    4    5 1    
     6    5    6 1    
     7    6    7 1    
     8    6    8 1    
     9    7   12 1    
    10    8    9 1    
    11    8   10 1    
    12   10   11 1    
    13   10   12 1    
    14   12   13 1    
    15   13   14 1    
    16   13   22 1    
    17   14   15 2    
    18   15   16 1    
    19   16   17 ar   
    20   16   22 ar   
    21   17   18 1    
    22   17   19 ar   
    23   19   20 ar   
    24   20   21 ar   
    25   21   22 ar   
    26   23   24 1    
    27   24   25 ar   
    28   24   26 ar   
    29   24   27 1    
    30   27   28 1    
    31   28   29 1    
    32   29   30 1    
    33   29   31 1    
    34   30   35 1    
    35   31   32 1    
    36   31   33 1    
    37   33   34 1    
    38   33   35 1    
    39   35   36 1    
    40   36   37 ar   
    41   36   44 ar   
    42   37   38 ar   
    43   38   39 1    
    44   38   42 ar   
    45   39   40 2    
    46   39   41 am   
    47   42   43 ar   
    48   43   44 ar   
@<TRIPOS>SUBSTRUCTURE
     1 NAD401      1 GROUP   
@<TRIPOS>SET
ATOM$ORANGE STATIC     ATOMS   COLORGROUP SYSTEM 
42 5 5 6 6 8 8 10 10 12 12 14 14 16 16 17 17 20 \
20 22 22 28 28 29 29 31 31 33 33 35 35 37 37 38 38 39 \
39 42 42 43 43 44 44 

