#    Name: 6fzi_4_NAD
#    Modification time : Fri May 22 19:27:17 2020

@<TRIPOS>MOLECULE
6fzi_4_NAD
   44    48     1     0     1
SMALL
NO_CHARGES


@<TRIPOS>ATOM
      1 PA          5.0000   21.1350   29.0690 P.3       1 NAD401      0.0000 
      2 O1A         6.4940   21.2750   28.8470 O.co2     1 NAD401      0.0000 
      3 O2A         4.1340   20.3780   28.0900 O.co2     1 NAD401      0.0000 
      4 O5B         4.2650   22.5610   29.2280 O.3       1 NAD401      0.0000 
      5 C5B         5.0100   23.7630   29.3320 C.3       1 NAD401      0.0000 
      6 C4B         4.3350   24.7980   28.4420 C.3       1 NAD401      0.0000 
      7 O4B         4.5660   26.0820   29.0030 O.3       1 NAD401      0.0000 
      8 C3B         4.9630   24.8150   27.0480 C.3       1 NAD401      0.0000 
      9 O3B         3.9290   24.8080   26.0510 O.3       1 NAD401      0.0000 
     10 C2B         5.8050   26.0830   27.0160 C.3       1 NAD401      0.0000 
     11 O2B         5.8590   26.6440   25.6960 O.3       1 NAD401      0.0000 
     12 C1B         5.0360   26.9700   27.9860 C.3       1 NAD401      0.0000 
     13 N9A         5.8520   28.0280   28.6250 N.pl3     1 NAD401      0.0000 
     14 C8A         7.0720   27.8490   29.1640 C.2       1 NAD401      0.0000 
     15 N7A         7.5490   29.0100   29.6810 N.2       1 NAD401      0.0000 
     16 C5A         6.6090   29.9570   29.4980 C.ar      1 NAD401      0.0000 
     17 C6A         6.4720   31.3980   29.8180 C.ar      1 NAD401      0.0000 
     18 N6A         7.4600   32.0750   30.4520 N.pl3     1 NAD401      0.0000 
     19 N1A         5.3270   32.0150   29.4520 N.ar      1 NAD401      0.0000 
     20 C2A         4.3350   31.3590   28.8170 C.ar      1 NAD401      0.0000 
     21 N3A         4.3910   30.0510   28.4910 N.ar      1 NAD401      0.0000 
     22 C4A         5.4850   29.3040   28.8020 C.ar      1 NAD401      0.0000 
     23 O3          4.9000   20.5670   30.5730 O.3       1 NAD401      0.0000 
     24 PN          3.6060   20.1190   31.4150 P.3       1 NAD401      0.0000 
     25 O1N         3.8710   18.6350   31.5730 O.co2     1 NAD401      0.0000 
     26 O2N         2.2960   20.5920   30.8230 O.co2     1 NAD401      0.0000 
     27 O5D         3.9080   20.8240   32.8320 O.3       1 NAD401      0.0000 
     28 C5D         3.4660   22.1190   33.2580 C.3       1 NAD401      0.0000 
     29 C4D         3.4380   22.1600   34.7890 C.3       1 NAD401      0.0000 
     30 O4D         2.5100   21.1810   35.2650 O.3       1 NAD401      0.0000 
     31 C3D         4.8040   21.7800   35.3430 C.3       1 NAD401      0.0000 
     32 O3D         5.1590   22.5380   36.5160 O.3       1 NAD401      0.0000 
     33 C2D         4.5970   20.3400   35.7600 C.3       1 NAD401      0.0000 
     34 O2D         5.5100   19.9000   36.7550 O.3       1 NAD401      0.0000 
     35 C1D         3.1530   20.3340   36.2130 C.3       1 NAD401      0.0000 
     36 N1N         2.6010   18.9740   36.2180 N.pl3     1 NAD401      0.0000 
     37 C2N         2.7950   18.1540   35.1760 C.ar      1 NAD401      0.0000 
     38 C3N         2.2690   16.8640   35.1940 C.ar      1 NAD401      0.0000 
     39 C7N         2.4990   15.9410   34.0340 C.2       1 NAD401      0.0000 
     40 O7N         2.5130   14.7300   34.2300 O.2       1 NAD401      0.0000 
     41 N7N         2.6520   16.4850   32.8260 N.am      1 NAD401      0.0000 
     42 C4N         1.5730   16.4110   36.3130 C.ar      1 NAD401      0.0000 
     43 C5N         1.3890   17.2790   37.3770 C.ar      1 NAD401      0.0000 
     44 C6N         1.9250   18.5610   37.3070 C.ar      1 NAD401      0.0000 
@<TRIPOS>BOND
     1    1    2 ar   
     2    1    3 ar   
     3    1    4 1    
     4    1   23 1    
     5    4    5 1    
     6    5    6 1    
     7    6    7 1    
     8    6    8 1    
     9    7   12 1    
    10    8    9 1    
    11    8   10 1    
    12   10   11 1    
    13   10   12 1    
    14   12   13 1    
    15   13   14 1    
    16   13   22 1    
    17   14   15 2    
    18   15   16 1    
    19   16   17 ar   
    20   16   22 ar   
    21   17   18 1    
    22   17   19 ar   
    23   19   20 ar   
    24   20   21 ar   
    25   21   22 ar   
    26   23   24 1    
    27   24   25 ar   
    28   24   26 ar   
    29   24   27 1    
    30   27   28 1    
    31   28   29 1    
    32   29   30 1    
    33   29   31 1    
    34   30   35 1    
    35   31   32 1    
    36   31   33 1    
    37   33   34 1    
    38   33   35 1    
    39   35   36 1    
    40   36   37 ar   
    41   36   44 ar   
    42   37   38 ar   
    43   38   39 1    
    44   38   42 ar   
    45   39   40 2    
    46   39   41 am   
    47   42   43 ar   
    48   43   44 ar   
@<TRIPOS>SUBSTRUCTURE
     1 NAD401      1 GROUP   
@<TRIPOS>SET
ATOM$ORANGE STATIC     ATOMS   COLORGROUP SYSTEM 
42 5 5 6 6 8 8 10 10 12 12 14 14 16 16 17 17 20 \
20 22 22 28 28 29 29 31 31 33 33 35 35 37 37 38 38 39 \
39 42 42 43 43 44 44 

