#    Name: 6fzi_3_NAD
#    Modification time : Fri May 22 19:27:06 2020

@<TRIPOS>MOLECULE
6fzi_3_NAD
   44    48     1     0     1
SMALL
NO_CHARGES


@<TRIPOS>ATOM
      1 PA         22.8190   16.9500   19.5830 P.3       1 NAD401      0.0000 
      2 O1A        21.6040   17.7650   19.9650 O.co2     1 NAD401      0.0000 
      3 O2A        23.0370   15.6140   20.2540 O.co2     1 NAD401      0.0000 
      4 O5B        24.1750   17.8150   19.7240 O.3       1 NAD401      0.0000 
      5 C5B        24.1380   19.2170   19.9480 C.3       1 NAD401      0.0000 
      6 C4B        25.2000   19.5870   20.9690 C.3       1 NAD401      0.0000 
      7 O4B        25.7160   20.8750   20.6260 O.3       1 NAD401      0.0000 
      8 C3B        24.6430   19.6910   22.3900 C.3       1 NAD401      0.0000 
      9 O3B        25.5170   19.0350   23.3120 O.3       1 NAD401      0.0000 
     10 C2B        24.6080   21.1770   22.6710 C.3       1 NAD401      0.0000 
     11 O2B        24.9510   21.4370   24.0300 O.3       1 NAD401      0.0000 
     12 C1B        25.7440   21.6740   21.8030 C.3       1 NAD401      0.0000 
     13 N9A        25.5690   23.0930   21.4400 N.pl3     1 NAD401      0.0000 
     14 C8A        24.4160   23.6710   21.0550 C.2       1 NAD401      0.0000 
     15 N7A        24.6210   24.9810   20.7870 N.2       1 NAD401      0.0000 
     16 C5A        25.9250   25.2540   21.0040 C.ar      1 NAD401      0.0000 
     17 C6A        26.7950   26.4490   20.9200 C.ar      1 NAD401      0.0000 
     18 N6A        26.3050   27.6560   20.5380 N.pl3     1 NAD401      0.0000 
     19 N1A        28.0930   26.2920   21.2430 N.ar      1 NAD401      0.0000 
     20 C2A        28.5920   25.1060   21.6330 C.ar      1 NAD401      0.0000 
     21 N3A        27.8680   23.9810   21.7270 N.ar      1 NAD401      0.0000 
     22 C4A        26.5460   23.9990   21.4410 C.ar      1 NAD401      0.0000 
     23 O3         22.6760   16.7570   17.9860 O.3       1 NAD401      0.0000 
     24 PN         23.6400   15.9400   16.9840 P.3       1 NAD401      0.0000 
     25 O1N        22.8760   14.7160   16.5380 O.co2     1 NAD401      0.0000 
     26 O2N        25.0450   15.7970   17.5340 O.co2     1 NAD401      0.0000 
     27 O5D        23.7130   16.9720   15.7480 O.3       1 NAD401      0.0000 
     28 C5D        24.7770   17.9050   15.6730 C.3       1 NAD401      0.0000 
     29 C4D        24.9890   18.2370   14.2070 C.3       1 NAD401      0.0000 
     30 O4D        25.2940   17.0160   13.5050 O.3       1 NAD401      0.0000 
     31 C3D        23.7210   18.7880   13.5690 C.3       1 NAD401      0.0000 
     32 O3D        24.0460   19.9400   12.7730 O.3       1 NAD401      0.0000 
     33 C2D        23.1710   17.6340   12.7410 C.3       1 NAD401      0.0000 
     34 O2D        22.5410   18.1110   11.5470 O.3       1 NAD401      0.0000 
     35 C1D        24.4220   16.8570   12.3660 C.3       1 NAD401      0.0000 
     36 N1N        24.1360   15.4490   12.0190 N.pl3     1 NAD401      0.0000 
     37 C2N        23.4310   14.6490   12.8370 C.ar      1 NAD401      0.0000 
     38 C3N        23.1780   13.3250   12.4830 C.ar      1 NAD401      0.0000 
     39 C7N        22.4000   12.4400   13.4080 C.2       1 NAD401      0.0000 
     40 O7N        21.8400   11.4370   12.9720 O.2       1 NAD401      0.0000 
     41 N7N        22.3510   12.7890   14.6910 N.am      1 NAD401      0.0000 
     42 C4N        23.6620   12.8130   11.2840 C.ar      1 NAD401      0.0000 
     43 C5N        24.3920   13.6510   10.4620 C.ar      1 NAD401      0.0000 
     44 C6N        24.6250   14.9660   10.8590 C.ar      1 NAD401      0.0000 
@<TRIPOS>BOND
     1    1    2 ar   
     2    1    3 ar   
     3    1    4 1    
     4    1   23 1    
     5    4    5 1    
     6    5    6 1    
     7    6    7 1    
     8    6    8 1    
     9    7   12 1    
    10    8    9 1    
    11    8   10 1    
    12   10   11 1    
    13   10   12 1    
    14   12   13 1    
    15   13   14 1    
    16   13   22 1    
    17   14   15 2    
    18   15   16 1    
    19   16   17 ar   
    20   16   22 ar   
    21   17   18 1    
    22   17   19 ar   
    23   19   20 ar   
    24   20   21 ar   
    25   21   22 ar   
    26   23   24 1    
    27   24   25 ar   
    28   24   26 ar   
    29   24   27 1    
    30   27   28 1    
    31   28   29 1    
    32   29   30 1    
    33   29   31 1    
    34   30   35 1    
    35   31   32 1    
    36   31   33 1    
    37   33   34 1    
    38   33   35 1    
    39   35   36 1    
    40   36   37 ar   
    41   36   44 ar   
    42   37   38 ar   
    43   38   39 1    
    44   38   42 ar   
    45   39   40 2    
    46   39   41 am   
    47   42   43 ar   
    48   43   44 ar   
@<TRIPOS>SUBSTRUCTURE
     1 NAD401      1 GROUP   
@<TRIPOS>SET
ATOM$ORANGE STATIC     ATOMS   COLORGROUP SYSTEM 
42 5 5 6 6 8 8 10 10 12 12 14 14 16 16 17 17 20 \
20 22 22 28 28 29 29 31 31 33 33 35 35 37 37 38 38 39 \
39 42 42 43 43 44 44 

