#    Name: 6j1g_1_COA
#    Modification time : Fri May 22 19:33:18 2020

@<TRIPOS>MOLECULE
6j1g_1_COA
   48    50     1     0     1
SMALL
NO_CHARGES


@<TRIPOS>ATOM
      1 N1A        56.8890    9.7740   75.4910 N.ar      1 COA601      0.0000 
      2 C2A        57.4120    8.5240   75.7320 C.ar      1 COA601      0.0000 
      3 N3A        56.8680    7.4100   75.1220 N.ar      1 COA601      0.0000 
      4 C4A        55.7800    7.5410   74.2740 C.ar      1 COA601      0.0000 
      5 C5A        55.2740    8.7760   74.0430 C.ar      1 COA601      0.0000 
      6 C6A        55.8440    9.9100   74.6650 C.ar      1 COA601      0.0000 
      7 N6A        55.4690   11.2830   74.5520 N.pl3     1 COA601      0.0000 
      8 N7A        54.2340    8.6460   73.1960 N.2       1 COA601      0.0000 
      9 C8A        54.0940    7.3420   72.8980 C.2       1 COA601      0.0000 
     10 N9A        55.0350    6.6400   73.5560 N.pl3     1 COA601      0.0000 
     11 C1B        55.2410    5.2030   73.5520 C.3       1 COA601      0.0000 
     12 C2B        54.4720    4.5960   74.4540 C.3       1 COA601      0.0000 
     13 O2B        55.1030    4.5040   75.7450 O.3       1 COA601      0.0000 
     14 C3B        54.2670    3.1490   73.9250 C.3       1 COA601      0.0000 
     15 O3B        55.2280    2.3980   74.4960 O.3       1 COA601      0.0000 
     16 P3B        55.3600    0.7090   74.3640 P.3       1 COA601      0.0000 
     17 O7A        55.0880    0.2870   72.9320 O.co2     1 COA601      0.0000 
     18 O8A        56.8080    0.3690   74.8090 O.co2     1 COA601      0.0000 
     19 O9A        54.3790    0.0030   75.2680 O.co2     1 COA601      0.0000 
     20 C4B        54.4230    3.2890   72.3600 C.3       1 COA601      0.0000 
     21 O4B        54.7620    4.5380   72.1220 O.3       1 COA601      0.0000 
     22 C5B        53.0860    3.0370   71.6940 C.3       1 COA601      0.0000 
     23 O5B        52.2850    4.1480   71.9990 O.3       1 COA601      0.0000 
     24 P1A        50.7560    3.9440   72.6370 P.3       1 COA601      0.0000 
     25 O1A        50.5940    4.7570   73.9000 O.co2     1 COA601      0.0000 
     26 O2A        50.3990    2.5040   72.8970 O.co2     1 COA601      0.0000 
     27 O3A        49.7990    4.5330   71.4180 O.3       1 COA601      0.0000 
     28 P2A        48.1340    4.8340   71.4790 P.3       1 COA601      0.0000 
     29 O4A        47.5680    4.7170   70.0680 O.co2     1 COA601      0.0000 
     30 O5A        47.4540    3.8500   72.4070 O.co2     1 COA601      0.0000 
     31 O6A        47.9540    6.3910   72.0360 O.3       1 COA601      0.0000 
     32 CBP        48.6540    8.6260   72.4310 C.3       1 COA601      0.0000 
     33 CCP        48.6520    7.4690   71.4240 C.3       1 COA601      0.0000 
     34 CDP        49.1570    9.8870   71.7940 C.3       1 COA601      0.0000 
     35 CEP        47.2320    8.8660   72.8790 C.3       1 COA601      0.0000 
     36 CAP        49.5000    8.1100   73.6400 C.3       1 COA601      0.0000 
     37 OAP        50.6020    7.4280   73.1820 O.3       1 COA601      0.0000 
     38 C9P        49.9560    9.1920   74.6770 C.2       1 COA601      0.0000 
     39 O9P        49.1980    9.5660   75.5580 O.2       1 COA601      0.0000 
     40 N8P        51.3810    9.7210   74.5900 N.am      1 COA601      0.0000 
     41 C7P        51.8980   10.7540   75.5700 C.3       1 COA601      0.0000 
     42 C6P        52.1460   12.0740   74.8260 C.3       1 COA601      0.0000 
     43 C5P        52.4510   13.1460   75.8870 C.2       1 COA601      0.0000 
     44 O5P        51.6960   13.3010   76.8040 O.2       1 COA601      0.0000 
     45 N4P        53.6350   13.9200   75.7860 N.am      1 COA601      0.0000 
     46 C3P        53.9290   14.9360   76.8090 C.3       1 COA601      0.0000 
     47 C2P        53.2220   16.3020   76.4810 C.3       1 COA601      0.0000 
     48 S1P        53.9230   17.0250   74.9290 S.3       1 COA601      0.0000 
@<TRIPOS>BOND
     1    1    2 ar   
     2    1    6 ar   
     3    2    3 ar   
     4    3    4 ar   
     5    4    5 ar   
     6    4   10 1    
     7    5    6 ar   
     8    5    8 1    
     9    6    7 1    
    10    8    9 2    
    11    9   10 1    
    12   10   11 1    
    13   11   12 1    
    14   11   21 1    
    15   12   13 1    
    16   12   14 1    
    17   14   15 1    
    18   14   20 1    
    19   15   16 1    
    20   16   17 ar   
    21   16   18 ar   
    22   16   19 ar   
    23   20   21 1    
    24   20   22 1    
    25   22   23 1    
    26   23   24 1    
    27   24   25 ar   
    28   24   26 ar   
    29   24   27 1    
    30   27   28 1    
    31   28   29 ar   
    32   28   30 ar   
    33   28   31 1    
    34   31   33 1    
    35   32   33 1    
    36   32   34 1    
    37   32   35 1    
    38   32   36 1    
    39   36   37 1    
    40   36   38 1    
    41   38   39 2    
    42   38   40 am   
    43   40   41 1    
    44   41   42 1    
    45   42   43 1    
    46   43   44 2    
    47   43   45 am   
    48   45   46 1    
    49   46   47 1    
    50   47   48 1    
@<TRIPOS>SUBSTRUCTURE
     1 COA601      1 GROUP   
@<TRIPOS>SET
ATOM$ORANGE STATIC     ATOMS   COLORGROUP SYSTEM 
42 2 2 4 4 5 5 6 6 9 9 11 11 12 12 14 14 20 \
20 22 22 32 32 33 33 34 34 35 35 36 36 38 38 41 41 42 \
42 43 43 46 46 47 47 

