#    Name: 6o52_1_EBW
#    Modification time : Fri May 22 19:33:14 2020

@<TRIPOS>MOLECULE
6o52_1_EBW
   30    31     1     0     0
SMALL
NO_CHARGES


@<TRIPOS>ATOM
      1 C1          5.4690   33.4040   -9.5750 C.2       1 EBW601      0.0000 
      2 C2          4.7940   33.4880   -8.2260 C.3       1 EBW601      0.0000 
      3 C5          6.2620   34.5770  -10.1120 C.3       1 EBW601      0.0000 
      4 C6          3.5780   32.5890   -8.1860 C.3       1 EBW601      0.0000 
      5 C7          2.9420   32.5470   -6.8160 C.ar      1 EBW601      0.0000 
      6 C8          2.9450   31.3640   -6.0950 C.ar      1 EBW601      0.0000 
      7 C9          2.3660   31.3220   -4.8380 C.ar      1 EBW601      0.0000 
      8 C10         1.7790   32.4590   -4.3100 C.ar      1 EBW601      0.0000 
      9 C11         1.7790   33.6430   -5.0280 C.ar      1 EBW601      0.0000 
     10 N1          8.2190   39.7940  -13.4070 N.4       1 EBW601      0.0000 
     11 N2          1.1980   32.4140   -3.0190 N.4       1 EBW601      0.0000 
     12 C12         2.3600   33.6870   -6.2840 C.ar      1 EBW601      0.0000 
     13 C13         5.6100   35.1500  -11.3530 C.3       1 EBW601      0.0000 
     14 C14         6.3070   36.3790  -11.8970 C.ar      1 EBW601      0.0000 
     15 C15         6.2080   37.5860  -11.2230 C.ar      1 EBW601      0.0000 
     16 C16         6.8420   38.7150  -11.7230 C.ar      1 EBW601      0.0000 
     17 C17         7.5730   38.6360  -12.9000 C.ar      1 EBW601      0.0000 
     18 C18         7.6680   37.4280  -13.5750 C.ar      1 EBW601      0.0000 
     19 C19         7.0350   36.3040  -13.0730 C.ar      1 EBW601      0.0000 
     20 C20         8.8410   39.5000  -14.6480 C.3       1 EBW601      0.0000 
     21 C21         7.2510   40.8180  -13.5790 C.3       1 EBW601      0.0000 
     22 C22         9.2110   40.2120  -12.4830 C.3       1 EBW601      0.0000 
     23 C23        10.1330   39.0620  -12.1440 C.2       1 EBW601      0.0000 
     24 C24         2.0360   33.1810   -2.1650 C.3       1 EBW601      0.0000 
     25 C25         1.1460   31.0670   -2.5740 C.3       1 EBW601      0.0000 
     26 C26        -0.1130   32.9580   -3.0510 C.3       1 EBW601      0.0000 
     27 C27         2.1210   32.5930   -0.7730 C.2       1 EBW601      0.0000 
     28 C28         3.2120   32.8290   -0.0140 C.2       1 EBW601      0.0000 
     29 C29        11.0920   39.2190  -11.2090 C.2       1 EBW601      0.0000 
     30 O1          5.3680   32.3830  -10.2250 O.2       1 EBW601      0.0000 
@<TRIPOS>BOND
     1    1    2 1    
     2    1    3 1    
     3    1   30 2    
     4    2    4 1    
     5    3   13 1    
     6    4    5 1    
     7    5    6 ar   
     8    5   12 ar   
     9    6    7 ar   
    10    7    8 ar   
    11    8    9 ar   
    12    8   11 1    
    13    9   12 ar   
    14   10   17 1    
    15   10   20 1    
    16   10   21 1    
    17   10   22 1    
    18   11   24 1    
    19   11   25 1    
    20   11   26 1    
    21   13   14 1    
    22   14   15 ar   
    23   14   19 ar   
    24   15   16 ar   
    25   16   17 ar   
    26   17   18 ar   
    27   18   19 ar   
    28   22   23 1    
    29   23   29 2    
    30   24   27 1    
    31   27   28 2    
@<TRIPOS>SUBSTRUCTURE
     1 EBW601      1 GROUP   
@<TRIPOS>SET

