#    Name: 6o52_1_EBW_CAVITY_N1_4
#    Modification time : Fri May 22 19:33:15 2020

@<TRIPOS>MOLECULE
6o52_1_EBW_CAVITY_N1_4
   86     0     5     0     0
SMALL
NO_CHARGES


@<TRIPOS>ATOM
      1 OG          5.5400   34.9600  -11.3500 O.3       1 SER1        0.0000 
      2 OG          6.0400   35.4000  -10.0100 O.3       1 SER1        0.0000 
      3 OG          5.8000   34.0300   -9.4600 O.3       1 SER1        0.0000 
      4 OG          4.4100   34.4400   -9.0700 O.3       1 SER1        0.0000 
      5 OG          4.1600   33.0600   -8.5200 O.3       1 SER1        0.0000 
      6 OG          4.9100   34.8800   -7.7300 O.3       1 SER1        0.0000 
      7 OG          0.7400   33.7900   -4.1300 O.3       1 SER1        0.0000 
      8 OG          2.8800   35.2100   -3.7300 O.3       1 SER1        0.0000 
      9 OG          2.6400   33.8300   -3.1800 O.3       1 SER1        0.0000 
     10 OG          1.2400   34.2400   -2.7900 O.3       1 SER1        0.0000 
     11 OG          3.3800   35.6500   -2.3900 O.3       1 SER1        0.0000 
     12 OG          3.1400   34.2800   -1.8400 O.3       1 SER1        0.0000 
     13 OG          1.7500   34.6900   -1.4500 O.3       1 SER1        0.0000 
     14 OG          2.4900   36.5000   -0.6600 O.3       1 SER1        0.0000 
     15 OG          2.2500   35.1300   -0.1100 O.3       1 SER1        0.0000 
     16 O           4.8000   30.8400   -9.7000 O.2       2 ALA2        0.0000 
     17 N           3.1600   29.8700   -8.7700 N.am      2 ALA2        0.0000 
     18 N           1.5300   28.9000   -7.8300 N.am      2 ALA2        0.0000 
     19 N           3.6700   30.3100   -7.4300 N.am      2 ALA2        0.0000 
     20 N           3.4200   28.9400   -6.8800 N.am      2 ALA2        0.0000 
     21 N           2.0300   29.3400   -6.4900 N.am      2 ALA2        0.0000 
     22 N           1.7800   27.9700   -5.9400 N.am      2 ALA2        0.0000 
     23 N           0.3900   28.3700   -5.5600 N.am      2 ALA2        0.0000 
     24 N           4.1700   30.7600   -6.0800 N.am      2 ALA2        0.0000 
     25 N           2.7800   31.1600   -5.7000 N.am      2 ALA2        0.0000 
     26 N           2.5300   29.7900   -5.1500 N.am      2 ALA2        0.0000 
     27 N           2.2800   28.4200   -4.6000 N.am      2 ALA2        0.0000 
     28 N           3.0300   30.2400   -3.8100 N.am      2 ALA2        0.0000 
     29 N           2.7800   28.8600   -3.2600 N.am      2 ALA2        0.0000 
     30 N           3.5300   30.6800   -2.4700 N.am      2 ALA2        0.0000 
     31 CZ          5.3000   33.5800  -10.8000 C.ar      3 PHE5        0.0000 
     32 CZ          3.9000   33.9900  -10.4200 C.ar      3 PHE5        0.0000 
     33 CZ          5.0500   32.2100  -10.2500 C.ar      3 PHE5        0.0000 
     34 CZ          3.6600   32.6200   -9.8700 C.ar      3 PHE5        0.0000 
     35 CZ          3.4100   31.2400   -9.3200 C.ar      3 PHE5        0.0000 
     36 CZ          2.0200   31.6500   -8.9300 C.ar      3 PHE5        0.0000 
     37 CZ          1.7700   30.2700   -8.3800 C.ar      3 PHE5        0.0000 
     38 CZ          0.1300   29.3000   -7.4500 C.ar      3 PHE5        0.0000 
     39 CZ          7.4400   35.0000  -10.4000 C.ar      3 PHE5        0.0000 
     40 CZ          7.1900   33.6300   -9.8500 C.ar      3 PHE5        0.0000 
     41 CZ          5.5500   32.6600   -8.9100 C.ar      3 PHE5        0.0000 
     42 CZ          2.7700   33.4700   -8.1400 C.ar      3 PHE5        0.0000 
     43 CZ          2.5200   32.0900   -7.5900 C.ar      3 PHE5        0.0000 
     44 CZ          2.2700   30.7200   -7.0400 C.ar      3 PHE5        0.0000 
     45 CZ          0.8800   31.1200   -6.6500 C.ar      3 PHE5        0.0000 
     46 CZ          0.6400   29.7500   -6.1000 C.ar      3 PHE5        0.0000 
     47 CZ         -0.7600   30.1500   -5.7200 C.ar      3 PHE5        0.0000 
     48 CZ          6.5500   35.8500   -8.6700 C.ar      3 PHE5        0.0000 
     49 CZ          6.3000   34.4800   -8.1200 C.ar      3 PHE5        0.0000 
     50 CZ          4.6600   33.5100   -7.1800 C.ar      3 PHE5        0.0000 
     51 CZ          3.2700   33.9100   -6.8000 C.ar      3 PHE5        0.0000 
     52 CZ          1.8800   34.3200   -6.4100 C.ar      3 PHE5        0.0000 
     53 CZ          4.4100   32.1300   -6.6300 C.ar      3 PHE5        0.0000 
     54 CZ          3.0200   32.5400   -6.2500 C.ar      3 PHE5        0.0000 
     55 CZ          1.6300   32.9400   -5.8600 C.ar      3 PHE5        0.0000 
     56 CZ          1.3800   31.5700   -5.3100 C.ar      3 PHE5        0.0000 
     57 CZ         -0.0100   31.9700   -4.9300 C.ar      3 PHE5        0.0000 
     58 CZ         -0.2500   30.6000   -4.3800 C.ar      3 PHE5        0.0000 
     59 CZ          2.3800   34.7600   -5.0700 C.ar      3 PHE5        0.0000 
     60 CZ          0.9900   35.1700   -4.6800 C.ar      3 PHE5        0.0000 
     61 CZ          3.5200   32.9800   -4.9100 C.ar      3 PHE5        0.0000 
     62 CZ          2.1300   33.3900   -4.5200 C.ar      3 PHE5        0.0000 
     63 CZ          3.2800   31.6100   -4.3600 C.ar      3 PHE5        0.0000 
     64 CZ          3.7800   32.0600   -3.0200 C.ar      3 PHE5        0.0000 
     65 CZ          4.5300   33.8800   -2.2200 C.ar      3 PHE5        0.0000 
     66 CA          5.3000   31.2800   -8.3600 C.3       4 GLY6        0.0000 
     67 CA          5.0600   29.9100   -7.8100 C.3       4 GLY6        0.0000 
     68 CA         -1.6500   31.0000   -3.9900 C.3       4 GLY6        0.0000 
     69 CA          0.6400   27.4500   -3.6600 C.3       4 GLY6        0.0000 
     70 CA          2.5400   27.4900   -2.7100 C.3       4 GLY6        0.0000 
     71 CA          5.6700   32.1000   -2.0600 C.3       4 GLY6        0.0000 
     72 CA          4.2800   32.5000   -1.6700 C.3       4 GLY6        0.0000 
     73 CA          3.6400   34.7300   -0.5000 C.3       4 GLY6        0.0000 
     74 CA          4.7800   32.9500   -0.3300 C.3       4 GLY6        0.0000 
     75 DU          3.9100   31.6900   -7.9800 H         5 CUB7        0.0000 
     76 DU          1.1400   30.1900   -4.7600 H         5 CUB7        0.0000 
     77 DU          0.8900   28.8200   -4.2100 H         5 CUB7        0.0000 
     78 DU         -0.5000   29.2300   -3.8300 H         5 CUB7        0.0000 
     79 DU         -0.7500   27.8500   -3.2800 H         5 CUB7        0.0000 
     80 DU          1.8900   32.0100   -3.9700 H         5 CUB7        0.0000 
     81 DU          0.4900   32.4200   -3.5800 H         5 CUB7        0.0000 
     82 DU          1.6400   30.6400   -3.4200 H         5 CUB7        0.0000 
     83 DU          0.2500   31.0500   -3.0400 H         5 CUB7        0.0000 
     84 DU          1.3900   29.2700   -2.8700 H         5 CUB7        0.0000 
     85 DU          2.3900   32.4600   -2.6300 H         5 CUB7        0.0000 
     86 DU          2.8900   32.9100   -1.2900 H         5 CUB7        0.0000 
@<TRIPOS>BOND
@<TRIPOS>SUBSTRUCTURE
     1 SER1        1 GROUP   
     2 ALA2       16 GROUP   
     3 PHE5       31 GROUP   
     4 GLY6       66 GROUP   
     5 CUB7       75 GROUP   
@<TRIPOS>SET

