#    Name: 6o52_2_EBW_CAVITY_N1_ALL
#    Modification time : Fri May 22 19:33:23 2020

@<TRIPOS>MOLECULE
6o52_2_EBW_CAVITY_N1_ALL
  167     0     6     0     0
SMALL
NO_CHARGES


@<TRIPOS>ATOM
      1 OG         -2.8100   34.8900    5.2200 O.3       1 SER1        0.0000 
      2 OG         -2.3100   35.3400    6.5600 O.3       1 SER1        0.0000 
      3 OG         -1.1600   33.5600    6.7200 O.3       1 SER1        0.0000 
      4 OG         -2.5500   33.9700    7.1100 O.3       1 SER1        0.0000 
      5 OG         -0.6600   34.0100    8.0600 O.3       1 SER1        0.0000 
      6 OG         -2.0500   34.4100    8.4500 O.3       1 SER1        0.0000 
      7 OG         -3.5900   37.4900   11.3500 O.3       1 SER1        0.0000 
      8 OG         -6.3700   38.3000   12.1300 O.3       1 SER1        0.0000 
      9 OG         -5.2200   36.5200   12.2900 O.3       1 SER1        0.0000 
     10 OG         -2.6900   34.3300   12.0700 O.3       1 SER1        0.0000 
     11 OG         -5.4700   35.1400   12.8400 O.3       1 SER1        0.0000 
     12 OG         -4.3300   33.3600   13.0000 O.3       1 SER1        0.0000 
     13 OG         -5.7200   33.7700   13.3900 O.3       1 SER1        0.0000 
     14 OG         -4.2300   39.7100   12.5300 O.3       1 SER1        0.0000 
     15 OG         -4.4800   38.3400   13.0800 O.3       1 SER1        0.0000 
     16 OG         -5.8700   38.7400   13.4700 O.3       1 SER1        0.0000 
     17 OG         -7.2600   39.1500   13.8500 O.3       1 SER1        0.0000 
     18 OG         -8.6500   39.5500   14.2400 O.3       1 SER1        0.0000 
     19 OG         -6.1100   37.3700   14.0200 O.3       1 SER1        0.0000 
     20 OG         -7.5100   37.7700   14.4000 O.3       1 SER1        0.0000 
     21 OG         -8.9000   38.1800   14.7900 O.3       1 SER1        0.0000 
     22 OG         -6.3600   35.9900   14.5700 O.3       1 SER1        0.0000 
     23 OG         -3.8200   33.8100   14.3400 O.3       1 SER1        0.0000 
     24 OG         -5.2200   34.2200   14.7300 O.3       1 SER1        0.0000 
     25 OG         -3.4800   41.5300   13.3200 O.3       1 SER1        0.0000 
     26 OG         -3.7300   40.1600   13.8700 O.3       1 SER1        0.0000 
     27 OG         -3.9700   38.7800   14.4200 O.3       1 SER1        0.0000 
     28 OG         -5.3700   39.1900   14.8100 O.3       1 SER1        0.0000 
     29 OG         -5.6100   37.8100   15.3600 O.3       1 SER1        0.0000 
     30 OG         -8.4000   38.6200   16.1300 O.3       1 SER1        0.0000 
     31 OG         -5.8600   36.4400   15.9100 O.3       1 SER1        0.0000 
     32 OG         -4.6200   41.0100   15.6000 O.3       1 SER1        0.0000 
     33 OG         -4.8600   39.6300   16.1500 O.3       1 SER1        0.0000 
     34 OG         -7.0000   35.9200   18.1900 O.3       1 SER1        0.0000 
     35 OG         -7.2400   34.5400   18.7300 O.3       1 SER1        0.0000 
     36 OG         -7.1500   40.8900   18.2700 O.3       1 SER1        0.0000 
     37 OG         -8.5400   41.2900   18.6500 O.3       1 SER1        0.0000 
     38 OG         -7.6400   38.1400   19.3600 O.3       1 SER1        0.0000 
     39 N          -2.6500   27.6200    7.5800 N.am      2 ALA2        0.0000 
     40 N          -3.0500   31.2200    8.2100 N.am      2 ALA2        0.0000 
     41 N          -4.4400   31.6200    8.5900 N.am      2 ALA2        0.0000 
     42 N          -1.9000   29.4400    8.3700 N.am      2 ALA2        0.0000 
     43 N           2.0300   26.8500    7.7600 N.am      2 ALA2        0.0000 
     44 N          -2.1500   28.0700    8.9200 N.am      2 ALA2        0.0000 
     45 N          -3.5400   28.4700    9.3000 N.am      2 ALA2        0.0000 
     46 O          -1.0000   26.2900    9.0800 O.2       2 ALA2        0.0000 
     47 N          -2.7900   30.2900   10.1000 N.am      2 ALA2        0.0000 
     48 N          -4.1800   30.6900   10.4800 N.am      2 ALA2        0.0000 
     49 N           2.5300   27.3000    9.1000 N.am      2 ALA2        0.0000 
     50 N          -1.6500   28.5100   10.2600 N.am      2 ALA2        0.0000 
     51 N          -3.0400   28.9200   10.6500 N.am      2 ALA2        0.0000 
     52 N          -4.4300   29.3200   11.0300 N.am      2 ALA2        0.0000 
     53 N           0.8900   26.3300   10.0400 N.am      2 ALA2        0.0000 
     54 N          -0.5000   26.7300   10.4200 N.am      2 ALA2        0.0000 
     55 N          -1.1500   28.9600   11.6000 N.am      2 ALA2        0.0000 
     56 N          -2.5400   29.3600   11.9900 N.am      2 ALA2        0.0000 
     57 N          -3.9300   29.7700   12.3700 N.am      2 ALA2        0.0000 
     58 O          -5.3200   30.1700   12.7600 O.2       2 ALA2        0.0000 
     59 O          -3.4300   30.2100   13.7100 O.2       2 ALA2        0.0000 
     60 O          -4.8200   30.6200   14.1000 O.2       2 ALA2        0.0000 
     61 O          -2.5900   40.6800   11.6000 O.2       2 ALA2        0.0000 
     62 N          -3.9800   41.0800   11.9800 N.am      2 ALA2        0.0000 
     63 N          -4.8700   41.9400   13.7100 N.am      2 ALA2        0.0000 
     64 N          -9.7900   39.0300   16.5200 N.am      2 ALA2        0.0000 
     65 N         -11.1800   39.4300   16.9000 N.am      2 ALA2        0.0000 
     66 O          -5.6000   35.5100   17.8000 O.2       2 ALA2        0.0000 
     67 N          -5.2600   43.2300   16.7800 N.am      2 ALA2        0.0000 
     68 N          -5.5100   41.8600   17.3300 N.am      2 ALA2        0.0000 
     69 O          -7.3900   39.5100   18.8100 O.2       2 ALA2        0.0000 
     70 NZ         -3.7000   35.7400    6.9400 N.4       3 LYS4        0.0000 
     71 NZ         -3.2000   36.1900    8.2900 N.4       3 LYS4        0.0000 
     72 NZ         -6.1200   39.6700   11.5800 N.4       3 LYS4        0.0000 
     73 NZ         -4.9800   37.8900   11.7400 N.4       3 LYS4        0.0000 
     74 NZ         -8.7800   39.9200   19.2000 N.4       3 LYS4        0.0000 
     75 NZ        -10.1800   40.3200   19.5900 N.4       3 LYS4        0.0000 
     76 NZ         -9.0300   38.5500   19.7500 N.4       3 LYS4        0.0000 
     77 CZ         -3.9500   34.3700    7.4900 C.ar      4 PHE5        0.0000 
     78 CZ         -2.8000   32.5900    7.6600 C.ar      4 PHE5        0.0000 
     79 CZ         -3.4400   34.8200    8.8300 C.ar      4 PHE5        0.0000 
     80 CZ          0.4800   32.2300    8.2200 C.ar      4 PHE5        0.0000 
     81 CZ         -0.9100   32.6300    8.6100 C.ar      4 PHE5        0.0000 
     82 CZ         -2.3000   33.0400    9.0000 C.ar      4 PHE5        0.0000 
     83 CZ          0.2400   30.8600    8.7700 C.ar      4 PHE5        0.0000 
     84 CZ         -1.1500   31.2600    9.1600 C.ar      4 PHE5        0.0000 
     85 CZ         -3.9400   32.0700    9.9300 C.ar      4 PHE5        0.0000 
     86 CZ         -0.0100   29.4800    9.3200 C.ar      4 PHE5        0.0000 
     87 CZ         -2.7000   36.6400    9.6300 C.ar      4 PHE5        0.0000 
     88 CZ         -1.5500   34.8600    9.7900 C.ar      4 PHE5        0.0000 
     89 CZ         -2.9400   35.2600   10.1800 C.ar      4 PHE5        0.0000 
     90 CZ         -1.8000   33.4800   10.3400 C.ar      4 PHE5        0.0000 
     91 CZ         -3.1900   33.8900   10.7300 C.ar      4 PHE5        0.0000 
     92 CZ         -4.5800   34.2900   11.1100 C.ar      4 PHE5        0.0000 
     93 CZ         -0.6500   31.7100   10.5000 C.ar      4 PHE5        0.0000 
     94 CZ         -2.0400   32.1100   10.8900 C.ar      4 PHE5        0.0000 
     95 CZ         -3.4400   32.5100   11.2700 C.ar      4 PHE5        0.0000 
     96 CZ         -4.8300   32.9200   11.6600 C.ar      4 PHE5        0.0000 
     97 CZ         -6.2200   33.3200   12.0500 C.ar      4 PHE5        0.0000 
     98 CZ         -0.9000   30.3300   11.0500 C.ar      4 PHE5        0.0000 
     99 CZ         -2.2900   30.7400   11.4400 C.ar      4 PHE5        0.0000 
    100 CZ         -6.8600   35.5500   13.2300 C.ar      4 PHE5        0.0000 
    101 CZ         -2.9300   32.9600   12.6200 C.ar      4 PHE5        0.0000 
    102 CZ         -7.1100   34.1700   13.7700 C.ar      4 PHE5        0.0000 
    103 CZ         -3.1800   31.5900   13.1700 C.ar      4 PHE5        0.0000 
    104 CZ         -4.5700   31.9900   13.5500 C.ar      4 PHE5        0.0000 
    105 CZ         -5.9600   32.4000   13.9400 C.ar      4 PHE5        0.0000 
    106 CZ         -6.2100   31.0200   14.4900 C.ar      4 PHE5        0.0000 
    107 CZ         -2.8400   39.3100   12.1500 C.ar      4 PHE5        0.0000 
    108 CZ        -10.2900   38.5800   15.1800 C.ar      4 PHE5        0.0000 
    109 CZ         -7.7500   36.4000   14.9500 C.ar      4 PHE5        0.0000 
    110 CZ         -6.6100   34.6200   15.1200 C.ar      4 PHE5        0.0000 
    111 CZ         -8.0000   35.0200   15.5000 C.ar      4 PHE5        0.0000 
    112 CZ         -5.4600   32.8400   15.2800 C.ar      4 PHE5        0.0000 
    113 CZ         -8.1500   40.0000   15.5800 C.ar      4 PHE5        0.0000 
    114 CZ         -9.5400   40.4000   15.9700 C.ar      4 PHE5        0.0000 
    115 CZ         -7.2500   36.8400   16.2900 C.ar      4 PHE5        0.0000 
    116 CZ         -8.6400   37.2500   16.6800 C.ar      4 PHE5        0.0000 
    117 CZ        -10.0300   37.6500   17.0700 C.ar      4 PHE5        0.0000 
    118 CZ         -4.7100   34.6600   16.0700 C.ar      4 PHE5        0.0000 
    119 CZ         -6.1100   35.0700   16.4600 C.ar      4 PHE5        0.0000 
    120 CZ         -7.5000   35.4700   16.8400 C.ar      4 PHE5        0.0000 
    121 CZ         -8.8900   35.8700   17.2300 C.ar      4 PHE5        0.0000 
    122 CZ         -7.4000   41.8200   16.3700 C.ar      4 PHE5        0.0000 
    123 CZ         -7.6500   40.4400   16.9200 C.ar      4 PHE5        0.0000 
    124 CZ         -9.0400   40.8500   17.3100 C.ar      4 PHE5        0.0000 
    125 CZ         -8.1400   37.6900   18.0200 C.ar      4 PHE5        0.0000 
    126 CZ         -9.5300   38.1000   18.4100 C.ar      4 PHE5        0.0000 
    127 CZ         -5.8500   34.1400   18.3500 C.ar      4 PHE5        0.0000 
    128 CZ         -6.9000   42.2600   17.7200 C.ar      4 PHE5        0.0000 
    129 CA         -1.2600   27.2200    7.1900 C.3       5 GLY6        0.0000 
    130 CA         -0.1100   25.4400    7.3500 C.3       5 GLY6        0.0000 
    131 CA         -2.9000   26.2500    8.1300 C.3       5 GLY6        0.0000 
    132 CA          1.7800   25.4800    8.3100 C.3       5 GLY6        0.0000 
    133 CA          0.3900   25.8800    8.6900 C.3       5 GLY6        0.0000 
    134 CA          1.6300   30.4500    8.3900 C.3       5 GLY6        0.0000 
    135 CA          1.3800   29.0800    8.9400 C.3       5 GLY6        0.0000 
    136 CA          1.1400   27.7000    9.4900 C.3       5 GLY6        0.0000 
    137 CA         -0.2600   28.1100    9.8700 C.3       5 GLY6        0.0000 
    138 CA         -5.0700   31.5500   12.2100 C.3       5 GLY6        0.0000 
    139 CA         -6.4700   31.9500   12.6000 C.3       5 GLY6        0.0000 
    140 CA         -3.3400   38.8600   10.8100 C.3       5 GLY6        0.0000 
    141 CA         -5.3700   41.4900   12.3700 C.3       5 GLY6        0.0000 
    142 CA         -5.6200   40.1200   12.9200 C.3       5 GLY6        0.0000 
    143 CA         -7.0100   40.5200   13.3100 C.3       5 GLY6        0.0000 
    144 CA         -5.1200   40.5600   14.2600 C.3       5 GLY6        0.0000 
    145 CA         -6.7600   39.5900   15.2000 C.3       5 GLY6        0.0000 
    146 CA         -6.0100   41.4100   15.9900 C.3       5 GLY6        0.0000 
    147 CA         -6.2600   40.0400   16.5400 C.3       5 GLY6        0.0000 
    148 CA         -5.1100   38.2600   16.7000 C.3       5 GLY6        0.0000 
    149 CA         -6.5000   38.6600   17.0900 C.3       5 GLY6        0.0000 
    150 CA        -10.6800   39.8800   18.2500 C.3       5 GLY6        0.0000 
    151 CA         -6.7500   37.2900   17.6400 C.3       5 GLY6        0.0000 
    152 CA        -10.9200   38.5000   18.7900 C.3       5 GLY6        0.0000 
    153 CA         -5.7500   40.4800   17.8800 C.3       5 GLY6        0.0000 
    154 CA         -6.2500   37.7400   18.9800 C.3       5 GLY6        0.0000 
    155 DU         -3.0600   33.5200    5.7700 H         6 CUB7        0.0000 
    156 DU         -1.4100   32.1900    7.2700 H         6 CUB7        0.0000 
    157 DU         -0.2600   30.4100    7.4300 H         6 CUB7        0.0000 
    158 DU         -1.6600   30.8100    7.8200 H         6 CUB7        0.0000 
    159 DU          0.8800   28.6300    7.6000 H         6 CUB7        0.0000 
    160 DU          0.6300   27.2600    8.1400 H         6 CUB7        0.0000 
    161 DU         -0.7600   27.6600    8.5300 H         6 CUB7        0.0000 
    162 DU         -2.5500   31.6600    9.5500 H         6 CUB7        0.0000 
    163 DU         -1.4000   29.8900    9.7100 H         6 CUB7        0.0000 
    164 DU         -3.6800   31.1400   11.8200 H         6 CUB7        0.0000 
    165 DU         -7.0000   38.2200   15.7500 H         6 CUB7        0.0000 
    166 DU         -7.8900   39.0700   17.4700 H         6 CUB7        0.0000 
    167 DU         -9.2900   39.4700   17.8600 H         6 CUB7        0.0000 
@<TRIPOS>BOND
@<TRIPOS>SUBSTRUCTURE
     1 SER1        1 GROUP   
     2 ALA2       39 GROUP   
     3 LYS4       70 GROUP   
     4 PHE5       77 GROUP   
     5 GLY6      129 GROUP   
     6 CUB7      155 GROUP   
@<TRIPOS>SET

