#    Name: 6o52_2_EBW
#    Modification time : Fri May 22 19:33:21 2020

@<TRIPOS>MOLECULE
6o52_2_EBW
   30    31     1     0     0
SMALL
NO_CHARGES


@<TRIPOS>ATOM
      1 C1         -5.5300   33.4440   13.7890 C.2       1 EBW601      0.0000 
      2 C2         -4.8890   33.5310   12.4250 C.3       1 EBW601      0.0000 
      3 C5         -6.2900   34.6230   14.3580 C.3       1 EBW601      0.0000 
      4 C6         -3.7860   32.5050   12.3080 C.3       1 EBW601      0.0000 
      5 C7         -3.0990   32.5300   10.9630 C.ar      1 EBW601      0.0000 
      6 C8         -3.1380   31.4050   10.1570 C.ar      1 EBW601      0.0000 
      7 C9         -2.5090   31.4190    8.9240 C.ar      1 EBW601      0.0000 
      8 C10        -1.8350   32.5540    8.5040 C.ar      1 EBW601      0.0000 
      9 C11        -1.8010   33.6820    9.3080 C.ar      1 EBW601      0.0000 
     10 N1         -8.1080   39.8520   17.6550 N.4       1 EBW601      0.0000 
     11 N2         -1.2050   32.5600    7.2350 N.4       1 EBW601      0.0000 
     12 C12        -2.4310   33.6690   10.5420 C.ar      1 EBW601      0.0000 
     13 C13        -5.6570   35.1100   15.6430 C.3       1 EBW601      0.0000 
     14 C14        -6.3080   36.3660   16.1780 C.ar      1 EBW601      0.0000 
     15 C15        -6.4320   37.4800   15.3630 C.ar      1 EBW601      0.0000 
     16 C16        -7.0270   38.6340   15.8530 C.ar      1 EBW601      0.0000 
     17 C17        -7.4970   38.6720   17.1590 C.ar      1 EBW601      0.0000 
     18 C18        -7.3700   37.5560   17.9730 C.ar      1 EBW601      0.0000 
     19 C19        -6.7760   36.4060   17.4820 C.ar      1 EBW601      0.0000 
     20 C20        -8.6630   39.6050   18.9370 C.3       1 EBW601      0.0000 
     21 C21        -7.1340   40.8800   17.7470 C.3       1 EBW601      0.0000 
     22 C22        -9.1420   40.2460   16.7690 C.3       1 EBW601      0.0000 
     23 C23       -10.1040   39.1040   16.5250 C.2       1 EBW601      0.0000 
     24 C24        -1.9620   33.4310    6.4080 C.3       1 EBW601      0.0000 
     25 C25        -1.2130   31.2440    6.7040 C.3       1 EBW601      0.0000 
     26 C26         0.1350   33.0170    7.3400 C.3       1 EBW601      0.0000 
     27 C27        -2.4320   32.7350    5.1510 C.2       1 EBW601      0.0000 
     28 C28        -3.6760   32.9750    4.6900 C.2       1 EBW601      0.0000 
     29 C29       -10.9470   39.1570   15.4750 C.2       1 EBW601      0.0000 
     30 O1         -5.4270   32.4150   14.4290 O.2       1 EBW601      0.0000 
@<TRIPOS>BOND
     1    1    2 1    
     2    1    3 1    
     3    1   30 2    
     4    2    4 1    
     5    3   13 1    
     6    4    5 1    
     7    5    6 ar   
     8    5   12 ar   
     9    6    7 ar   
    10    7    8 ar   
    11    8    9 ar   
    12    8   11 1    
    13    9   12 ar   
    14   10   17 1    
    15   10   20 1    
    16   10   21 1    
    17   10   22 1    
    18   11   24 1    
    19   11   25 1    
    20   11   26 1    
    21   13   14 1    
    22   14   15 ar   
    23   14   19 ar   
    24   15   16 ar   
    25   16   17 ar   
    26   17   18 ar   
    27   18   19 ar   
    28   22   23 1    
    29   23   29 2    
    30   24   27 1    
    31   27   28 2    
@<TRIPOS>SUBSTRUCTURE
     1 EBW601      1 GROUP   
@<TRIPOS>SET

