#    Name: 6ixm_2_NAD_CAVITY_N1_ALL
#    Modification time : Fri May 22 19:33:25 2020

@<TRIPOS>MOLECULE
6ixm_2_NAD_CAVITY_N1_ALL
   86     0     6     0     0
SMALL
NO_CHARGES


@<TRIPOS>ATOM
      1 OG        -44.5800   14.2500  -10.6500 O.3       1 SER1        0.0000 
      2 OG        -45.9500   15.8700  -10.7800 O.3       1 SER1        0.0000 
      3 OG        -46.9000   13.8600   -8.2700 O.3       1 SER1        0.0000 
      4 OG        -43.5900   13.8400   -8.8200 O.3       1 SER1        0.0000 
      5 OG        -42.6100   13.4200   -6.9900 O.3       1 SER1        0.0000 
      6 OG        -42.9600   12.2000   -0.9400 O.3       1 SER1        0.0000 
      7 OG        -43.1000   13.4100   -1.8200 O.3       1 SER1        0.0000 
      8 OG        -43.2400   14.6200   -2.7000 O.3       1 SER1        0.0000 
      9 OG        -44.1900   12.6100   -0.1800 O.3       1 SER1        0.0000 
     10 OG        -44.3300   13.8200   -1.0600 O.3       1 SER1        0.0000 
     11 OG        -44.4700   15.0200   -1.9400 O.3       1 SER1        0.0000 
     12 OG        -45.5600   14.2300   -0.3100 O.3       1 SER1        0.0000 
     13 OG        -40.8800   12.5800   -0.7400 O.3       1 SER1        0.0000 
     14 OG        -41.0200   13.7900   -1.6200 O.3       1 SER1        0.0000 
     15 OG        -42.3900   15.4100   -1.7400 O.3       1 SER1        0.0000 
     16 OG        -40.0400   13.3800    0.2200 O.3       1 SER1        0.0000 
     17 OG        -40.1800   14.5800   -0.6600 O.3       1 SER1        0.0000 
     18 OG        -40.3200   15.7900   -1.5400 O.3       1 SER1        0.0000 
     19 OG        -41.5500   16.2000   -0.7900 O.3       1 SER1        0.0000 
     20 OG        -39.3300   15.3700    0.2900 O.3       1 SER1        0.0000 
     21 OG        -40.7000   16.9900    0.1600 O.3       1 SER1        0.0000 
     22 N         -45.6400   11.0300   -4.6700 N.am      2 ALA2        0.0000 
     23 N         -47.0100   12.6500   -4.8000 N.am      2 ALA2        0.0000 
     24 N         -47.1500   13.8600   -5.6800 N.am      2 ALA2        0.0000 
     25 N         -44.6500   10.6200   -2.8400 N.am      2 ALA2        0.0000 
     26 N         -44.7900   11.8300   -3.7200 N.am      2 ALA2        0.0000 
     27 N         -45.8900   11.0300   -2.0900 N.am      2 ALA2        0.0000 
     28 N         -46.0200   12.2300   -2.9700 N.am      2 ALA2        0.0000 
     29 N         -46.1600   13.4400   -3.8500 N.am      2 ALA2        0.0000 
     30 N         -46.3000   14.6500   -4.7300 N.am      2 ALA2        0.0000 
     31 N         -47.2500   12.6400   -2.2100 N.am      2 ALA2        0.0000 
     32 N         -45.3200   14.2300   -2.8900 N.am      2 ALA2        0.0000 
     33 N         -45.4500   15.4400   -3.7700 N.am      2 ALA2        0.0000 
     34 O         -38.7000   14.1800   -4.0000 O.2       2 ALA2        0.0000 
     35 N         -39.6500   12.1800   -1.4900 N.am      2 ALA2        0.0000 
     36 N         -39.7900   13.3800   -2.3700 N.am      2 ALA2        0.0000 
     37 N         -38.9500   14.1700   -1.4200 N.am      2 ALA2        0.0000 
     38 N         -38.1000   14.9700   -0.4700 N.am      2 ALA2        0.0000 
     39 OD1       -45.0400   11.8200   -1.1300 O.co2     3 ASP3        0.0000 
     40 CZ        -45.7000   15.4300   -1.1900 C.ar      4 PHE5        0.0000 
     41 CZ        -43.7600   17.0200   -1.8700 C.ar      4 PHE5        0.0000 
     42 CZ        -39.0800   15.3800   -2.3000 C.ar      4 PHE5        0.0000 
     43 CZ        -39.2200   16.5900   -3.1800 C.ar      4 PHE5        0.0000 
     44 CZ        -39.4700   16.5800   -0.5900 C.ar      4 PHE5        0.0000 
     45 CZ        -39.6100   17.7900   -1.4700 C.ar      4 PHE5        0.0000 
     46 CA        -44.7200   15.4600  -11.5300 C.3       5 GLY6        0.0000 
     47 CA        -43.4500   12.6300   -7.9400 C.3       5 GLY6        0.0000 
     48 CA        -43.7300   15.0400   -9.7000 C.3       5 GLY6        0.0000 
     49 CA        -44.6900   13.0400   -7.1900 C.3       5 GLY6        0.0000 
     50 CA        -44.8200   14.2500   -8.0700 C.3       5 GLY6        0.0000 
     51 CA        -44.9600   15.4500   -8.9500 C.3       5 GLY6        0.0000 
     52 CA        -45.9200   13.4500   -6.4300 C.3       5 GLY6        0.0000 
     53 CA        -46.0500   14.6500   -7.3100 C.3       5 GLY6        0.0000 
     54 CA        -46.1900   15.8600   -8.1900 C.3       5 GLY6        0.0000 
     55 CA        -43.5600   11.4200   -4.4700 C.3       5 GLY6        0.0000 
     56 CA        -43.7000   12.6200   -5.3500 C.3       5 GLY6        0.0000 
     57 CA        -43.8400   13.8300   -6.2300 C.3       5 GLY6        0.0000 
     58 CA        -45.0700   14.2400   -5.4800 C.3       5 GLY6        0.0000 
     59 CA        -41.6200   13.0100   -5.1600 C.3       5 GLY6        0.0000 
     60 CA        -42.7200   12.2100   -3.5200 C.3       5 GLY6        0.0000 
     61 CA        -42.8500   13.4200   -4.4000 C.3       5 GLY6        0.0000 
     62 CA        -42.9900   14.6200   -5.2800 C.3       5 GLY6        0.0000 
     63 CA        -43.8100   11.4100   -1.8900 C.3       5 GLY6        0.0000 
     64 CA        -44.2200   15.0300   -4.5300 C.3       5 GLY6        0.0000 
     65 CA        -46.4100   13.4300   -1.2600 C.3       5 GLY6        0.0000 
     66 CA        -46.5500   14.6400   -2.1400 C.3       5 GLY6        0.0000 
     67 CA        -40.5000   11.3800   -2.4400 C.3       5 GLY6        0.0000 
     68 CA        -40.6400   12.5900   -3.3200 C.3       5 GLY6        0.0000 
     69 CA        -41.7300   11.7900   -1.6900 C.3       5 GLY6        0.0000 
     70 CA        -41.8700   13.0000   -2.5700 C.3       5 GLY6        0.0000 
     71 CA        -43.3800   15.8200   -3.5800 C.3       5 GLY6        0.0000 
     72 CA        -39.7500   19.0000   -2.3500 C.3       5 GLY6        0.0000 
     73 DU        -44.9300   13.0300   -4.6000 H         6 CUB7        0.0000 
     74 DU        -43.9500   12.6200   -2.7700 H         6 CUB7        0.0000 
     75 DU        -44.0800   13.8200   -3.6500 H         6 CUB7        0.0000 
     76 DU        -45.1800   13.0300   -2.0100 H         6 CUB7        0.0000 
     77 DU        -40.7800   13.8000   -4.2000 H         6 CUB7        0.0000 
     78 DU        -42.0100   14.2100   -3.4500 H         6 CUB7        0.0000 
     79 DU        -44.6100   16.2300   -2.8200 H         6 CUB7        0.0000 
     80 DU        -39.9300   14.5900   -3.2500 H         6 CUB7        0.0000 
     81 DU        -41.1600   15.0000   -2.5000 H         6 CUB7        0.0000 
     82 DU        -42.5300   16.6100   -2.6200 H         6 CUB7        0.0000 
     83 DU        -40.4500   17.0000   -2.4200 H         6 CUB7        0.0000 
     84 DU        -41.6800   17.4100   -1.6700 H         6 CUB7        0.0000 
     85 DU        -40.8400   18.2000   -0.7200 H         6 CUB7        0.0000 
     86 DU        -40.9800   19.4000   -1.6000 H         6 CUB7        0.0000 
@<TRIPOS>BOND
@<TRIPOS>SUBSTRUCTURE
     1 SER1        1 GROUP   
     2 ALA2       22 GROUP   
     3 ASP3       39 GROUP   
     4 PHE5       40 GROUP   
     5 GLY6       46 GROUP   
     6 CUB7       73 GROUP   
@<TRIPOS>SET

