#    Name: 6ixm_2_NAD
#    Modification time : Fri May 22 19:33:24 2020

@<TRIPOS>MOLECULE
6ixm_2_NAD
   44    48     1     0     1
SMALL
NO_CHARGES


@<TRIPOS>ATOM
      1 PA        -45.6470   14.4050   -8.0320 P.3       1 NAD301      0.0000 
      2 O1A       -46.1870   15.7910   -7.9110 O.co2     1 NAD301      0.0000 
      3 O2A       -44.5670   14.1280   -9.0250 O.co2     1 NAD301      0.0000 
      4 O5B       -46.8740   13.4090   -8.2720 O.3       1 NAD301      0.0000 
      5 C5B       -47.9020   13.4790   -7.2610 C.3       1 NAD301      0.0000 
      6 C4B       -49.2440   13.2730   -7.9120 C.3       1 NAD301      0.0000 
      7 O4B       -50.2740   13.3770   -6.9010 O.3       1 NAD301      0.0000 
      8 C3B       -49.6430   14.2790   -9.0070 C.3       1 NAD301      0.0000 
      9 O3B       -49.9970   13.5560  -10.1810 O.3       1 NAD301      0.0000 
     10 C2B       -50.8610   15.0010   -8.4160 C.3       1 NAD301      0.0000 
     11 O2B       -51.7770   15.4130   -9.4060 O.3       1 NAD301      0.0000 
     12 C1B       -51.4140   13.8950   -7.5310 C.3       1 NAD301      0.0000 
     13 N9A       -52.3500   14.2910   -6.4890 N.pl3     1 NAD301      0.0000 
     14 C8A       -52.2800   15.3510   -5.6190 C.2       1 NAD301      0.0000 
     15 N7A       -53.2820   15.3860   -4.7730 N.2       1 NAD301      0.0000 
     16 C5A       -54.0470   14.2730   -5.0970 C.ar      1 NAD301      0.0000 
     17 C6A       -55.2400   13.7460   -4.5640 C.ar      1 NAD301      0.0000 
     18 N6A       -55.8790   14.2850   -3.5330 N.pl3     1 NAD301      0.0000 
     19 N1A       -55.7320   12.6100   -5.1210 N.ar      1 NAD301      0.0000 
     20 C2A       -55.0690   12.0650   -6.1470 C.ar      1 NAD301      0.0000 
     21 N3A       -53.9450   12.4730   -6.7340 N.ar      1 NAD301      0.0000 
     22 C4A       -53.4790   13.5900   -6.1510 C.ar      1 NAD301      0.0000 
     23 O3        -45.1790   13.9110   -6.5800 O.3       1 NAD301      0.0000 
     24 PN        -43.9260   13.0630   -6.0470 P.3       1 NAD301      0.0000 
     25 O1N       -42.7250   13.9460   -5.9710 O.co2     1 NAD301      0.0000 
     26 O2N       -43.7980   11.8170   -6.8480 O.co2     1 NAD301      0.0000 
     27 O5D       -44.4110   12.6880   -4.5670 O.3       1 NAD301      0.0000 
     28 C5D       -45.2500   11.5270   -4.3270 C.3       1 NAD301      0.0000 
     29 C4D       -45.2330   11.2450   -2.8470 C.3       1 NAD301      0.0000 
     30 O4D       -43.8460   11.1410   -2.4460 O.3       1 NAD301      0.0000 
     31 C3D       -45.8360   12.3450   -1.9590 C.3       1 NAD301      0.0000 
     32 O3D       -46.5470   11.7880   -0.8580 O.3       1 NAD301      0.0000 
     33 C2D       -44.5710   13.0900   -1.5220 C.3       1 NAD301      0.0000 
     34 O2D       -44.7420   13.9150   -0.3830 O.3       1 NAD301      0.0000 
     35 C1D       -43.6100   11.9300   -1.2940 C.3       1 NAD301      0.0000 
     36 N1N       -42.1800   12.3630   -1.3030 N.pl3     1 NAD301      0.0000 
     37 C2N       -41.6210   12.9210   -2.4330 C.ar      1 NAD301      0.0000 
     38 C3N       -40.3300   13.4420   -2.3870 C.ar      1 NAD301      0.0000 
     39 C7N       -39.7540   14.1190   -3.6070 C.2       1 NAD301      0.0000 
     40 O7N       -40.3490   14.0340   -4.6810 O.2       1 NAD301      0.0000 
     41 N7N       -38.6320   14.8110   -3.4560 N.am      1 NAD301      0.0000 
     42 C4N       -39.5950   13.3310   -1.2120 C.ar      1 NAD301      0.0000 
     43 C5N       -40.1260   12.6680   -0.1270 C.ar      1 NAD301      0.0000 
     44 C6N       -41.4160   12.1840   -0.1950 C.ar      1 NAD301      0.0000 
@<TRIPOS>BOND
     1    1    2 ar   
     2    1    3 ar   
     3    1    4 1    
     4    1   23 1    
     5    4    5 1    
     6    5    6 1    
     7    6    7 1    
     8    6    8 1    
     9    7   12 1    
    10    8    9 1    
    11    8   10 1    
    12   10   11 1    
    13   10   12 1    
    14   12   13 1    
    15   13   14 1    
    16   13   22 1    
    17   14   15 2    
    18   15   16 1    
    19   16   17 ar   
    20   16   22 ar   
    21   17   18 1    
    22   17   19 ar   
    23   19   20 ar   
    24   20   21 ar   
    25   21   22 ar   
    26   23   24 1    
    27   24   25 ar   
    28   24   26 ar   
    29   24   27 1    
    30   27   28 1    
    31   28   29 1    
    32   29   30 1    
    33   29   31 1    
    34   30   35 1    
    35   31   32 1    
    36   31   33 1    
    37   33   34 1    
    38   33   35 1    
    39   35   36 1    
    40   36   37 ar   
    41   36   44 ar   
    42   37   38 ar   
    43   38   39 1    
    44   38   42 ar   
    45   39   40 2    
    46   39   41 am   
    47   42   43 ar   
    48   43   44 ar   
@<TRIPOS>SUBSTRUCTURE
     1 NAD301      1 GROUP   
@<TRIPOS>SET
ATOM$ORANGE STATIC     ATOMS   COLORGROUP SYSTEM 
42 5 5 6 6 8 8 10 10 12 12 14 14 16 16 17 17 20 \
20 22 22 28 28 29 29 31 31 33 33 35 35 37 37 38 38 39 \
39 42 42 43 43 44 44 

