#    Name: 6ixm_3_NAD
#    Modification time : Fri May 22 19:33:27 2020

@<TRIPOS>MOLECULE
6ixm_3_NAD
   44    48     1     0     1
SMALL
NO_CHARGES


@<TRIPOS>ATOM
      1 PA        -56.6220   16.1320   31.3240 P.3       1 NAD301      0.0000 
      2 O1A       -57.8480   15.6710   30.6070 O.co2     1 NAD301      0.0000 
      3 O2A       -56.4150   15.7300   32.7470 O.co2     1 NAD301      0.0000 
      4 O5B       -56.5360   17.7250   31.2040 O.3       1 NAD301      0.0000 
      5 C5B       -56.5440   18.2630   29.8590 C.3       1 NAD301      0.0000 
      6 C4B       -57.2230   19.6090   29.8730 C.3       1 NAD301      0.0000 
      7 O4B       -57.4030   20.0590   28.5060 O.3       1 NAD301      0.0000 
      8 C3B       -58.6200   19.6560   30.5160 C.3       1 NAD301      0.0000 
      9 O3B       -58.6550   20.6630   31.5210 O.3       1 NAD301      0.0000 
     10 C2B       -59.5440   19.9800   29.3350 C.3       1 NAD301      0.0000 
     11 O2B       -60.7120   20.6860   29.6940 O.3       1 NAD301      0.0000 
     12 C1B       -58.6030   20.7850   28.4510 C.3       1 NAD301      0.0000 
     13 N9A       -59.0060   20.8770   27.0550 N.pl3     1 NAD301      0.0000 
     14 C8A       -59.5620   19.8870   26.2820 C.2       1 NAD301      0.0000 
     15 N7A       -59.8040   20.2660   25.0520 N.2       1 NAD301      0.0000 
     16 C5A       -59.3780   21.5860   25.0090 C.ar      1 NAD301      0.0000 
     17 C6A       -59.3650   22.5420   23.9770 C.ar      1 NAD301      0.0000 
     18 N6A       -59.8140   22.3010   22.7490 N.pl3     1 NAD301      0.0000 
     19 N1A       -58.8710   23.7680   24.2690 N.ar      1 NAD301      0.0000 
     20 C2A       -58.4320   24.0100   25.5130 C.ar      1 NAD301      0.0000 
     21 N3A       -58.3910   23.1860   26.5580 N.ar      1 NAD301      0.0000 
     22 C4A       -58.8850   21.9760   26.2380 C.ar      1 NAD301      0.0000 
     23 O3        -55.3370   15.7150   30.4620 O.3       1 NAD301      0.0000 
     24 PN        -53.9160   15.0580   30.8090 P.3       1 NAD301      0.0000 
     25 O1N       -54.1000   13.5890   31.0200 O.co2     1 NAD301      0.0000 
     26 O2N       -53.2500   15.8420   31.8870 O.co2     1 NAD301      0.0000 
     27 O5D       -53.1280   15.3020   29.4400 O.3       1 NAD301      0.0000 
     28 C5D       -52.6460   16.6220   29.1030 C.3       1 NAD301      0.0000 
     29 C4D       -51.7600   16.4930   27.8910 C.3       1 NAD301      0.0000 
     30 O4D       -50.8170   15.4320   28.1620 O.3       1 NAD301      0.0000 
     31 C3D       -52.4620   16.0940   26.5840 C.3       1 NAD301      0.0000 
     32 O3D       -51.8080   16.6790   25.4630 O.3       1 NAD301      0.0000 
     33 C2D       -52.2770   14.5750   26.6140 C.3       1 NAD301      0.0000 
     34 O2D       -52.4900   13.9450   25.3640 O.3       1 NAD301      0.0000 
     35 C1D       -50.8400   14.4780   27.1130 C.3       1 NAD301      0.0000 
     36 N1N       -50.5160   13.1350   27.6850 N.pl3     1 NAD301      0.0000 
     37 C2N       -51.1730   12.6630   28.8010 C.ar      1 NAD301      0.0000 
     38 C3N       -50.9450   11.3590   29.2410 C.ar      1 NAD301      0.0000 
     39 C7N       -51.7480   10.8040   30.3900 C.2       1 NAD301      0.0000 
     40 O7N       -52.4720   11.5550   31.0410 O.2       1 NAD301      0.0000 
     41 N7N       -51.6500    9.5040   30.6350 N.am      1 NAD301      0.0000 
     42 C4N       -49.9690   10.5900   28.6100 C.ar      1 NAD301      0.0000 
     43 C5N       -49.2580   11.1130   27.5560 C.ar      1 NAD301      0.0000 
     44 C6N       -49.5500   12.3810   27.1050 C.ar      1 NAD301      0.0000 
@<TRIPOS>BOND
     1    1    2 ar   
     2    1    3 ar   
     3    1    4 1    
     4    1   23 1    
     5    4    5 1    
     6    5    6 1    
     7    6    7 1    
     8    6    8 1    
     9    7   12 1    
    10    8    9 1    
    11    8   10 1    
    12   10   11 1    
    13   10   12 1    
    14   12   13 1    
    15   13   14 1    
    16   13   22 1    
    17   14   15 2    
    18   15   16 1    
    19   16   17 ar   
    20   16   22 ar   
    21   17   18 1    
    22   17   19 ar   
    23   19   20 ar   
    24   20   21 ar   
    25   21   22 ar   
    26   23   24 1    
    27   24   25 ar   
    28   24   26 ar   
    29   24   27 1    
    30   27   28 1    
    31   28   29 1    
    32   29   30 1    
    33   29   31 1    
    34   30   35 1    
    35   31   32 1    
    36   31   33 1    
    37   33   34 1    
    38   33   35 1    
    39   35   36 1    
    40   36   37 ar   
    41   36   44 ar   
    42   37   38 ar   
    43   38   39 1    
    44   38   42 ar   
    45   39   40 2    
    46   39   41 am   
    47   42   43 ar   
    48   43   44 ar   
@<TRIPOS>SUBSTRUCTURE
     1 NAD301      1 GROUP   
@<TRIPOS>SET
ATOM$ORANGE STATIC     ATOMS   COLORGROUP SYSTEM 
42 5 5 6 6 8 8 10 10 12 12 14 14 16 16 17 17 20 \
20 22 22 28 28 29 29 31 31 33 33 35 35 37 37 38 38 39 \
39 42 42 43 43 44 44 

