#    Name: 6e11_5_AGS
#    Modification time : Fri May 22 19:34:25 2020

@<TRIPOS>MOLECULE
6e11_5_AGS
   31    33     1     0     0
SMALL
NO_CHARGES


@<TRIPOS>ATOM
      1 PG        263.2610  284.8800  264.2070 P.3       1 AGS1002     0.0000 
      2 S1G       263.0140  283.2670  263.1470 S.2       1 AGS1002     0.0000 
      3 O2G       263.2220  284.5590  265.7260 O.3       1 AGS1002     0.0000 
      4 O3G       262.1540  285.9110  263.8530 O.3       1 AGS1002     0.0000 
      5 PB        264.5850  286.7030  262.8180 P.3       1 AGS1002     0.0000 
      6 O1B       263.6290  286.3960  261.7330 O.co2     1 AGS1002     0.0000 
      7 O2B       266.0240  286.8260  262.3400 O.co2     1 AGS1002     0.0000 
      8 O3B       264.6210  285.5210  263.8490 O.3       1 AGS1002     0.0000 
      9 PA        264.3410  288.5350  264.9580 P.3       1 AGS1002     0.0000 
     10 O1A       263.0520  289.3270  265.1720 O.co2     1 AGS1002     0.0000 
     11 O2A       264.5360  287.4290  265.9090 O.co2     1 AGS1002     0.0000 
     12 O3A       264.2930  288.1230  263.4450 O.3       1 AGS1002     0.0000 
     13 O5'       265.5990  289.4560  265.0080 O.3       1 AGS1002     0.0000 
     14 C5'       265.8260  290.3380  263.9160 C.3       1 AGS1002     0.0000 
     15 C4'       267.2980  290.6460  263.8680 C.3       1 AGS1002     0.0000 
     16 O4'       267.5850  291.4670  262.7240 O.3       1 AGS1002     0.0000 
     17 C3'       267.8620  291.3980  265.0680 C.3       1 AGS1002     0.0000 
     18 O3'       269.1850  290.9750  265.3740 O.3       1 AGS1002     0.0000 
     19 C2'       267.8120  292.8700  264.6380 C.3       1 AGS1002     0.0000 
     20 O2'       269.0010  293.5620  264.9990 O.3       1 AGS1002     0.0000 
     21 C1'       267.6950  292.8220  263.1100 C.3       1 AGS1002     0.0000 
     22 N9        266.5500  293.5460  262.5570 N.pl3     1 AGS1002     0.0000 
     23 C8        265.5740  293.0080  261.7630 C.2       1 AGS1002     0.0000 
     24 N7        264.6590  293.8650  261.3850 N.2       1 AGS1002     0.0000 
     25 C5        265.0630  295.0540  261.9660 C.ar      1 AGS1002     0.0000 
     26 C6        264.5170  296.3490  261.9430 C.ar      1 AGS1002     0.0000 
     27 N6        263.4000  296.6700  261.2890 N.pl3     1 AGS1002     0.0000 
     28 N1        265.1670  297.3160  262.6260 N.ar      1 AGS1002     0.0000 
     29 C2        266.2860  296.9980  263.2800 C.ar      1 AGS1002     0.0000 
     30 N3        266.8960  295.8140  263.3700 N.ar      1 AGS1002     0.0000 
     31 C4        266.2330  294.8770  262.6820 C.ar      1 AGS1002     0.0000 
@<TRIPOS>BOND
     1    1    2 2    
     2    1    3 1    
     3    1    4 1    
     4    1    8 1    
     5    5    6 ar   
     6    5    7 ar   
     7    5    8 1    
     8    5   12 1    
     9    9   10 ar   
    10    9   11 ar   
    11    9   12 1    
    12    9   13 1    
    13   13   14 1    
    14   14   15 1    
    15   15   16 1    
    16   15   17 1    
    17   16   21 1    
    18   17   18 1    
    19   17   19 1    
    20   19   20 1    
    21   19   21 1    
    22   21   22 1    
    23   22   23 1    
    24   22   31 1    
    25   23   24 2    
    26   24   25 1    
    27   25   26 ar   
    28   25   31 ar   
    29   26   27 1    
    30   26   28 ar   
    31   28   29 ar   
    32   29   30 ar   
    33   30   31 ar   
@<TRIPOS>SUBSTRUCTURE
     1 AGS1002     1 GROUP   
@<TRIPOS>SET

