#    Name: 6e11_2_AGS
#    Modification time : Fri May 22 19:33:15 2020

@<TRIPOS>MOLECULE
6e11_2_AGS
   31    33     1     0     0
SMALL
NO_CHARGES


@<TRIPOS>ATOM
      1 PG        277.8990  229.0260  264.3250 P.3       1 AGS1002     0.0000 
      2 S1G       276.7020  229.7420  262.9740 S.2       1 AGS1002     0.0000 
      3 O2G       277.5470  229.5640  265.7310 O.3       1 AGS1002     0.0000 
      4 O3G       279.3670  229.3860  263.9680 O.3       1 AGS1002     0.0000 
      5 PB        278.7490  226.7310  263.3320 P.3       1 AGS1002     0.0000 
      6 O1B       279.1860  227.6690  262.2530 O.co2     1 AGS1002     0.0000 
      7 O2B       277.9480  225.5240  262.9120 O.co2     1 AGS1002     0.0000 
      8 O3B       277.8040  227.4870  264.3230 O.3       1 AGS1002     0.0000 
      9 PA        280.6710  226.7220  265.3290 P.3       1 AGS1002     0.0000 
     10 O1A       281.6960  227.7380  264.8230 O.co2     1 AGS1002     0.0000 
     11 O2A       279.7240  227.2050  266.3440 O.co2     1 AGS1002     0.0000 
     12 O3A       279.9990  226.1170  264.0500 O.3       1 AGS1002     0.0000 
     13 O5'       281.3390  225.4510  265.9300 O.3       1 AGS1002     0.0000 
     14 C5'       281.9460  224.5790  265.0060 C.3       1 AGS1002     0.0000 
     15 C4'       281.4060  223.1820  265.1460 C.3       1 AGS1002     0.0000 
     16 O4'       282.1050  222.3240  264.2230 O.3       1 AGS1002     0.0000 
     17 C3'       281.6160  222.5210  266.5000 C.3       1 AGS1002     0.0000 
     18 O3'       280.6450  221.5030  266.7210 O.3       1 AGS1002     0.0000 
     19 C2'       283.0310  221.9580  266.3780 C.3       1 AGS1002     0.0000 
     20 O2'       283.1780  220.7290  267.0830 O.3       1 AGS1002     0.0000 
     21 C1'       283.2260  221.7610  264.8750 C.3       1 AGS1002     0.0000 
     22 N9        284.4310  222.3550  264.2870 N.pl3     1 AGS1002     0.0000 
     23 C8        284.4170  223.1480  263.1740 C.2       1 AGS1002     0.0000 
     24 N7        285.6000  223.5730  262.8080 N.2       1 AGS1002     0.0000 
     25 C5        286.4550  222.9980  263.7270 C.ar      1 AGS1002     0.0000 
     26 C6        287.8500  223.0580  263.8890 C.ar      1 AGS1002     0.0000 
     27 N6        288.6530  223.7490  263.0790 N.pl3     1 AGS1002     0.0000 
     28 N1        288.3950  222.3740  264.9200 N.ar      1 AGS1002     0.0000 
     29 C2        287.5930  221.6630  265.7150 C.ar      1 AGS1002     0.0000 
     30 N3        286.2640  221.5410  265.6650 N.ar      1 AGS1002     0.0000 
     31 C4        285.7490  222.2670  264.6720 C.ar      1 AGS1002     0.0000 
@<TRIPOS>BOND
     1    1    2 2    
     2    1    3 1    
     3    1    4 1    
     4    1    8 1    
     5    5    6 ar   
     6    5    7 ar   
     7    5    8 1    
     8    5   12 1    
     9    9   10 ar   
    10    9   11 ar   
    11    9   12 1    
    12    9   13 1    
    13   13   14 1    
    14   14   15 1    
    15   15   16 1    
    16   15   17 1    
    17   16   21 1    
    18   17   18 1    
    19   17   19 1    
    20   19   20 1    
    21   19   21 1    
    22   21   22 1    
    23   22   23 1    
    24   22   31 1    
    25   23   24 2    
    26   24   25 1    
    27   25   26 ar   
    28   25   31 ar   
    29   26   27 1    
    30   26   28 ar   
    31   28   29 ar   
    32   29   30 ar   
    33   30   31 ar   
@<TRIPOS>SUBSTRUCTURE
     1 AGS1002     1 GROUP   
@<TRIPOS>SET

