#    Name: 6e11_1_AGS
#    Modification time : Fri May 22 19:32:49 2020

@<TRIPOS>MOLECULE
6e11_1_AGS
   31    33     1     0     0
SMALL
NO_CHARGES


@<TRIPOS>ATOM
      1 PG        224.2400  231.8740  261.6090 P.3       1 AGS1003     0.0000 
      2 S1G       225.4030  232.4780  260.0000 S.2       1 AGS1003     0.0000 
      3 O2G       224.9660  232.2940  262.9840 O.3       1 AGS1003     0.0000 
      4 O3G       224.0710  230.4040  261.5730 O.3       1 AGS1003     0.0000 
      5 PB        221.6050  231.9390  260.6630 P.3       1 AGS1003     0.0000 
      6 O1B       220.9280  233.0460  259.8920 O.co2     1 AGS1003     0.0000 
      7 O2B       222.1450  230.7340  259.9300 O.co2     1 AGS1003     0.0000 
      8 O3B       222.7990  232.5870  261.5270 O.3       1 AGS1003     0.0000 
      9 PA        221.1310  230.8670  263.2070 P.3       1 AGS1003     0.0000 
     10 O1A       221.7200  229.4960  262.9780 O.co2     1 AGS1003     0.0000 
     11 O2A       221.9650  231.9470  263.8540 O.co2     1 AGS1003     0.0000 
     12 O3A       220.5850  231.4230  261.7980 O.3       1 AGS1003     0.0000 
     13 O5'       219.7780  230.6980  264.0640 O.3       1 AGS1003     0.0000 
     14 C5'       218.7170  229.8740  263.5850 C.3       1 AGS1003     0.0000 
     15 C4'       217.4010  230.6360  263.6760 C.3       1 AGS1003     0.0000 
     16 O4'       216.5230  230.2050  262.6330 O.3       1 AGS1003     0.0000 
     17 C3'       216.7080  230.3810  265.0060 C.3       1 AGS1003     0.0000 
     18 O3'       216.5780  231.6130  265.7280 O.3       1 AGS1003     0.0000 
     19 C2'       215.3630  229.7500  264.6690 C.3       1 AGS1003     0.0000 
     20 O2'       214.2530  230.5350  265.1220 O.3       1 AGS1003     0.0000 
     21 C1'       215.3210  229.6310  263.1530 C.3       1 AGS1003     0.0000 
     22 N9        215.2440  228.2000  262.7660 N.pl3     1 AGS1003     0.0000 
     23 C8        215.6270  227.6840  261.5830 C.2       1 AGS1003     0.0000 
     24 N7        215.4260  226.3420  261.5450 N.2       1 AGS1003     0.0000 
     25 C5        214.9020  225.9790  262.7300 C.ar      1 AGS1003     0.0000 
     26 C6        214.4530  224.7120  263.3560 C.ar      1 AGS1003     0.0000 
     27 N6        214.5280  223.5360  262.6880 N.pl3     1 AGS1003     0.0000 
     28 N1        213.9670  224.7720  264.6160 N.ar      1 AGS1003     0.0000 
     29 C2        213.8880  225.9340  265.2900 C.ar      1 AGS1003     0.0000 
     30 N3        214.2770  227.1180  264.7840 N.ar      1 AGS1003     0.0000 
     31 C4        214.7840  227.2070  263.5310 C.ar      1 AGS1003     0.0000 
@<TRIPOS>BOND
     1    1    2 2    
     2    1    3 1    
     3    1    4 1    
     4    1    8 1    
     5    5    6 ar   
     6    5    7 ar   
     7    5    8 1    
     8    5   12 1    
     9    9   10 ar   
    10    9   11 ar   
    11    9   12 1    
    12    9   13 1    
    13   13   14 1    
    14   14   15 1    
    15   15   16 1    
    16   15   17 1    
    17   16   21 1    
    18   17   18 1    
    19   17   19 1    
    20   19   20 1    
    21   19   21 1    
    22   21   22 1    
    23   22   23 1    
    24   22   31 1    
    25   23   24 2    
    26   24   25 1    
    27   25   26 ar   
    28   25   31 ar   
    29   26   27 1    
    30   26   28 ar   
    31   28   29 ar   
    32   29   30 ar   
    33   30   31 ar   
@<TRIPOS>SUBSTRUCTURE
     1 AGS1003     1 GROUP   
@<TRIPOS>SET

