#    Name: 6e11_4_AGS
#    Modification time : Fri May 22 19:34:03 2020

@<TRIPOS>MOLECULE
6e11_4_AGS
   31    33     1     0     0
SMALL
NO_CHARGES


@<TRIPOS>ATOM
      1 PG        233.6200  283.3130  304.9540 P.3       1 AGS1001     0.0000 
      2 S1G       235.1240  282.6450  303.9170 S.2       1 AGS1001     0.0000 
      3 O2G       233.2240  282.2700  306.0330 O.3       1 AGS1001     0.0000 
      4 O3G       233.9760  284.6640  305.6420 O.3       1 AGS1001     0.0000 
      5 PB        231.2700  284.4820  304.5490 P.3       1 AGS1001     0.0000 
      6 O1B       230.2250  284.4650  303.4360 O.co2     1 AGS1001     0.0000 
      7 O2B       230.8220  284.0740  305.8940 O.co2     1 AGS1001     0.0000 
      8 O3B       232.4050  283.5400  304.0230 O.3       1 AGS1001     0.0000 
      9 PA        231.2100  286.8540  303.4640 P.3       1 AGS1001     0.0000 
     10 O1A       231.4210  286.0570  302.1730 O.co2     1 AGS1001     0.0000 
     11 O2A       229.8220  287.2440  303.7370 O.co2     1 AGS1001     0.0000 
     12 O3A       231.7610  285.9540  304.6090 O.3       1 AGS1001     0.0000 
     13 O5'       232.1250  288.1120  303.5760 O.3       1 AGS1001     0.0000 
     14 C5'       231.9030  289.0480  304.6290 C.3       1 AGS1001     0.0000 
     15 C4'       231.5570  290.3490  303.9640 C.3       1 AGS1001     0.0000 
     16 O4'       230.6530  290.0920  302.8710 O.3       1 AGS1001     0.0000 
     17 C3'       230.8880  291.3890  304.8630 C.3       1 AGS1001     0.0000 
     18 O3'       231.5340  292.6500  304.7400 O.3       1 AGS1001     0.0000 
     19 C2'       229.4480  291.4500  304.3470 C.3       1 AGS1001     0.0000 
     20 O2'       228.9390  292.7750  304.4320 O.3       1 AGS1001     0.0000 
     21 C1'       229.6100  291.0380  302.8890 C.3       1 AGS1001     0.0000 
     22 N9        228.4290  290.4190  302.2980 N.pl3     1 AGS1001     0.0000 
     23 C8        228.3350  289.1430  301.8100 C.2       1 AGS1001     0.0000 
     24 N7        227.1540  288.8410  301.3270 N.2       1 AGS1001     0.0000 
     25 C5        226.4200  290.0020  301.5070 C.ar      1 AGS1001     0.0000 
     26 C6        225.0880  290.3380  301.2030 C.ar      1 AGS1001     0.0000 
     27 N6        224.2240  289.4980  300.6280 N.pl3     1 AGS1001     0.0000 
     28 N1        224.6680  291.5850  301.5150 N.ar      1 AGS1001     0.0000 
     29 C2        225.5280  292.4290  302.0900 C.ar      1 AGS1001     0.0000 
     30 N3        226.8060  292.2260  302.4190 N.ar      1 AGS1001     0.0000 
     31 C4        227.1930  290.9840  302.1030 C.ar      1 AGS1001     0.0000 
@<TRIPOS>BOND
     1    1    2 2    
     2    1    3 1    
     3    1    4 1    
     4    1    8 1    
     5    5    6 ar   
     6    5    7 ar   
     7    5    8 1    
     8    5   12 1    
     9    9   10 ar   
    10    9   11 ar   
    11    9   12 1    
    12    9   13 1    
    13   13   14 1    
    14   14   15 1    
    15   15   16 1    
    16   15   17 1    
    17   16   21 1    
    18   17   18 1    
    19   17   19 1    
    20   19   20 1    
    21   19   21 1    
    22   21   22 1    
    23   22   23 1    
    24   22   31 1    
    25   23   24 2    
    26   24   25 1    
    27   25   26 ar   
    28   25   31 ar   
    29   26   27 1    
    30   26   28 ar   
    31   28   29 ar   
    32   29   30 ar   
    33   30   31 ar   
@<TRIPOS>SUBSTRUCTURE
     1 AGS1001     1 GROUP   
@<TRIPOS>SET

