#    Name: 6e11_3_AGS_CAVITY_N1_4
#    Modification time : Fri May 22 19:33:41 2020

@<TRIPOS>MOLECULE
6e11_3_AGS_CAVITY_N1_4
   80     0     6     0     0
SMALL
NO_CHARGES


@<TRIPOS>ATOM
      1 OG        282.7100  261.5100  262.8700 O.3       1 SER1        0.0000 
      2 OG        284.1600  260.5500  264.8000 O.3       1 SER1        0.0000 
      3 OG        284.6600  261.4500  263.7100 O.3       1 SER1        0.0000 
      4 OG        285.1500  262.3500  262.6200 O.3       1 SER1        0.0000 
      5 OG        282.9600  261.4200  264.9700 O.3       1 SER1        0.0000 
      6 OG        283.4500  262.3200  263.8800 O.3       1 SER1        0.0000 
      7 OG        283.9500  263.2300  262.7900 O.3       1 SER1        0.0000 
      8 OG        283.2000  261.3400  267.0800 O.3       1 SER1        0.0000 
      9 O         282.1900  259.0800  258.5600 O.2       2 ALA2        0.0000 
     10 O         287.0400  258.1800  257.9500 O.2       2 ALA2        0.0000 
     11 N         284.8400  257.2500  260.3100 N.am      2 ALA2        0.0000 
     12 O         285.3400  258.1500  259.2200 O.2       2 ALA2        0.0000 
     13 O         284.6300  259.9300  258.3100 O.2       2 ALA2        0.0000 
     14 N         283.4200  260.8000  258.4800 N.am      2 ALA2        0.0000 
     15 O         286.0800  258.9700  260.2400 O.2       2 ALA2        0.0000 
     16 O         284.8800  259.8400  260.4100 O.2       2 ALA2        0.0000 
     17 N         282.9600  262.4900  259.6700 N.am      2 ALA2        0.0000 
     18 N         281.7500  263.3700  259.8500 N.am      2 ALA2        0.0000 
     19 O         286.1100  261.5600  260.3400 O.2       2 ALA2        0.0000 
     20 N         281.5000  262.3800  263.0500 N.am      2 ALA2        0.0000 
     21 N         282.0000  263.2800  261.9600 N.am      2 ALA2        0.0000 
     22 N         286.8500  262.3800  261.3500 N.am      2 ALA2        0.0000 
     23 N         285.6500  263.2600  261.5300 N.am      2 ALA2        0.0000 
     24 N         287.5900  263.2000  262.3700 N.am      2 ALA2        0.0000 
     25 OD1       286.7900  257.1900  261.1500 O.co2     3 ASP3        0.0000 
     26 OD1       285.0900  257.1600  262.4200 O.co2     3 ASP3        0.0000 
     27 OD1       285.5900  258.0700  261.3300 O.co2     3 ASP3        0.0000 
     28 OD1       284.1600  261.6200  259.5000 O.co2     3 ASP3        0.0000 
     29 OD1       286.3300  258.8800  262.3400 O.co2     3 ASP3        0.0000 
     30 OD1       286.8200  259.7900  261.2500 O.co2     3 ASP3        0.0000 
     31 OD1       284.6300  258.8500  263.6100 O.co2     3 ASP3        0.0000 
     32 OD1       285.1200  259.7600  262.5200 O.co2     3 ASP3        0.0000 
     33 OD1       285.6200  260.6600  261.4300 O.co2     3 ASP3        0.0000 
     34 OD1       282.9200  258.8200  264.8700 O.co2     3 ASP3        0.0000 
     35 OD1       284.9100  262.4400  260.5100 O.co2     3 ASP3        0.0000 
     36 OD1       284.8700  258.7700  265.7100 O.co2     3 ASP3        0.0000 
     37 OD1       285.3700  259.6700  264.6200 O.co2     3 ASP3        0.0000 
     38 OD1       285.8600  260.5800  263.5300 O.co2     3 ASP3        0.0000 
     39 OD1       286.3600  261.4800  262.4400 O.co2     3 ASP3        0.0000 
     40 OD1       283.6700  259.6400  265.8900 O.co2     3 ASP3        0.0000 
     41 OD1       281.9600  259.6100  267.1600 O.co2     3 ASP3        0.0000 
     42 OD1       282.4600  260.5200  266.0600 O.co2     3 ASP3        0.0000 
     43 OD1       286.1100  260.4900  265.6400 O.co2     3 ASP3        0.0000 
     44 OD1       286.6000  261.3900  264.5500 O.co2     3 ASP3        0.0000 
     45 OD1       287.1000  262.3000  263.4600 O.co2     3 ASP3        0.0000 
     46 OD1       284.4100  260.4600  266.9000 O.co2     3 ASP3        0.0000 
     47 NZ        281.6900  258.1800  259.6500 N.4       4 LYS4        0.0000 
     48 NZ        281.9400  258.0900  261.7500 N.4       4 LYS4        0.0000 
     49 NZ        282.4300  258.9900  260.6600 N.4       4 LYS4        0.0000 
     50 NZ        282.9300  259.9000  259.5700 N.4       4 LYS4        0.0000 
     51 NZ        282.6800  258.9100  262.7700 N.4       4 LYS4        0.0000 
     52 NZ        283.1700  259.8100  261.6800 N.4       4 LYS4        0.0000 
     53 NZ        280.9800  258.8800  264.0300 N.4       4 LYS4        0.0000 
     54 NZ        281.4700  259.7800  262.9400 N.4       4 LYS4        0.0000 
     55 NZ        281.9700  260.6900  261.8500 N.4       4 LYS4        0.0000 
     56 NZ        282.4600  261.5900  260.7600 N.4       4 LYS4        0.0000 
     57 NZ        280.2700  260.6600  263.1200 N.4       4 LYS4        0.0000 
     58 NZ        281.2500  261.3900  266.2400 N.4       4 LYS4        0.0000 
     59 NZ        281.7500  262.2900  265.1500 N.4       4 LYS4        0.0000 
     60 CA        287.2900  258.0900  260.0600 C.3       5 GLY6        0.0000 
     61 CA        281.2600  262.4600  260.9400 C.3       5 GLY6        0.0000 
     62 CA        283.7000  263.3100  260.6900 C.3       5 GLY6        0.0000 
     63 CA        280.5100  260.5700  265.2300 C.3       5 GLY6        0.0000 
     64 CA        281.0100  261.4800  264.1400 C.3       5 GLY6        0.0000 
     65 CA        282.4900  264.1900  260.8700 C.3       5 GLY6        0.0000 
     66 CA        284.4400  264.1300  261.7000 C.3       5 GLY6        0.0000 
     67 CA        283.9400  262.1500  268.0900 C.3       5 GLY6        0.0000 
     68 DU        286.5500  257.2800  259.0400 H         6 CUB7        0.0000 
     69 DU        283.6400  258.1200  260.4900 H         6 CUB7        0.0000 
     70 DU        284.1300  259.0200  259.4000 H         6 CUB7        0.0000 
     71 DU        283.8800  258.0400  262.5900 H         6 CUB7        0.0000 
     72 DU        284.3800  258.9400  261.5000 H         6 CUB7        0.0000 
     73 DU        283.6700  260.7200  260.5900 H         6 CUB7        0.0000 
     74 DU        284.1300  257.9500  264.7000 H         6 CUB7        0.0000 
     75 DU        283.4200  259.7300  263.7800 H         6 CUB7        0.0000 
     76 DU        283.9200  260.6300  262.6900 H         6 CUB7        0.0000 
     77 DU        284.4100  261.5400  261.6000 H         6 CUB7        0.0000 
     78 DU        281.7200  259.7000  265.0500 H         6 CUB7        0.0000 
     79 DU        282.2100  260.6000  263.9600 H         6 CUB7        0.0000 
     80 DU        283.2000  262.4100  261.7800 H         6 CUB7        0.0000 
@<TRIPOS>BOND
@<TRIPOS>SUBSTRUCTURE
     1 SER1        1 GROUP   
     2 ALA2        9 GROUP   
     3 ASP3       25 GROUP   
     4 LYS4       47 GROUP   
     5 GLY6       60 GROUP   
     6 CUB7       68 GROUP   
@<TRIPOS>SET

