#    Name: 6e11_3_AGS_CAVITY_N1_ALL
#    Modification time : Fri May 22 19:33:41 2020

@<TRIPOS>MOLECULE
6e11_3_AGS_CAVITY_N1_ALL
  148     0     6     0     0
SMALL
NO_CHARGES


@<TRIPOS>ATOM
      1 OG        282.7100  261.5100  262.8700 O.3       1 SER1        0.0000 
      2 OG        284.1600  260.5500  264.8000 O.3       1 SER1        0.0000 
      3 OG        284.6600  261.4500  263.7100 O.3       1 SER1        0.0000 
      4 OG        285.1500  262.3500  262.6200 O.3       1 SER1        0.0000 
      5 OG        282.9600  261.4200  264.9700 O.3       1 SER1        0.0000 
      6 OG        283.4500  262.3200  263.8800 O.3       1 SER1        0.0000 
      7 OG        283.9500  263.2300  262.7900 O.3       1 SER1        0.0000 
      8 OG        283.2000  261.3400  267.0800 O.3       1 SER1        0.0000 
      9 N         283.8600  256.5100  257.1900 N.am      2 ALA2        0.0000 
     10 O         282.1600  256.4800  258.4600 O.2       2 ALA2        0.0000 
     11 O         280.9500  257.3600  258.6300 O.2       2 ALA2        0.0000 
     12 N         288.7100  255.6100  256.5900 N.am      2 ALA2        0.0000 
     13 N         287.5100  256.4900  256.7600 N.am      2 ALA2        0.0000 
     14 N         285.3100  255.5500  259.1200 N.am      2 ALA2        0.0000 
     15 N         286.3000  257.3600  256.9400 N.am      2 ALA2        0.0000 
     16 N         284.1000  256.4300  259.3000 N.am      2 ALA2        0.0000 
     17 O         282.9000  257.3000  259.4700 O.2       2 ALA2        0.0000 
     18 O         281.2000  257.2700  260.7400 O.2       2 ALA2        0.0000 
     19 O         282.1900  259.0800  258.5600 O.2       2 ALA2        0.0000 
     20 N         288.2500  257.3100  257.7800 N.am      2 ALA2        0.0000 
     21 N         286.0500  256.3700  260.1300 N.am      2 ALA2        0.0000 
     22 O         287.0400  258.1800  257.9500 O.2       2 ALA2        0.0000 
     23 N         284.8400  257.2500  260.3100 N.am      2 ALA2        0.0000 
     24 O         285.3400  258.1500  259.2200 O.2       2 ALA2        0.0000 
     25 O         283.1400  257.2200  261.5800 O.2       2 ALA2        0.0000 
     26 O         284.6300  259.9300  258.3100 O.2       2 ALA2        0.0000 
     27 O         281.4400  257.1900  262.8400 O.2       2 ALA2        0.0000 
     28 N         283.4200  260.8000  258.4800 N.am      2 ALA2        0.0000 
     29 N         285.8000  255.3800  263.3300 N.am      2 ALA2        0.0000 
     30 N         284.1000  255.3500  264.6000 N.am      2 ALA2        0.0000 
     31 O         286.0800  258.9700  260.2400 O.2       2 ALA2        0.0000 
     32 O         284.8800  259.8400  260.4100 O.2       2 ALA2        0.0000 
     33 N         282.9600  262.4900  259.6700 N.am      2 ALA2        0.0000 
     34 N         281.7500  263.3700  259.8500 N.am      2 ALA2        0.0000 
     35 O         286.1100  261.5600  260.3400 O.2       2 ALA2        0.0000 
     36 N         279.5200  258.7700  267.4100 N.am      2 ALA2        0.0000 
     37 N         281.5000  262.3800  263.0500 N.am      2 ALA2        0.0000 
     38 N         282.0000  263.2800  261.9600 N.am      2 ALA2        0.0000 
     39 N         286.8500  262.3800  261.3500 N.am      2 ALA2        0.0000 
     40 N         285.6500  263.2600  261.5300 N.am      2 ALA2        0.0000 
     41 N         280.2600  259.5800  268.4200 N.am      2 ALA2        0.0000 
     42 N         287.5900  263.2000  262.3700 N.am      2 ALA2        0.0000 
     43 OD1       280.4500  255.3800  265.0200 O.co2     3 ASP3        0.0000 
     44 OD1       286.7900  257.1900  261.1500 O.co2     3 ASP3        0.0000 
     45 OD1       285.0900  257.1600  262.4200 O.co2     3 ASP3        0.0000 
     46 OD1       285.5900  258.0700  261.3300 O.co2     3 ASP3        0.0000 
     47 OD1       282.8900  256.2300  264.7700 O.co2     3 ASP3        0.0000 
     48 OD1       281.6900  257.1000  264.9500 O.co2     3 ASP3        0.0000 
     49 OD1       284.1600  261.6200  259.5000 O.co2     3 ASP3        0.0000 
     50 OD1       279.9900  257.0700  266.2200 O.co2     3 ASP3        0.0000 
     51 OD1       280.4800  257.9800  265.1300 O.co2     3 ASP3        0.0000 
     52 OD1       286.0500  255.3000  265.4400 O.co2     3 ASP3        0.0000 
     53 OD1       284.8400  256.1700  265.6100 O.co2     3 ASP3        0.0000 
     54 OD1       285.3400  257.0800  264.5200 O.co2     3 ASP3        0.0000 
     55 OD1       286.3300  258.8800  262.3400 O.co2     3 ASP3        0.0000 
     56 OD1       286.8200  259.7900  261.2500 O.co2     3 ASP3        0.0000 
     57 OD1       283.6400  257.0500  265.7900 O.co2     3 ASP3        0.0000 
     58 OD1       284.6300  258.8500  263.6100 O.co2     3 ASP3        0.0000 
     59 OD1       285.1200  259.7600  262.5200 O.co2     3 ASP3        0.0000 
     60 OD1       285.6200  260.6600  261.4300 O.co2     3 ASP3        0.0000 
     61 OD1       282.9200  258.8200  264.8700 O.co2     3 ASP3        0.0000 
     62 OD1       284.9100  262.4400  260.5100 O.co2     3 ASP3        0.0000 
     63 OD1       281.2200  258.8000  266.1400 O.co2     3 ASP3        0.0000 
     64 OD1       286.7900  256.1200  266.4500 O.co2     3 ASP3        0.0000 
     65 OD1       284.8700  258.7700  265.7100 O.co2     3 ASP3        0.0000 
     66 OD1       285.3700  259.6700  264.6200 O.co2     3 ASP3        0.0000 
     67 OD1       285.8600  260.5800  263.5300 O.co2     3 ASP3        0.0000 
     68 OD1       286.3600  261.4800  262.4400 O.co2     3 ASP3        0.0000 
     69 OD1       283.6700  259.6400  265.8900 O.co2     3 ASP3        0.0000 
     70 OD1       281.9600  259.6100  267.1600 O.co2     3 ASP3        0.0000 
     71 OD1       282.4600  260.5200  266.0600 O.co2     3 ASP3        0.0000 
     72 OD1       285.1200  258.6800  267.8200 O.co2     3 ASP3        0.0000 
     73 OD1       286.1100  260.4900  265.6400 O.co2     3 ASP3        0.0000 
     74 OD1       286.6000  261.3900  264.5500 O.co2     3 ASP3        0.0000 
     75 OD1       287.1000  262.3000  263.4600 O.co2     3 ASP3        0.0000 
     76 OD1       283.9100  259.5600  267.9900 O.co2     3 ASP3        0.0000 
     77 OD1       284.4100  260.4600  266.9000 O.co2     3 ASP3        0.0000 
     78 OD1       282.2100  259.5300  269.2600 O.co2     3 ASP3        0.0000 
     79 OD1       282.7100  260.4300  268.1700 O.co2     3 ASP3        0.0000 
     80 OD1       284.1600  259.4700  270.1000 O.co2     3 ASP3        0.0000 
     81 NZ        281.6900  258.1800  259.6500 N.4       4 LYS4        0.0000 
     82 NZ        281.9400  258.0900  261.7500 N.4       4 LYS4        0.0000 
     83 NZ        282.4300  258.9900  260.6600 N.4       4 LYS4        0.0000 
     84 NZ        282.9300  259.9000  259.5700 N.4       4 LYS4        0.0000 
     85 NZ        279.7400  257.1600  264.1100 N.4       4 LYS4        0.0000 
     86 NZ        280.2400  258.0600  263.0200 N.4       4 LYS4        0.0000 
     87 NZ        279.0300  258.9400  263.2000 N.4       4 LYS4        0.0000 
     88 NZ        282.6800  258.9100  262.7700 N.4       4 LYS4        0.0000 
     89 NZ        283.1700  259.8100  261.6800 N.4       4 LYS4        0.0000 
     90 NZ        280.9800  258.8800  264.0300 N.4       4 LYS4        0.0000 
     91 NZ        281.4700  259.7800  262.9400 N.4       4 LYS4        0.0000 
     92 NZ        281.9700  260.6900  261.8500 N.4       4 LYS4        0.0000 
     93 NZ        282.4600  261.5900  260.7600 N.4       4 LYS4        0.0000 
     94 NZ        278.7800  257.9500  266.3900 N.4       4 LYS4        0.0000 
     95 NZ        279.2800  258.8500  265.3000 N.4       4 LYS4        0.0000 
     96 NZ        279.7700  259.7500  264.2100 N.4       4 LYS4        0.0000 
     97 NZ        280.2700  260.6600  263.1200 N.4       4 LYS4        0.0000 
     98 NZ        278.0700  259.7200  265.4800 N.4       4 LYS4        0.0000 
     99 NZ        280.0200  259.6700  266.3200 N.4       4 LYS4        0.0000 
    100 NZ        281.2500  261.3900  266.2400 N.4       4 LYS4        0.0000 
    101 NZ        281.7500  262.2900  265.1500 N.4       4 LYS4        0.0000 
    102 NZ        281.0000  260.4000  269.4400 N.4       4 LYS4        0.0000 
    103 NZ        281.5000  261.3100  268.3500 N.4       4 LYS4        0.0000 
    104 CA        283.1500  258.2900  256.2800 C.3       5 GLY6        0.0000 
    105 CA        288.2200  254.7100  257.6800 C.3       5 GLY6        0.0000 
    106 CA        285.0900  258.2300  257.1100 C.3       5 GLY6        0.0000 
    107 CA        283.8900  259.1100  257.2900 C.3       5 GLY6        0.0000 
    108 CA        282.6800  259.9800  257.4700 C.3       5 GLY6        0.0000 
    109 CA        287.2600  255.5000  259.9600 C.3       5 GLY6        0.0000 
    110 CA        287.7500  256.4000  258.8700 C.3       5 GLY6        0.0000 
    111 CA        285.5600  255.4700  261.2200 C.3       5 GLY6        0.0000 
    112 CA        284.3500  256.3400  261.4000 C.3       5 GLY6        0.0000 
    113 CA        282.1500  255.4100  263.7600 C.3       5 GLY6        0.0000 
    114 CA        282.6500  256.3100  262.6700 C.3       5 GLY6        0.0000 
    115 CA        280.9500  256.2800  263.9300 C.3       5 GLY6        0.0000 
    116 CA        287.2900  258.0900  260.0600 C.3       5 GLY6        0.0000 
    117 CA        284.6000  256.2600  263.5100 C.3       5 GLY6        0.0000 
    118 CA        283.3900  257.1300  263.6800 C.3       5 GLY6        0.0000 
    119 CA        281.2600  262.4600  260.9400 C.3       5 GLY6        0.0000 
    120 CA        278.5600  260.6300  264.3900 C.3       5 GLY6        0.0000 
    121 CA        283.7000  263.3100  260.6900 C.3       5 GLY6        0.0000 
    122 CA        280.5100  260.5700  265.2300 C.3       5 GLY6        0.0000 
    123 CA        281.0100  261.4800  264.1400 C.3       5 GLY6        0.0000 
    124 CA        282.4900  264.1900  260.8700 C.3       5 GLY6        0.0000 
    125 CA        284.4400  264.1300  261.7000 C.3       5 GLY6        0.0000 
    126 CA        282.9500  260.3500  270.2800 C.3       5 GLY6        0.0000 
    127 CA        283.4500  261.2500  269.1900 C.3       5 GLY6        0.0000 
    128 CA        283.9400  262.1500  268.0900 C.3       5 GLY6        0.0000 
    129 CA        282.2400  262.1300  269.3600 C.3       5 GLY6        0.0000 
    130 DU        282.6500  257.3900  257.3700 H         6 CUB7        0.0000 
    131 DU        287.0100  255.5800  257.8500 H         6 CUB7        0.0000 
    132 DU        285.8100  256.4600  258.0300 H         6 CUB7        0.0000 
    133 DU        284.6000  257.3300  258.2100 H         6 CUB7        0.0000 
    134 DU        283.3900  258.2100  258.3800 H         6 CUB7        0.0000 
    135 DU        286.5500  257.2800  259.0400 H         6 CUB7        0.0000 
    136 DU        283.6400  258.1200  260.4900 H         6 CUB7        0.0000 
    137 DU        284.1300  259.0200  259.4000 H         6 CUB7        0.0000 
    138 DU        283.8800  258.0400  262.5900 H         6 CUB7        0.0000 
    139 DU        284.3800  258.9400  261.5000 H         6 CUB7        0.0000 
    140 DU        282.1800  258.0100  263.8600 H         6 CUB7        0.0000 
    141 DU        283.6700  260.7200  260.5900 H         6 CUB7        0.0000 
    142 DU        284.1300  257.9500  264.7000 H         6 CUB7        0.0000 
    143 DU        283.4200  259.7300  263.7800 H         6 CUB7        0.0000 
    144 DU        283.9200  260.6300  262.6900 H         6 CUB7        0.0000 
    145 DU        284.4100  261.5400  261.6000 H         6 CUB7        0.0000 
    146 DU        281.7200  259.7000  265.0500 H         6 CUB7        0.0000 
    147 DU        282.2100  260.6000  263.9600 H         6 CUB7        0.0000 
    148 DU        283.2000  262.4100  261.7800 H         6 CUB7        0.0000 
@<TRIPOS>BOND
@<TRIPOS>SUBSTRUCTURE
     1 SER1        1 GROUP   
     2 ALA2        9 GROUP   
     3 ASP3       43 GROUP   
     4 LYS4       81 GROUP   
     5 GLY6      104 GROUP   
     6 CUB7      130 GROUP   
@<TRIPOS>SET

