#    Name: 6e11_3_AGS
#    Modification time : Fri May 22 19:33:40 2020

@<TRIPOS>MOLECULE
6e11_3_AGS
   31    33     1     0     0
SMALL
NO_CHARGES


@<TRIPOS>ATOM
      1 PG        283.8570  262.0140  262.8240 P.3       1 AGS1002     0.0000 
      2 S1G       282.5220  261.3790  261.5640 S.2       1 AGS1002     0.0000 
      3 O2G       283.3190  261.9880  264.2740 O.3       1 AGS1002     0.0000 
      4 O3G       284.2950  263.4540  262.4430 O.3       1 AGS1002     0.0000 
      5 PB        286.1760  261.5370  261.6540 P.3       1 AGS1002     0.0000 
      6 O1B       285.5300  262.4080  260.6250 O.co2     1 AGS1002     0.0000 
      7 O2B       286.7500  260.2240  261.1830 O.co2     1 AGS1002     0.0000 
      8 O3B       285.1120  261.1240  262.7240 O.3       1 AGS1002     0.0000 
      9 PA        287.3380  263.1550  263.5810 P.3       1 AGS1002     0.0000 
     10 O1A       286.9770  264.5650  263.1080 O.co2     1 AGS1002     0.0000 
     11 O2A       286.5070  262.5970  264.6570 O.co2     1 AGS1002     0.0000 
     12 O3A       287.4050  262.2730  262.2880 O.3       1 AGS1002     0.0000 
     13 O5'       288.8110  263.0530  264.0740 O.3       1 AGS1002     0.0000 
     14 C5'       289.8010  263.1160  263.0750 C.3       1 AGS1002     0.0000 
     15 C4'       290.7130  261.9220  263.1410 C.3       1 AGS1002     0.0000 
     16 O4'       291.7400  262.0710  262.1400 O.3       1 AGS1002     0.0000 
     17 C3'       291.4840  261.7450  264.4400 C.3       1 AGS1002     0.0000 
     18 O3'       291.8550  260.3830  264.6260 O.3       1 AGS1002     0.0000 
     19 C2'       292.6950  262.6540  264.2350 C.3       1 AGS1002     0.0000 
     20 O2'       293.8660  262.1290  264.8510 O.3       1 AGS1002     0.0000 
     21 C1'       292.8530  262.7250  262.7150 C.3       1 AGS1002     0.0000 
     22 N9        292.9380  264.0660  262.1280 N.pl3     1 AGS1002     0.0000 
     23 C8        292.1760  264.4780  261.0700 C.2       1 AGS1002     0.0000 
     24 N7        292.4090  265.7100  260.6940 N.2       1 AGS1002     0.0000 
     25 C5        293.4130  266.1300  261.5440 C.ar      1 AGS1002     0.0000 
     26 C6        294.1050  267.3470  261.6630 C.ar      1 AGS1002     0.0000 
     27 N6        293.8800  268.3980  260.8730 N.pl3     1 AGS1002     0.0000 
     28 N1        295.0470  267.4460  262.6280 N.ar      1 AGS1002     0.0000 
     29 C2        295.2880  266.3840  263.4010 C.ar      1 AGS1002     0.0000 
     30 N3        294.6910  265.1900  263.3870 N.ar      1 AGS1002     0.0000 
     31 C4        293.7320  265.1390  262.4610 C.ar      1 AGS1002     0.0000 
@<TRIPOS>BOND
     1    1    2 2    
     2    1    3 1    
     3    1    4 1    
     4    1    8 1    
     5    5    6 ar   
     6    5    7 ar   
     7    5    8 1    
     8    5   12 1    
     9    9   10 ar   
    10    9   11 ar   
    11    9   12 1    
    12    9   13 1    
    13   13   14 1    
    14   14   15 1    
    15   15   16 1    
    16   15   17 1    
    17   16   21 1    
    18   17   18 1    
    19   17   19 1    
    20   19   20 1    
    21   19   21 1    
    22   21   22 1    
    23   22   23 1    
    24   22   31 1    
    25   23   24 2    
    26   24   25 1    
    27   25   26 ar   
    28   25   31 ar   
    29   26   27 1    
    30   26   28 ar   
    31   28   29 ar   
    32   29   30 ar   
    33   30   31 ar   
@<TRIPOS>SUBSTRUCTURE
     1 AGS1002     1 GROUP   
@<TRIPOS>SET

