#    Name: 6uh2_2_NAD
#    Modification time : Fri May 22 19:32:56 2020

@<TRIPOS>MOLECULE
6uh2_2_NAD
   44    48     1     0     1
SMALL
NO_CHARGES


@<TRIPOS>ATOM
      1 PA        -38.6380   53.4440  -11.8930 P.3       1 NAD301      0.0000 
      2 O1A       -39.4920   54.3070  -12.8560 O.co2     1 NAD301      0.0000 
      3 O2A       -39.1850   53.0710  -10.5140 O.co2     1 NAD301      0.0000 
      4 O5B       -37.1490   54.0960  -11.6890 O.3       1 NAD301      0.0000 
      5 C5B       -36.3810   54.6460  -12.7430 C.3       1 NAD301      0.0000 
      6 C4B       -35.4560   55.6090  -12.0490 C.3       1 NAD301      0.0000 
      7 O4B       -34.6310   56.1660  -13.1400 O.3       1 NAD301      0.0000 
      8 C3B       -36.1840   56.7830  -11.3750 C.3       1 NAD301      0.0000 
      9 O3B       -35.6680   57.0030  -10.0400 O.3       1 NAD301      0.0000 
     10 C2B       -35.8000   57.9770  -12.2600 C.3       1 NAD301      0.0000 
     11 O2B       -35.7360   59.2040  -11.5190 O.3       1 NAD301      0.0000 
     12 C1B       -34.4490   57.5320  -12.8670 C.3       1 NAD301      0.0000 
     13 N9A       -34.2080   58.3700  -14.0370 N.pl3     1 NAD301      0.0000 
     14 C8A       -35.1230   58.8090  -14.9930 C.2       1 NAD301      0.0000 
     15 N7A       -34.5580   59.6030  -15.8620 N.2       1 NAD301      0.0000 
     16 C5A       -33.2280   59.7160  -15.4580 C.ar      1 NAD301      0.0000 
     17 C6A       -32.1410   60.4300  -15.9510 C.ar      1 NAD301      0.0000 
     18 N6A       -32.2280   61.2110  -17.0460 N.pl3     1 NAD301      0.0000 
     19 N1A       -30.9650   60.3100  -15.3160 N.ar      1 NAD301      0.0000 
     20 C2A       -30.8610   59.5400  -14.2310 C.ar      1 NAD301      0.0000 
     21 N3A       -31.8490   58.8320  -13.6780 N.ar      1 NAD301      0.0000 
     22 C4A       -33.0160   58.9510  -14.3300 C.ar      1 NAD301      0.0000 
     23 O3        -38.1880   52.0860  -12.6510 O.3       1 NAD301      0.0000 
     24 PN        -37.9310   50.5740  -12.1520 P.3       1 NAD301      0.0000 
     25 O1N       -39.2060   49.7110  -12.3290 O.co2     1 NAD301      0.0000 
     26 O2N       -37.1360   50.6520  -10.8450 O.co2     1 NAD301      0.0000 
     27 O5D       -36.9530   50.1480  -13.4490 O.3       1 NAD301      0.0000 
     28 C5D       -35.5530   50.1360  -13.2690 C.3       1 NAD301      0.0000 
     29 C4D       -34.9600   49.5090  -14.5280 C.3       1 NAD301      0.0000 
     30 O4D       -35.5690   48.1870  -14.8140 O.3       1 NAD301      0.0000 
     31 C3D       -35.3140   50.3500  -15.7540 C.3       1 NAD301      0.0000 
     32 O3D       -34.2580   50.2990  -16.7210 O.3       1 NAD301      0.0000 
     33 C2D       -36.5450   49.6460  -16.4020 C.3       1 NAD301      0.0000 
     34 O2D       -36.6450   49.8470  -17.8020 O.3       1 NAD301      0.0000 
     35 C1D       -36.1770   48.1700  -16.0780 C.3       1 NAD301      0.0000 
     36 N1N       -37.3650   47.2490  -15.9840 N.pl3     1 NAD301      0.0000 
     37 C2N       -38.3910   47.5040  -15.1260 C.ar      1 NAD301      0.0000 
     38 C3N       -39.4510   46.6340  -15.0790 C.ar      1 NAD301      0.0000 
     39 C7N       -40.5720   46.9250  -14.1410 C.2       1 NAD301      0.0000 
     40 O7N       -41.5910   46.2580  -14.2360 O.2       1 NAD301      0.0000 
     41 N7N       -40.4100   47.9040  -13.2230 N.am      1 NAD301      0.0000 
     42 C4N       -39.4400   45.5030  -15.9140 C.ar      1 NAD301      0.0000 
     43 C5N       -38.4010   45.2780  -16.7670 C.ar      1 NAD301      0.0000 
     44 C6N       -37.3390   46.1790  -16.7890 C.ar      1 NAD301      0.0000 
@<TRIPOS>BOND
     1    1    2 ar   
     2    1    3 ar   
     3    1    4 1    
     4    1   23 1    
     5    4    5 1    
     6    5    6 1    
     7    6    7 1    
     8    6    8 1    
     9    7   12 1    
    10    8    9 1    
    11    8   10 1    
    12   10   11 1    
    13   10   12 1    
    14   12   13 1    
    15   13   14 1    
    16   13   22 1    
    17   14   15 2    
    18   15   16 1    
    19   16   17 ar   
    20   16   22 ar   
    21   17   18 1    
    22   17   19 ar   
    23   19   20 ar   
    24   20   21 ar   
    25   21   22 ar   
    26   23   24 1    
    27   24   25 ar   
    28   24   26 ar   
    29   24   27 1    
    30   27   28 1    
    31   28   29 1    
    32   29   30 1    
    33   29   31 1    
    34   30   35 1    
    35   31   32 1    
    36   31   33 1    
    37   33   34 1    
    38   33   35 1    
    39   35   36 1    
    40   36   37 ar   
    41   36   44 ar   
    42   37   38 ar   
    43   38   39 1    
    44   38   42 ar   
    45   39   40 2    
    46   39   41 am   
    47   42   43 ar   
    48   43   44 ar   
@<TRIPOS>SUBSTRUCTURE
     1 NAD301      1 GROUP   
@<TRIPOS>SET
ATOM$ORANGE STATIC     ATOMS   COLORGROUP SYSTEM 
42 5 5 6 6 8 8 10 10 12 12 14 14 16 16 17 17 20 \
20 22 22 28 28 29 29 31 31 33 33 35 35 37 37 38 38 39 \
39 42 42 43 43 44 44 

