#    Name: 6uh2_2_NAD_CAVITY_N1_ALL
#    Modification time : Fri May 22 19:32:58 2020

@<TRIPOS>MOLECULE
6uh2_2_NAD_CAVITY_N1_ALL
   81     0     6     0     0
SMALL
NO_CHARGES


@<TRIPOS>ATOM
      1 OG        -41.3600   48.6000  -18.4200 O.3       1 SER1        0.0000 
      2 OG        -39.6400   47.0400  -16.5300 O.3       1 SER1        0.0000 
      3 OG        -37.6700   46.2400  -16.6000 O.3       1 SER1        0.0000 
      4 OG        -40.8200   49.8800  -17.8600 O.3       1 SER1        0.0000 
      5 OG        -39.9600   49.1000  -16.9100 O.3       1 SER1        0.0000 
      6 OG        -39.1000   48.3200  -15.9600 O.3       1 SER1        0.0000 
      7 OG        -37.1300   47.5200  -16.0300 O.3       1 SER1        0.0000 
      8 OG        -40.2800   51.1600  -17.3000 O.3       1 SER1        0.0000 
      9 OG        -39.4200   50.3800  -16.3500 O.3       1 SER1        0.0000 
     10 OG        -38.3200   50.3600  -17.3700 O.3       1 SER1        0.0000 
     11 OG        -37.4500   49.5800  -16.4200 O.3       1 SER1        0.0000 
     12 OG        -36.3500   49.5600  -17.4400 O.3       1 SER1        0.0000 
     13 O         -42.3800   45.7900  -15.0500 O.2       2 ALA2        0.0000 
     14 N         -40.4200   44.9900  -15.1200 N.am      2 ALA2        0.0000 
     15 N         -39.3100   44.9800  -16.1400 N.am      2 ALA2        0.0000 
     16 O         -43.8000   47.8700  -14.4200 O.2       2 ALA2        0.0000 
     17 O         -41.8400   47.0700  -14.4900 O.2       2 ALA2        0.0000 
     18 N         -36.0300   47.5000  -17.0500 N.am      2 ALA2        0.0000 
     19 N         -35.1700   46.7200  -16.1000 N.am      2 ALA2        0.0000 
     20 N         -39.9000   48.8600  -12.4200 N.am      2 ALA2        0.0000 
     21 N         -39.7400   52.4400  -16.7300 N.am      2 ALA2        0.0000 
     22 N         -38.8800   51.6600  -15.7900 N.am      2 ALA2        0.0000 
     23 N         -38.0200   50.8800  -14.8400 N.am      2 ALA2        0.0000 
     24 N         -37.7800   51.6400  -16.8000 N.am      2 ALA2        0.0000 
     25 N         -36.9100   50.8600  -15.8600 N.am      2 ALA2        0.0000 
     26 N         -36.0500   50.0800  -14.9100 N.am      2 ALA2        0.0000 
     27 N         -35.1900   49.3000  -13.9600 N.am      2 ALA2        0.0000 
     28 N         -34.9500   50.0700  -15.9300 N.am      2 ALA2        0.0000 
     29 O         -38.8200   51.4200  -11.2900 O.2       2 ALA2        0.0000 
     30 O         -36.8500   50.6200  -11.3600 O.2       2 ALA2        0.0000 
     31 N         -37.4800   52.1600  -14.2800 N.am      2 ALA2        0.0000 
     32 N         -35.5100   51.3700  -14.3500 N.am      2 ALA2        0.0000 
     33 N         -36.9400   53.4400  -13.7100 N.am      2 ALA2        0.0000 
     34 N         -36.0700   52.6600  -12.7700 N.am      2 ALA2        0.0000 
     35 OD1       -35.4900   48.7900  -16.4900 O.co2     3 ASP3        0.0000 
     36 CZ        -42.7900   50.6800  -17.7900 C.ar      4 PHE5        0.0000 
     37 CZ        -39.1800   51.1400  -18.3100 C.ar      4 PHE5        0.0000 
     38 CZ        -34.6300   48.0100  -15.5400 C.ar      4 PHE5        0.0000 
     39 CA        -43.2400   46.5700  -16.0000 C.3       5 GLY6        0.0000 
     40 CA        -41.2800   45.7700  -16.0700 C.3       5 GLY6        0.0000 
     41 CA        -40.9800   46.2900  -13.5400 C.3       5 GLY6        0.0000 
     42 CA        -39.8700   46.2800  -14.5600 C.3       5 GLY6        0.0000 
     43 CA        -39.0100   45.5000  -13.6100 C.3       5 GLY6        0.0000 
     44 CA        -37.9100   45.4800  -14.6300 C.3       5 GLY6        0.0000 
     45 CA        -36.8100   45.4600  -15.6500 C.3       5 GLY6        0.0000 
     46 CA        -40.4400   47.5700  -12.9800 C.3       5 GLY6        0.0000 
     47 CA        -39.3300   47.5600  -14.0000 C.3       5 GLY6        0.0000 
     48 CA        -41.6800   50.6600  -18.8100 C.3       5 GLY6        0.0000 
     49 CA        -38.2300   47.5400  -15.0200 C.3       5 GLY6        0.0000 
     50 CA        -36.2700   46.7400  -15.0900 C.3       5 GLY6        0.0000 
     51 CA        -41.1400   51.9400  -18.2400 C.3       5 GLY6        0.0000 
     52 CA        -37.6900   48.8200  -14.4500 C.3       5 GLY6        0.0000 
     53 CA        -35.7300   48.0200  -14.5200 C.3       5 GLY6        0.0000 
     54 CA        -37.3900   49.3400  -11.9300 C.3       5 GLY6        0.0000 
     55 CA        -36.2900   49.3200  -12.9400 C.3       5 GLY6        0.0000 
     56 CA        -35.8100   50.8500  -16.8700 C.3       5 GLY6        0.0000 
     57 CA        -35.7500   50.6000  -12.3800 C.3       5 GLY6        0.0000 
     58 CA        -37.1700   52.6800  -11.7500 C.3       5 GLY6        0.0000 
     59 DU        -42.1400   46.5500  -17.0200 H         6 CUB7        0.0000 
     60 DU        -42.7000   47.8500  -15.4400 H         6 CUB7        0.0000 
     61 DU        -42.4600   48.6100  -17.4000 H         6 CUB7        0.0000 
     62 DU        -41.6000   47.8300  -16.4600 H         6 CUB7        0.0000 
     63 DU        -40.7400   47.0600  -15.5100 H         6 CUB7        0.0000 
     64 DU        -38.7700   46.2600  -15.5800 H         6 CUB7        0.0000 
     65 DU        -41.3000   48.3500  -13.9300 H         6 CUB7        0.0000 
     66 DU        -41.9200   49.9000  -16.8400 H         6 CUB7        0.0000 
     67 DU        -41.0600   49.1200  -15.8900 H         6 CUB7        0.0000 
     68 DU        -40.2000   48.3400  -14.9500 H         6 CUB7        0.0000 
     69 DU        -40.7600   49.6400  -13.3700 H         6 CUB7        0.0000 
     70 DU        -41.3800   51.1800  -16.2800 H         6 CUB7        0.0000 
     71 DU        -40.5200   50.4000  -15.3300 H         6 CUB7        0.0000 
     72 DU        -39.6600   49.6200  -14.3800 H         6 CUB7        0.0000 
     73 DU        -38.5600   49.6000  -15.4000 H         6 CUB7        0.0000 
     74 DU        -36.5900   48.8000  -15.4700 H         6 CUB7        0.0000 
     75 DU        -39.9800   51.6800  -14.7700 H         6 CUB7        0.0000 
     76 DU        -39.1200   50.9000  -13.8200 H         6 CUB7        0.0000 
     77 DU        -38.2500   50.1200  -12.8700 H         6 CUB7        0.0000 
     78 DU        -37.1500   50.1000  -13.8900 H         6 CUB7        0.0000 
     79 DU        -38.5800   52.1800  -13.2600 H         6 CUB7        0.0000 
     80 DU        -37.7100   51.4000  -12.3100 H         6 CUB7        0.0000 
     81 DU        -36.6100   51.3800  -13.3300 H         6 CUB7        0.0000 
@<TRIPOS>BOND
@<TRIPOS>SUBSTRUCTURE
     1 SER1        1 GROUP   
     2 ALA2       13 GROUP   
     3 ASP3       35 GROUP   
     4 PHE5       36 GROUP   
     5 GLY6       39 GROUP   
     6 CUB7       59 GROUP   
@<TRIPOS>SET

