#    Name: 6uh2_1_NAD
#    Modification time : Fri May 22 19:32:53 2020

@<TRIPOS>MOLECULE
6uh2_1_NAD
   44    48     1     0     1
SMALL
NO_CHARGES


@<TRIPOS>ATOM
      1 PA        -16.0710   14.0990  -18.2590 P.3       1 NAD301      0.0000 
      2 O1A       -15.9090   13.1820  -19.4870 O.co2     1 NAD301      0.0000 
      3 O2A       -14.8870   14.5260  -17.3590 O.co2     1 NAD301      0.0000 
      4 O5B       -17.2560   13.5110  -17.2960 O.3       1 NAD301      0.0000 
      5 C5B       -18.4280   12.9270  -17.8310 C.3       1 NAD301      0.0000 
      6 C4B       -18.8750   11.9920  -16.7490 C.3       1 NAD301      0.0000 
      7 O4B       -20.1280   11.4110  -17.2650 O.3       1 NAD301      0.0000 
      8 C3B       -17.9030   10.8180  -16.5190 C.3       1 NAD301      0.0000 
      9 O3B       -17.7110   10.6150  -15.1000 O.3       1 NAD301      0.0000 
     10 C2B       -18.6630    9.6220  -17.0930 C.3       1 NAD301      0.0000 
     11 O2B       -18.3440    8.4270  -16.3820 O.3       1 NAD301      0.0000 
     12 C1B       -20.1330   10.0630  -16.9040 C.3       1 NAD301      0.0000 
     13 N9A       -20.9700    9.2440  -17.7660 N.pl3     1 NAD301      0.0000 
     14 C8A       -20.7350    8.8600  -19.0850 C.2       1 NAD301      0.0000 
     15 N7A       -21.6820    8.0820  -19.5240 N.2       1 NAD301      0.0000 
     16 C5A       -22.5570    7.9070  -18.4560 C.ar      1 NAD301      0.0000 
     17 C6A       -23.7370    7.1820  -18.2960 C.ar      1 NAD301      0.0000 
     18 N6A       -24.2600    6.4500  -19.2840 N.pl3     1 NAD301      0.0000 
     19 N1A       -24.3650    7.2390  -17.1160 N.ar      1 NAD301      0.0000 
     20 C2A       -23.8540    7.9680  -16.1290 C.ar      1 NAD301      0.0000 
     21 N3A       -22.7350    8.6880  -16.1830 N.ar      1 NAD301      0.0000 
     22 C4A       -22.1190    8.6330  -17.3730 C.ar      1 NAD301      0.0000 
     23 O3        -16.8530   15.4560  -18.7020 O.3       1 NAD301      0.0000 
     24 PN        -16.9500   16.9480  -18.0930 P.3       1 NAD301      0.0000 
     25 O1N       -16.0090   17.9200  -18.8300 O.co2     1 NAD301      0.0000 
     26 O2N       -16.9930   16.8640  -16.5680 O.co2     1 NAD301      0.0000 
     27 O5D       -18.4800   17.3690  -18.6820 O.3       1 NAD301      0.0000 
     28 C5D       -19.5890   17.4490  -17.8070 C.3       1 NAD301      0.0000 
     29 C4D       -20.7320   18.0820  -18.6010 C.3       1 NAD301      0.0000 
     30 O4D       -20.3170   19.3690  -19.1960 O.3       1 NAD301      0.0000 
     31 C3D       -21.0790   17.2290  -19.8170 C.3       1 NAD301      0.0000 
     32 O3D       -22.4970   17.3120  -20.1150 O.3       1 NAD301      0.0000 
     33 C2D       -20.3230   17.8730  -21.0150 C.3       1 NAD301      0.0000 
     34 O2D       -20.9930   17.6590  -22.2430 O.3       1 NAD301      0.0000 
     35 C1D       -20.4250   19.3620  -20.5900 C.3       1 NAD301      0.0000 
     36 N1N       -19.3720   20.2890  -21.1560 N.pl3     1 NAD301      0.0000 
     37 C2N       -18.0370   20.0910  -20.9790 C.ar      1 NAD301      0.0000 
     38 C3N       -17.1400   20.9770  -21.5180 C.ar      1 NAD301      0.0000 
     39 C7N       -15.6780   20.7220  -21.3220 C.2       1 NAD301      0.0000 
     40 O7N       -14.8590   21.3640  -21.9750 O.2       1 NAD301      0.0000 
     41 N7N       -15.3110   19.7770  -20.4330 N.am      1 NAD301      0.0000 
     42 C4N       -17.6320   22.0730  -22.2480 C.ar      1 NAD301      0.0000 
     43 C5N       -18.9700   22.2620  -22.4090 C.ar      1 NAD301      0.0000 
     44 C6N       -19.8410   21.3350  -21.8370 C.ar      1 NAD301      0.0000 
@<TRIPOS>BOND
     1   31   33 1    
     2   33   34 1    
     3   33   35 1    
     4   35   36 1    
     5   36   37 ar   
     6   36   44 ar   
     7   37   38 ar   
     8   38   39 1    
     9   38   42 ar   
    10   39   40 2    
    11   39   41 am   
    12   42   43 ar   
    13   43   44 ar   
    14    1    2 ar   
    15    1    3 ar   
    16    1    4 1    
    17    1   23 1    
    18    4    5 1    
    19    5    6 1    
    20    6    7 1    
    21    6    8 1    
    22    7   12 1    
    23    8    9 1    
    24    8   10 1    
    25   10   11 1    
    26   10   12 1    
    27   12   13 1    
    28   13   14 1    
    29   13   22 1    
    30   14   15 2    
    31   15   16 1    
    32   16   17 ar   
    33   16   22 ar   
    34   17   18 1    
    35   17   19 ar   
    36   19   20 ar   
    37   20   21 ar   
    38   21   22 ar   
    39   23   24 1    
    40   24   25 ar   
    41   24   26 ar   
    42   24   27 1    
    43   27   28 1    
    44   28   29 1    
    45   29   30 1    
    46   29   31 1    
    47   30   35 1    
    48   31   32 1    
@<TRIPOS>SUBSTRUCTURE
     1 NAD301      1 GROUP   
@<TRIPOS>SET
ATOM$ORANGE STATIC     ATOMS   COLORGROUP SYSTEM 
42 5 5 6 6 8 8 10 10 12 12 14 14 16 16 17 17 20 \
20 22 22 28 28 29 29 31 31 33 33 35 35 37 37 38 38 39 \
39 42 42 43 43 44 44 

