#    Name: 6uh2_1_NAD_CAVITY_N1_12
#    Modification time : Fri May 22 19:32:55 2020

@<TRIPOS>MOLECULE
6uh2_1_NAD_CAVITY_N1_12
  110     0     6     0     0
SMALL
NO_CHARGES


@<TRIPOS>ATOM
      1 OG        -21.0300   17.1900  -22.4000 O.3       1 SER1        0.0000 
      2 OG        -18.8300   17.1600  -24.4400 O.3       1 SER1        0.0000 
      3 OG        -17.9700   16.3800  -23.4900 O.3       1 SER1        0.0000 
      4 OG        -20.4900   18.4700  -21.8400 O.3       1 SER1        0.0000 
      5 OG        -19.6300   17.6900  -20.8900 O.3       1 SER1        0.0000 
      6 OG        -18.5300   17.6800  -21.9100 O.3       1 SER1        0.0000 
      7 OG        -17.4300   17.6600  -22.9300 O.3       1 SER1        0.0000 
      8 OG        -17.1900   18.4200  -24.8900 O.3       1 SER1        0.0000 
      9 OG        -20.8200   20.5400  -22.2200 O.3       1 SER1        0.0000 
     10 OG        -19.9500   19.7600  -21.2800 O.3       1 SER1        0.0000 
     11 OG        -18.8500   19.7400  -22.2900 O.3       1 SER1        0.0000 
     12 OG        -17.9900   18.9600  -21.3500 O.3       1 SER1        0.0000 
     13 OG        -17.7500   19.7200  -23.3100 O.3       1 SER1        0.0000 
     14 OG        -17.5100   20.4800  -25.2800 O.3       1 SER1        0.0000 
     15 OG        -16.6500   19.7000  -24.3300 O.3       1 SER1        0.0000 
     16 OG        -14.2000   20.4300  -28.3300 O.3       1 SER1        0.0000 
     17 OG        -13.3400   19.6500  -27.3800 O.3       1 SER1        0.0000 
     18 OG        -19.1700   21.8000  -22.6800 O.3       1 SER1        0.0000 
     19 OG        -18.3100   21.0200  -21.7300 O.3       1 SER1        0.0000 
     20 OG        -18.0700   21.7800  -23.7000 O.3       1 SER1        0.0000 
     21 O         -20.4100   15.6500  -19.4900 O.2       2 ALA2        0.0000 
     22 N         -19.5500   14.8700  -18.5400 N.am      2 ALA2        0.0000 
     23 N         -20.1700   16.4100  -21.4500 N.am      2 ALA2        0.0000 
     24 N         -19.3100   15.6300  -20.5100 N.am      2 ALA2        0.0000 
     25 N         -18.4500   14.8500  -19.5600 N.am      2 ALA2        0.0000 
     26 N         -19.0700   16.4000  -22.4700 N.am      2 ALA2        0.0000 
     27 N         -18.2100   15.6200  -21.5200 N.am      2 ALA2        0.0000 
     28 N         -20.1100   16.1700  -16.9600 N.am      2 ALA2        0.0000 
     29 N         -20.7300   17.7100  -19.8700 N.am      2 ALA2        0.0000 
     30 N         -19.8700   16.9300  -18.9200 N.am      2 ALA2        0.0000 
     31 N         -19.0100   16.1500  -17.9800 N.am      2 ALA2        0.0000 
     32 N         -21.0600   19.7700  -20.2600 N.am      2 ALA2        0.0000 
     33 O         -16.5000   16.6400  -17.4800 O.2       2 ALA2        0.0000 
     34 O         -12.7200   18.1100  -24.4700 O.2       2 ALA2        0.0000 
     35 O         -11.6200   18.0900  -25.4900 O.2       2 ALA2        0.0000 
     36 O         -13.0400   20.1700  -24.8500 O.2       2 ALA2        0.0000 
     37 O         -12.1800   19.3900  -23.9100 O.2       2 ALA2        0.0000 
     38 O         -11.9400   20.1500  -25.8700 O.2       2 ALA2        0.0000 
     39 N         -18.6300   23.0800  -22.1200 N.am      2 ALA2        0.0000 
     40 N         -17.5300   23.0600  -23.1300 N.am      2 ALA2        0.0000 
     41 N         -16.6700   22.2800  -22.1900 N.am      2 ALA2        0.0000 
     42 O         -14.7000   21.4900  -22.2600 O.2       2 ALA2        0.0000 
     43 O         -13.6000   21.4700  -23.2700 O.2       2 ALA2        0.0000 
     44 OD1       -21.6000   18.4900  -20.8200 O.co2     3 ASP3        0.0000 
     45 CZ        -15.7600   16.3400  -25.5200 C.ar      4 PHE5        0.0000 
     46 CZ        -13.8000   15.5500  -25.5900 C.ar      4 PHE5        0.0000 
     47 CZ        -14.1200   17.6100  -25.9800 C.ar      4 PHE5        0.0000 
     48 CZ        -13.8800   18.3700  -27.9400 C.ar      4 PHE5        0.0000 
     49 CZ        -16.4100   20.4600  -26.2900 C.ar      4 PHE5        0.0000 
     50 CZ        -15.3100   20.4500  -27.3100 C.ar      4 PHE5        0.0000 
     51 CZ        -15.8700   21.7500  -25.7300 C.ar      4 PHE5        0.0000 
     52 CZ        -14.7700   21.7300  -26.7500 C.ar      4 PHE5        0.0000 
     53 CZ        -12.8000   20.9300  -26.8200 C.ar      4 PHE5        0.0000 
     54 CA        -19.6100   15.1100  -23.0300 C.3       5 GLY6        0.0000 
     55 CA        -18.5100   15.1000  -24.0500 C.3       5 GLY6        0.0000 
     56 CA        -21.2700   16.4300  -20.4400 C.3       5 GLY6        0.0000 
     57 CA        -17.7300   17.1400  -25.4500 C.3       5 GLY6        0.0000 
     58 CA        -16.8700   16.3600  -24.5100 C.3       5 GLY6        0.0000 
     59 CA        -20.1900   18.9900  -19.3100 C.3       5 GLY6        0.0000 
     60 CA        -19.3300   18.2100  -18.3600 C.3       5 GLY6        0.0000 
     61 CA        -18.4700   17.4300  -17.4100 C.3       5 GLY6        0.0000 
     62 CA        -19.0900   18.9800  -20.3300 C.3       5 GLY6        0.0000 
     63 CA        -18.2300   18.2000  -19.3800 C.3       5 GLY6        0.0000 
     64 CA        -17.3700   17.4200  -18.4300 C.3       5 GLY6        0.0000 
     65 CA        -20.2800   21.8200  -21.6600 C.3       5 GLY6        0.0000 
     66 CA        -19.4100   21.0400  -20.7100 C.3       5 GLY6        0.0000 
     67 CA        -18.5500   20.2600  -19.7700 C.3       5 GLY6        0.0000 
     68 CA        -17.4500   20.2400  -20.7800 C.3       5 GLY6        0.0000 
     69 CA        -16.5900   19.4600  -19.8400 C.3       5 GLY6        0.0000 
     70 CA        -15.7200   18.6800  -18.8900 C.3       5 GLY6        0.0000 
     71 CA        -17.7700   22.3000  -21.1700 C.3       5 GLY6        0.0000 
     72 CA        -16.9100   21.5200  -20.2200 C.3       5 GLY6        0.0000 
     73 CA        -16.0500   20.7400  -19.2700 C.3       5 GLY6        0.0000 
     74 CA        -15.8100   21.5000  -21.2400 C.3       5 GLY6        0.0000 
     75 CA        -14.9400   20.7200  -20.2900 C.3       5 GLY6        0.0000 
     76 CA        -16.4300   23.0400  -24.1500 C.3       5 GLY6        0.0000 
     77 CA        -15.5700   22.2700  -23.2000 C.3       5 GLY6        0.0000 
     78 CA        -15.3300   23.0300  -25.1700 C.3       5 GLY6        0.0000 
     79 CA        -14.4700   22.2500  -24.2200 C.3       5 GLY6        0.0000 
     80 CA        -14.2300   23.0100  -26.1900 C.3       5 GLY6        0.0000 
     81 CA        -13.3600   22.2300  -25.2400 C.3       5 GLY6        0.0000 
     82 DU        -18.7700   16.9100  -19.9400 H         6 CUB7        0.0000 
     83 DU        -17.9100   16.1400  -18.9900 H         6 CUB7        0.0000 
     84 DU        -17.0400   15.3600  -18.0500 H         6 CUB7        0.0000 
     85 DU        -17.6700   16.9000  -20.9600 H         6 CUB7        0.0000 
     86 DU        -16.8000   16.1200  -20.0100 H         6 CUB7        0.0000 
     87 DU        -16.3300   17.6400  -23.9400 H         6 CUB7        0.0000 
     88 DU        -16.0900   18.4000  -25.9100 H         6 CUB7        0.0000 
     89 DU        -15.2200   17.6200  -24.9600 H         6 CUB7        0.0000 
     90 DU        -14.3600   16.8400  -24.0100 H         6 CUB7        0.0000 
     91 DU        -14.9800   18.3900  -26.9300 H         6 CUB7        0.0000 
     92 DU        -13.2600   16.8300  -25.0300 H         6 CUB7        0.0000 
     93 DU        -17.1300   18.1800  -20.4000 H         6 CUB7        0.0000 
     94 DU        -16.2600   17.4000  -19.4500 H         6 CUB7        0.0000 
     95 DU        -16.8900   18.9400  -22.3600 H         6 CUB7        0.0000 
     96 DU        -15.7800   18.9200  -23.3800 H         6 CUB7        0.0000 
     97 DU        -15.5500   19.6900  -25.3500 H         6 CUB7        0.0000 
     98 DU        -13.8200   18.1300  -23.4500 H         6 CUB7        0.0000 
     99 DU        -14.4400   19.6700  -26.3600 H         6 CUB7        0.0000 
    100 DU        -13.5800   18.8900  -25.4200 H         6 CUB7        0.0000 
    101 DU        -12.4800   18.8700  -26.4300 H         6 CUB7        0.0000 
    102 DU        -17.2100   21.0000  -22.7500 H         6 CUB7        0.0000 
    103 DU        -16.3500   20.2200  -21.8000 H         6 CUB7        0.0000 
    104 DU        -15.4800   19.4400  -20.8500 H         6 CUB7        0.0000 
    105 DU        -16.9700   21.7600  -24.7100 H         6 CUB7        0.0000 
    106 DU        -16.1100   20.9800  -23.7700 H         6 CUB7        0.0000 
    107 DU        -15.2400   20.2000  -22.8200 H         6 CUB7        0.0000 
    108 DU        -15.0100   20.9700  -24.7800 H         6 CUB7        0.0000 
    109 DU        -14.1400   20.1900  -23.8400 H         6 CUB7        0.0000 
    110 DU        -13.9000   20.9500  -25.8000 H         6 CUB7        0.0000 
@<TRIPOS>BOND
@<TRIPOS>SUBSTRUCTURE
     1 SER1        1 GROUP   
     2 ALA2       21 GROUP   
     3 ASP3       44 GROUP   
     4 PHE5       45 GROUP   
     5 GLY6       54 GROUP   
     6 CUB7       82 GROUP   
@<TRIPOS>SET

