#    Name: 6u9v_3_GDP
#    Modification time : Fri May 22 19:26:37 2020

@<TRIPOS>MOLECULE
6u9v_3_GDP
   40    42     1     0     1
SMALL
NO_CHARGES


@<TRIPOS>ATOM
      1 PB        179.8320  141.9770  114.3080 P.3       1 GDP701      0.0000 
      2 O1B       180.0780  142.0330  112.8190 O.co2     1 GDP701      0.0000 
      3 O2B       180.7630  140.9670  114.9350 O.co2     1 GDP701      0.0000 
      4 O3B       180.0870  143.3380  114.9100 O.co2     1 GDP701      0.0000 
      5 O3A       178.2710  141.5320  114.5850 O.3       1 GDP701      0.0000 
      6 PA        176.9730  142.4430  114.1370 P.3       1 GDP701      0.0000 
      7 O1A       177.2240  143.0280  112.7680 O.co2     1 GDP701      0.0000 
      8 O2A       175.7380  141.5760  114.0930 O.co2     1 GDP701      0.0000 
      9 O5'       176.7410  143.6650  115.2180 O.3       1 GDP701      0.0000 
     10 C5'       177.2290  143.5390  116.5230 C.3       1 GDP701      0.0000 
     11 C4'       177.2920  144.9200  117.1500 C.3       1 GDP701      0.0000 
     12 O4'       175.8800  145.6710  116.9010 O.3       1 GDP701      0.0000 
     13 C3'       177.4830  144.8510  118.4410 C.3       1 GDP701      0.0000 
     14 O3'       178.3630  145.9760  118.8830 O.3       1 GDP701      0.0000 
     15 C2'       176.0930  145.0000  119.0830 C.3       1 GDP701      0.0000 
     16 O2'       176.1850  145.7180  120.2300 O.3       1 GDP701      0.0000 
     17 C1'       175.2510  145.7710  118.0420 C.3       1 GDP701      0.0000 
     18 N9        173.8900  145.1980  117.9440 N.pl3     1 GDP701      0.0000 
     19 C8        173.8810  144.1200  117.1380 C.2       1 GDP701      0.0000 
     20 N7        172.6120  143.6640  117.1080 N.2       1 GDP701      0.0000 
     21 C5        171.8650  144.4540  117.8780 C.2       1 GDP701      0.0000 
     22 C6        170.3720  144.4330  118.2240 C.2       1 GDP701      0.0000 
     23 O6        169.6700  143.5950  117.7680 O.2       1 GDP701      0.0000 
     24 N1        169.8280  145.4270  119.0960 N.am      1 GDP701      0.0000 
     25 C2        170.6880  146.4450  119.6470 C.2       1 GDP701      0.0000 
     26 N2        170.1390  147.4540  120.5320 N.pl3     1 GDP701      0.0000 
     27 N3        172.1100  146.4610  119.3140 N.2       1 GDP701      0.0000 
     28 C4        172.6680  145.4210  118.4040 C.2       1 GDP701      0.0000 
     29 H5'       178.1160  143.1480  116.5050 H         1 GDP701      0.0000 
     30 H5''      176.6320  142.9720  117.0350 H         1 GDP701      0.0000 
     31 H4'       178.0080  145.4320  116.7480 H         1 GDP701      0.0000 
     32 H3'       177.8770  143.9990  118.6860 H         1 GDP701      0.0000 
     33 HO3'      177.8850  146.6570  119.0570 H         1 GDP701      0.0000 
     34 H2'       175.7130  144.1270  119.2630 H         1 GDP701      0.0000 
     35 HO2'      176.9610  145.6210  120.5630 H         1 GDP701      0.0000 
     36 H1'       175.1970  146.7050  118.2990 H         1 GDP701      0.0000 
     37 H8        174.6070  143.7520  116.6910 H         1 GDP701      0.0000 
     38 HN1       168.9910  145.4180  119.2910 H         1 GDP701      0.0000 
     39 HN21      169.3020  147.4440  120.7280 H         1 GDP701      0.0000 
     40 HN22      170.6510  148.0610  120.8610 H         1 GDP701      0.0000 
@<TRIPOS>BOND
     1    1    2 ar   
     2    1    3 ar   
     3    1    4 ar   
     4    1    5 1    
     5    5    6 1    
     6    6    7 ar   
     7    6    8 ar   
     8    6    9 1    
     9    9   10 1    
    10   10   11 1    
    11   10   29 1    
    12   10   30 1    
    13   11   12 1    
    14   11   13 1    
    15   11   31 1    
    16   13   32 1    
    17   12   17 1    
    18   13   14 1    
    19   13   15 1    
    20   15   16 1    
    21   14   33 1    
    22   15   17 1    
    23   15   34 1    
    24   16   35 1    
    25   17   18 1    
    26   17   36 1    
    27   18   19 1    
    28   18   28 1    
    29   19   20 2    
    30   20   21 1    
    31   19   37 1    
    32   21   22 1    
    33   21   28 2    
    34   22   23 2    
    35   22   24 am   
    36   24   25 1    
    37   25   26 1    
    38   24   38 1    
    39   25   27 2    
    40   27   28 1    
    41   26   39 1    
    42   26   40 1    
@<TRIPOS>SUBSTRUCTURE
     1 GDP701      1 GROUP   
@<TRIPOS>SET
ATOM$ORANGE STATIC     ATOMS   COLORGROUP SYSTEM 
20 10 10 11 11 13 13 15 15 17 17 19 19 21 21 22 22 25 \
25 28 28 

