#    Name: 6u9v_3_GDP_CAVITY_N1_12
#    Modification time : Fri May 22 19:26:38 2020

@<TRIPOS>MOLECULE
6u9v_3_GDP_CAVITY_N1_12
  114     0     7     0     0
SMALL
NO_CHARGES


@<TRIPOS>ATOM
      1 OG        177.2800  143.8400  114.4800 O.3       1 SER1        0.0000 
      2 OG        179.3800  143.6500  114.2700 O.3       1 SER1        0.0000 
      3 OG        181.4800  143.4600  114.0600 O.3       1 SER1        0.0000 
      4 OG        177.4400  144.0000  115.9600 O.3       1 SER1        0.0000 
      5 OG        179.5400  143.8100  115.7500 O.3       1 SER1        0.0000 
      6 OG        177.6100  144.1700  117.4400 O.3       1 SER1        0.0000 
      7 OG        178.7400  145.1200  117.2100 O.3       1 SER1        0.0000 
      8 N         178.2500  142.6900  114.5000 N.am      2 ALA2        0.0000 
      9 O         179.2100  141.5500  114.5200 O.2       2 ALA2        0.0000 
     10 N         176.3100  143.0500  116.1900 N.am      2 ALA2        0.0000 
     11 N         178.4100  142.8600  115.9800 N.am      2 ALA2        0.0000 
     12 N         169.2000  144.9300  118.2900 N.am      2 ALA2        0.0000 
     13 N         174.3700  143.4000  117.8900 N.am      2 ALA2        0.0000 
     14 N         175.5000  144.3600  117.6600 N.am      2 ALA2        0.0000 
     15 N         176.4700  143.2100  117.6700 N.am      2 ALA2        0.0000 
     16 O         172.7600  149.8900  117.3500 O.2       2 ALA2        0.0000 
     17 N         178.5700  143.0200  117.4600 N.am      2 ALA2        0.0000 
     18 N         174.8700  149.7000  117.1300 N.am      2 ALA2        0.0000 
     19 N         170.3300  143.9500  119.7900 N.am      2 ALA2        0.0000 
     20 N         169.5300  147.1900  119.5200 N.am      2 ALA2        0.0000 
     21 N         170.5000  146.0500  119.5400 N.am      2 ALA2        0.0000 
     22 N         170.6600  148.1500  119.2900 N.am      2 ALA2        0.0000 
     23 N         175.6700  144.5200  119.1400 N.am      2 ALA2        0.0000 
     24 N         170.6600  146.2100  121.0200 N.am      2 ALA2        0.0000 
     25 N         170.8300  148.3100  120.7700 N.am      2 ALA2        0.0000 
     26 N         170.9900  150.4100  120.5200 N.am      2 ALA2        0.0000 
     27 N         171.9600  149.2700  120.5400 N.am      2 ALA2        0.0000 
     28 N         174.8600  145.8300  120.6000 N.am      2 ALA2        0.0000 
     29 O         175.8300  144.6800  120.6200 O.2       2 ALA2        0.0000 
     30 N         175.0300  145.9900  122.0800 N.am      2 ALA2        0.0000 
     31 N         176.1600  146.9500  121.8500 N.am      2 ALA2        0.0000 
     32 N         177.1300  145.8000  121.8700 N.am      2 ALA2        0.0000 
     33 N         177.2900  145.9700  123.3500 N.am      2 ALA2        0.0000 
     34 OD1       180.1800  142.3400  112.8100 O.co2     3 ASP3        0.0000 
     35 OD1       180.1800  140.4000  114.5400 O.co2     3 ASP3        0.0000 
     36 OD1       180.3500  142.5000  114.2900 O.co2     3 ASP3        0.0000 
     37 OD1       171.1400  144.5700  116.6000 O.co2     3 ASP3        0.0000 
     38 OD1       172.1000  143.4300  116.6200 O.co2     3 ASP3        0.0000 
     39 OD1       170.1700  143.7800  118.3100 O.co2     3 ASP3        0.0000 
     40 OD1       171.1300  142.6400  118.3300 O.co2     3 ASP3        0.0000 
     41 OD1       171.3000  144.7400  118.0800 O.co2     3 ASP3        0.0000 
     42 OD1       172.2700  143.5900  118.1000 O.co2     3 ASP3        0.0000 
     43 OD1       172.1200  151.3700  120.2900 O.co2     3 ASP3        0.0000 
     44 OD1       174.2300  151.1800  120.0800 O.co2     3 ASP3        0.0000 
     45 OD1       174.3900  151.3400  121.5600 O.co2     3 ASP3        0.0000 
     46 NZ        172.1200  149.4300  122.0200 N.4       4 LYS4        0.0000 
     47 NZ        173.0900  148.2800  122.0400 N.4       4 LYS4        0.0000 
     48 NZ        174.2300  149.2400  121.8100 N.4       4 LYS4        0.0000 
     49 NZ        175.3600  150.1900  121.5800 N.4       4 LYS4        0.0000 
     50 NZ        174.3900  149.4000  123.2900 N.4       4 LYS4        0.0000 
     51 NZ        175.5200  150.3600  123.0600 N.4       4 LYS4        0.0000 
     52 CZ        173.2400  144.3800  116.3900 C.ar      5 PHE5        0.0000 
     53 CZ        174.2100  143.2400  116.4000 C.ar      5 PHE5        0.0000 
     54 CZ        175.3400  144.1900  116.1700 C.ar      5 PHE5        0.0000 
     55 CZ        175.5100  146.2900  115.9200 C.ar      5 PHE5        0.0000 
     56 CZ        176.4700  145.1500  115.9400 C.ar      5 PHE5        0.0000 
     57 CZ        172.4300  145.6900  117.8500 C.ar      5 PHE5        0.0000 
     58 CZ        173.4000  144.5500  117.8700 C.ar      5 PHE5        0.0000 
     59 CZ        173.5700  146.6500  117.6200 C.ar      5 PHE5        0.0000 
     60 CZ        174.5400  145.5000  117.6400 C.ar      5 PHE5        0.0000 
     61 CZ        174.7000  147.6000  117.3800 C.ar      5 PHE5        0.0000 
     62 CZ        175.6700  146.4600  117.4000 C.ar      5 PHE5        0.0000 
     63 CZ        176.6400  145.3100  117.4200 C.ar      5 PHE5        0.0000 
     64 CZ        176.8000  147.4100  117.1700 C.ar      5 PHE5        0.0000 
     65 CZ        177.7700  146.2700  117.1900 C.ar      5 PHE5        0.0000 
     66 CZ        171.4600  144.9000  119.5600 C.ar      5 PHE5        0.0000 
     67 CZ        172.6000  145.8600  119.3300 C.ar      5 PHE5        0.0000 
     68 CZ        171.7900  147.1700  120.7900 C.ar      5 PHE5        0.0000 
     69 CZ        172.7600  146.0200  120.8100 C.ar      5 PHE5        0.0000 
     70 CZ        173.7300  144.8800  120.8300 C.ar      5 PHE5        0.0000 
     71 CZ        171.9600  147.3300  122.2700 C.ar      5 PHE5        0.0000 
     72 CZ        174.0600  147.1400  122.0600 C.ar      5 PHE5        0.0000 
     73 CA        170.1700  145.7200  116.5800 C.3       6 GLY6        0.0000 
     74 CA        179.3800  141.7100  116.0000 C.3       6 GLY6        0.0000 
     75 CA        169.3600  147.0300  118.0400 C.3       6 GLY6        0.0000 
     76 CA        170.3300  145.8800  118.0600 C.3       6 GLY6        0.0000 
     77 CA        170.5000  147.9800  117.8100 C.3       6 GLY6        0.0000 
     78 CA        171.4700  146.8400  117.8300 C.3       6 GLY6        0.0000 
     79 CA        172.6000  147.7900  117.6000 C.3       6 GLY6        0.0000 
     80 CA        173.7300  148.7500  117.3700 C.3       6 GLY6        0.0000 
     81 CA        175.8300  148.5600  117.1500 C.3       6 GLY6        0.0000 
     82 CA        172.4300  143.7600  119.5800 C.3       6 GLY6        0.0000 
     83 CA        173.5700  144.7100  119.3500 C.3       6 GLY6        0.0000 
     84 CA        174.5300  143.5700  119.3700 C.3       6 GLY6        0.0000 
     85 CA        170.8300  150.2500  119.0400 C.3       6 GLY6        0.0000 
     86 CA        172.9300  150.0600  118.8300 C.3       6 GLY6        0.0000 
     87 CA        173.9000  148.9100  118.8500 C.3       6 GLY6        0.0000 
     88 CA        177.7700  144.3300  118.9300 C.3       6 GLY6        0.0000 
     89 CA        175.0300  149.8700  118.6200 C.3       6 GLY6        0.0000 
     90 CA        176.1600  150.8200  118.3800 C.3       6 GLY6        0.0000 
     91 CA        173.0900  150.2200  120.3100 C.3       6 GLY6        0.0000 
     92 CA        175.1900  150.0300  120.1000 C.3       6 GLY6        0.0000 
     93 CA        170.9900  148.4800  122.2500 C.3       6 GLY6        0.0000 
     94 CA        174.2200  147.3000  123.5400 C.3       6 GLY6        0.0000 
     95 CA        175.3600  148.2600  123.3100 C.3       6 GLY6        0.0000 
     96 CA        176.3300  147.1100  123.3300 C.3       6 GLY6        0.0000 
     97 CA        176.4900  149.2100  123.0800 C.3       6 GLY6        0.0000 
     98 DU        171.6300  147.0000  119.3100 H         7 CUB7        0.0000 
     99 DU        171.7900  149.1000  119.0600 H         7 CUB7        0.0000 
    100 DU        172.7600  147.9600  119.0800 H         7 CUB7        0.0000 
    101 DU        173.7300  146.8100  119.1000 H         7 CUB7        0.0000 
    102 DU        174.7000  145.6700  119.1200 H         7 CUB7        0.0000 
    103 DU        174.8700  147.7700  118.8700 H         7 CUB7        0.0000 
    104 DU        176.8000  145.4800  118.9100 H         7 CUB7        0.0000 
    105 DU        176.0000  148.7200  118.6400 H         7 CUB7        0.0000 
    106 DU        176.9700  147.5800  118.6500 H         7 CUB7        0.0000 
    107 DU        172.9300  148.1200  120.5600 H         7 CUB7        0.0000 
    108 DU        173.9000  146.9800  120.5800 H         7 CUB7        0.0000 
    109 DU        174.0600  149.0800  120.3300 H         7 CUB7        0.0000 
    110 DU        176.0000  146.7800  120.3700 H         7 CUB7        0.0000 
    111 DU        176.9700  145.6400  120.3900 H         7 CUB7        0.0000 
    112 DU        175.1900  148.0900  121.8300 H         7 CUB7        0.0000 
    113 DU        176.3300  149.0500  121.6000 H         7 CUB7        0.0000 
    114 DU        177.3000  147.9000  121.6200 H         7 CUB7        0.0000 
@<TRIPOS>BOND
@<TRIPOS>SUBSTRUCTURE
     1 SER1        1 GROUP   
     2 ALA2        8 GROUP   
     3 ASP3       34 GROUP   
     4 LYS4       46 GROUP   
     5 PHE5       52 GROUP   
     6 GLY6       73 GROUP   
     7 CUB7       98 GROUP   
@<TRIPOS>SET

