#    Name: 6u9v_2_GDP
#    Modification time : Fri May 22 19:26:33 2020

@<TRIPOS>MOLECULE
6u9v_2_GDP
   40    42     1     0     1
SMALL
NO_CHARGES


@<TRIPOS>ATOM
      1 PB        182.7760  190.6800  114.3020 P.3       1 GDP701      0.0000 
      2 O1B       182.7010  191.0600  112.8430 O.co2     1 GDP701      0.0000 
      3 O2B       183.0670  191.9090  115.1290 O.co2     1 GDP701      0.0000 
      4 O3B       181.4580  190.0840  114.7330 O.co2     1 GDP701      0.0000 
      5 O3A       183.9780  189.5740  114.5180 O.3       1 GDP701      0.0000 
      6 PA        183.8380  187.9870  114.1000 P.3       1 GDP701      0.0000 
      7 O1A       183.2240  187.8870  112.7240 O.co2     1 GDP701      0.0000 
      8 O2A       185.2030  187.3440  114.0870 O.co2     1 GDP701      0.0000 
      9 O5'       182.8770  187.1990  115.1840 O.3       1 GDP701      0.0000 
     10 C5'       182.7590  187.6930  116.4870 C.3       1 GDP701      0.0000 
     11 C4'       181.5270  187.0810  117.1280 C.3       1 GDP701      0.0000 
     12 O4'       181.5670  185.4770  116.9110 O.3       1 GDP701      0.0000 
     13 C3'       181.4980  187.3070  118.4150 C.3       1 GDP701      0.0000 
     14 O3'       180.0870  187.5270  118.8600 O.3       1 GDP701      0.0000 
     15 C2'       182.0590  186.0380  119.0790 C.3       1 GDP701      0.0000 
     16 O2'       181.4000  185.7900  120.2380 O.3       1 GDP701      0.0000 
     17 C1'       181.7890  184.9050  118.0640 C.3       1 GDP701      0.0000 
     18 N9        182.9480  183.9880  117.9780 N.pl3     1 GDP701      0.0000 
     19 C8        183.8950  184.4900  117.1630 C.2       1 GDP701      0.0000 
     20 N7        184.9070  183.5980  117.1440 N.2       1 GDP701      0.0000 
     21 C5        184.5770  182.5730  117.9280 C.2       1 GDP701      0.0000 
     22 C6        185.3160  181.2800  118.2910 C.2       1 GDP701      0.0000 
     23 O6        186.3890  181.0650  117.8370 O.2       1 GDP701      0.0000 
     24 N1        184.7100  180.3360  119.1770 N.am      1 GDP701      0.0000 
     25 C2        183.4040  180.6050  119.7260 C.2       1 GDP701      0.0000 
     26 N2        182.7860  179.6500  120.6250 N.pl3     1 GDP701      0.0000 
     27 N3        182.7040  181.8380  119.3780 N.2       1 GDP701      0.0000 
     28 C4        183.3440  182.8170  118.4530 C.2       1 GDP701      0.0000 
     29 H5'       182.6690  188.6580  116.4640 H         1 GDP701      0.0000 
     30 H5''      183.5470  187.4500  116.9950 H         1 GDP701      0.0000 
     31 H4'       180.7270  187.4450  116.7210 H         1 GDP701      0.0000 
     32 H3'       182.0460  188.0750  118.6420 H         1 GDP701      0.0000 
     33 HO3'      179.6070  186.8690  118.6150 H         1 GDP701      0.0000 
     34 H2'       183.0070  186.1410  119.2480 H         1 GDP701      0.0000 
     35 HO2'      180.5630  185.8520  120.1060 H         1 GDP701      0.0000 
     36 H1'       181.0000  184.4110  118.3360 H         1 GDP701      0.0000 
     37 H8        183.8670  185.2970  116.7050 H         1 GDP701      0.0000 
     38 HN1       185.1220  179.6100  119.3820 H         1 GDP701      0.0000 
     39 HN21      183.1980  178.9240  120.8310 H         1 GDP701      0.0000 
     40 HN22      182.0070  179.8110  120.9530 H         1 GDP701      0.0000 
@<TRIPOS>BOND
     1    1    2 ar   
     2    1    3 ar   
     3    1    4 ar   
     4    1    5 1    
     5    5    6 1    
     6    6    7 ar   
     7    6    8 ar   
     8    6    9 1    
     9    9   10 1    
    10   10   11 1    
    11   10   29 1    
    12   10   30 1    
    13   11   12 1    
    14   11   13 1    
    15   11   31 1    
    16   13   32 1    
    17   12   17 1    
    18   13   14 1    
    19   13   15 1    
    20   15   16 1    
    21   14   33 1    
    22   15   17 1    
    23   15   34 1    
    24   16   35 1    
    25   17   18 1    
    26   17   36 1    
    27   18   19 1    
    28   18   28 1    
    29   19   20 2    
    30   20   21 1    
    31   19   37 1    
    32   21   22 1    
    33   21   28 2    
    34   22   23 2    
    35   22   24 am   
    36   24   25 1    
    37   25   26 1    
    38   24   38 1    
    39   25   27 2    
    40   27   28 1    
    41   26   39 1    
    42   26   40 1    
@<TRIPOS>SUBSTRUCTURE
     1 GDP701      1 GROUP   
@<TRIPOS>SET
ATOM$ORANGE STATIC     ATOMS   COLORGROUP SYSTEM 
20 10 10 11 11 13 13 15 15 17 17 19 19 21 21 22 22 25 \
25 28 28 

