#    Name: 6u9v_1_GDP
#    Modification time : Fri May 22 19:26:30 2020

@<TRIPOS>MOLECULE
6u9v_1_GDP
   40    42     1     0     1
SMALL
NO_CHARGES


@<TRIPOS>ATOM
      1 PB        138.9250  168.9640  114.3540 P.3       1 GDP701      0.0000 
      2 O1B       138.8510  168.7370  112.8630 O.co2     1 GDP701      0.0000 
      3 O2B       137.5620  168.7440  114.9660 O.co2     1 GDP701      0.0000 
      4 O3B       139.9110  167.9950  114.9600 O.co2     1 GDP701      0.0000 
      5 O3A       139.4150  170.5100  114.6470 O.3       1 GDP701      0.0000 
      6 PA        140.8750  171.1060  114.1690 P.3       1 GDP701      0.0000 
      7 O1A       141.2060  170.5740  112.7950 O.co2     1 GDP701      0.0000 
      8 O2A       140.8160  172.6130  114.1220 O.co2     1 GDP701      0.0000 
      9 O5'       142.0460  170.6420  115.2320 O.3       1 GDP701      0.0000 
     10 C5'       141.6900  170.2950  116.5400 C.3       1 GDP701      0.0000 
     11 C4'       142.8500  169.5480  117.1720 C.3       1 GDP701      0.0000 
     12 O4'       144.2100  170.3920  116.9310 O.3       1 GDP701      0.0000 
     13 C3'       142.6870  169.4130  118.4620 C.3       1 GDP701      0.0000 
     14 O3'       143.2060  168.0800  118.9000 O.3       1 GDP701      0.0000 
     15 C2'       143.5180  170.5330  119.1130 C.3       1 GDP701      0.0000 
     16 O2'       144.0910  170.0800  120.2560 O.3       1 GDP701      0.0000 
     17 C1'       144.6100  170.8780  118.0770 C.3       1 GDP701      0.0000 
     18 N9        144.8050  172.3430  117.9840 N.pl3     1 GDP701      0.0000 
     19 C8        143.8750  172.8980  117.1840 C.2       1 GDP701      0.0000 
     20 N7        144.1240  174.2240  117.1570 N.2       1 GDP701      0.0000 
     21 C5        145.1880  174.4660  117.9210 C.2       1 GDP701      0.0000 
     22 C6        145.9280  175.7620  118.2660 C.2       1 GDP701      0.0000 
     23 O6        145.5570  176.7930  117.8150 O.2       1 GDP701      0.0000 
     24 N1        147.0660  175.7260  119.1310 N.am      1 GDP701      0.0000 
     25 C2        147.5120  174.4680  119.6750 C.2       1 GDP701      0.0000 
     26 N2        148.6650  174.4270  120.5530 N.pl3     1 GDP701      0.0000 
     27 N3        146.8030  173.2350  119.3440 N.2       1 GDP701      0.0000 
     28 C4        145.6190  173.2820  118.4410 C.2       1 GDP701      0.0000 
     29 H5'       140.9050  169.7260  116.5250 H         1 GDP701      0.0000 
     30 H5''      141.5010  171.1010  117.0460 H         1 GDP701      0.0000 
     31 H4'       142.9370  168.6710  116.7690 H         1 GDP701      0.0000 
     32 H3'       141.7520  169.5060  118.7020 H         1 GDP701      0.0000 
     33 HO3'      142.9180  167.9060  119.6810 H         1 GDP701      0.0000 
     34 H2'       142.9560  171.3000  119.2990 H         1 GDP701      0.0000 
     35 HO2'      144.3680  169.2850  120.1370 H         1 GDP701      0.0000 
     36 H1'       145.4430  170.4530  118.3330 H         1 GDP701      0.0000 
     37 H8        143.1870  172.4610  116.7400 H         1 GDP701      0.0000 
     38 HN1       147.4820  176.4520  119.3250 H         1 GDP701      0.0000 
     39 HN21      149.0820  175.1530  120.7490 H         1 GDP701      0.0000 
     40 HN22      148.9310  173.6760  120.8780 H         1 GDP701      0.0000 
@<TRIPOS>BOND
     1    1    2 ar   
     2    1    3 ar   
     3    1    4 ar   
     4    1    5 1    
     5    5    6 1    
     6    6    7 ar   
     7    6    8 ar   
     8    6    9 1    
     9    9   10 1    
    10   10   11 1    
    11   10   29 1    
    12   10   30 1    
    13   11   12 1    
    14   11   13 1    
    15   11   31 1    
    16   13   32 1    
    17   12   17 1    
    18   13   14 1    
    19   13   15 1    
    20   15   16 1    
    21   14   33 1    
    22   15   17 1    
    23   15   34 1    
    24   16   35 1    
    25   17   18 1    
    26   17   36 1    
    27   18   19 1    
    28   18   28 1    
    29   19   20 2    
    30   20   21 1    
    31   19   37 1    
    32   21   22 1    
    33   21   28 2    
    34   22   23 2    
    35   22   24 am   
    36   24   25 1    
    37   25   26 1    
    38   24   38 1    
    39   25   27 2    
    40   27   28 1    
    41   26   39 1    
    42   26   40 1    
@<TRIPOS>SUBSTRUCTURE
     1 GDP701      1 GROUP   
@<TRIPOS>SET
ATOM$ORANGE STATIC     ATOMS   COLORGROUP SYSTEM 
20 10 10 11 11 13 13 15 15 17 17 19 19 21 21 22 22 25 \
25 28 28 

