#    Name: 6av9_1_ADP
#    Modification time : Fri May 22 19:37:09 2020

@<TRIPOS>MOLECULE
6av9_1_ADP
   27    29     1     0     1
SMALL
NO_CHARGES


@<TRIPOS>ATOM
      1 PB        -10.9600   12.9890  -26.4720 P.3       1 ADP801      0.0000 
      2 O1B       -11.2890   14.4290  -26.7570 O.co2     1 ADP801      0.0000 
      3 O2B       -11.9430   12.3290  -25.5440 O.co2     1 ADP801      0.0000 
      4 O3B        -9.5120   12.7130  -26.1590 O.co2     1 ADP801      0.0000 
      5 PA        -12.5290   12.7520  -28.7020 P.3       1 ADP801      0.0000 
      6 O1A       -12.1720   14.0310  -29.4060 O.co2     1 ADP801      0.0000 
      7 O2A       -13.7080   12.7220  -27.7700 O.co2     1 ADP801      0.0000 
      8 O3A       -11.2200   12.2970  -27.8960 O.3       1 ADP801      0.0000 
      9 O5'       -12.7640   11.6380  -29.8220 O.3       1 ADP801      0.0000 
     10 C5'       -13.8350   10.7200  -29.6960 C.3       1 ADP801      0.0000 
     11 C4'       -13.4920    9.5120  -30.5540 C.3       1 ADP801      0.0000 
     12 O4'       -14.3300    8.4060  -30.2420 O.3       1 ADP801      0.0000 
     13 C3'       -13.6920    9.7320  -32.0360 C.3       1 ADP801      0.0000 
     14 O3'       -12.5330   10.2930  -32.6380 O.3       1 ADP801      0.0000 
     15 C2'       -13.9320    8.3340  -32.5520 C.3       1 ADP801      0.0000 
     16 O2'       -12.6680    7.7340  -32.8160 O.3       1 ADP801      0.0000 
     17 C1'       -14.5600    7.5990  -31.3930 C.3       1 ADP801      0.0000 
     18 N9        -16.0180    7.5380  -31.5890 N.pl3     1 ADP801      0.0000 
     19 C8        -16.8220    8.6090  -31.6420 C.2       1 ADP801      0.0000 
     20 N7        -18.1120    8.2540  -31.8210 N.2       1 ADP801      0.0000 
     21 C5        -18.1410    6.9160  -31.8820 C.ar      1 ADP801      0.0000 
     22 C6        -19.1900    5.8970  -32.0650 C.ar      1 ADP801      0.0000 
     23 N6        -20.4830    6.2590  -32.2190 N.pl3     1 ADP801      0.0000 
     24 N1        -18.8130    4.6030  -32.0740 N.ar      1 ADP801      0.0000 
     25 C2        -17.5260    4.2480  -31.9270 C.ar      1 ADP801      0.0000 
     26 N3        -16.5220    5.1230  -31.7610 N.ar      1 ADP801      0.0000 
     27 C4        -16.7600    6.4490  -31.7330 C.ar      1 ADP801      0.0000 
@<TRIPOS>BOND
     1    1    2 ar   
     2    1    3 ar   
     3    1    4 ar   
     4    1    8 1    
     5    5    6 ar   
     6    5    7 ar   
     7    5    8 1    
     8    5    9 1    
     9    9   10 1    
    10   10   11 1    
    11   11   12 1    
    12   11   13 1    
    13   12   17 1    
    14   13   14 1    
    15   13   15 1    
    16   15   16 1    
    17   15   17 1    
    18   17   18 1    
    19   18   19 1    
    20   18   27 1    
    21   19   20 2    
    22   20   21 1    
    23   21   22 ar   
    24   21   27 ar   
    25   22   23 1    
    26   22   24 ar   
    27   24   25 ar   
    28   25   26 ar   
    29   26   27 ar   
@<TRIPOS>SUBSTRUCTURE
     1 ADP801      1 GROUP   
@<TRIPOS>SET
ATOM$ORANGE STATIC     ATOMS   COLORGROUP SYSTEM 
20 10 10 11 11 13 13 15 15 17 17 19 19 21 21 22 22 25 \
25 27 27 

