#    Name: 6av9_1_ADP_CAVITY_N1_8
#    Modification time : Fri May 22 19:37:10 2020

@<TRIPOS>MOLECULE
6av9_1_ADP_CAVITY_N1_8
   80     0     5     0     0
SMALL
NO_CHARGES


@<TRIPOS>ATOM
      1 N         -15.5000    8.4200  -30.9400 N.am      1 ALA2        0.0000 
      2 N         -14.3800    9.1800  -31.6000 N.am      1 ALA2        0.0000 
      3 O         -13.0700   11.8600  -33.1300 O.2       1 ALA2        0.0000 
      4 N         -13.9800    9.7400  -30.2700 N.am      1 ALA2        0.0000 
      5 N         -14.8900   10.9100  -30.4800 N.am      1 ALA2        0.0000 
      6 O         -12.6600   12.4200  -31.8000 O.2       1 ALA2        0.0000 
      7 N         -13.5700   10.3100  -28.9400 N.am      1 ALA2        0.0000 
      8 O         -12.4600   11.0600  -29.6000 O.2       1 ALA2        0.0000 
      9 N         -14.4900   11.4700  -29.1500 N.am      1 ALA2        0.0000 
     10 O         -12.2600   12.9800  -30.4700 O.2       1 ALA2        0.0000 
     11 O         -12.0500   11.6200  -28.2700 O.2       1 ALA2        0.0000 
     12 N         -10.9400   12.3800  -28.9300 N.am      1 ALA2        0.0000 
     13 N         -11.8500   13.5500  -29.1400 N.am      1 ALA2        0.0000 
     14 N         -15.0000   13.2000  -28.0400 N.am      1 ALA2        0.0000 
     15 N         -13.6800   12.6000  -26.4900 N.am      1 ALA2        0.0000 
     16 N         -11.4500   14.1100  -27.8100 N.am      1 ALA2        0.0000 
     17 N         -14.6000   13.7700  -26.7100 N.am      1 ALA2        0.0000 
     18 N          -9.2100   12.3400  -26.0600 N.am      1 ALA2        0.0000 
     19 N         -13.2700   13.1600  -25.1700 N.am      1 ALA2        0.0000 
     20 O          -9.9200   12.1500  -24.0700 O.2       1 ALA2        0.0000 
     21 O         -10.8400   13.3100  -24.2800 O.2       1 ALA2        0.0000 
     22 O         -10.6400   15.2400  -25.1500 O.2       1 ALA2        0.0000 
     23 OD1       -15.4100   12.6900  -39.5400 O.co2     2 ASP3        0.0000 
     24 OD1       -15.4000    9.4100  -36.4600 O.co2     2 ASP3        0.0000 
     25 OD1       -15.2000   11.3300  -37.3400 O.co2     2 ASP3        0.0000 
     26 OD1       -16.1200   12.5000  -37.5500 O.co2     2 ASP3        0.0000 
     27 OD1       -15.0100   13.2600  -38.2100 O.co2     2 ASP3        0.0000 
     28 OD1       -13.8800   10.7300  -35.7900 O.co2     2 ASP3        0.0000 
     29 OD1       -13.6800   12.6500  -36.6700 O.co2     2 ASP3        0.0000 
     30 OD1       -17.9500   11.5500  -34.9000 O.co2     2 ASP3        0.0000 
     31 OD1       -18.8600   12.7200  -35.1200 O.co2     2 ASP3        0.0000 
     32 OD1       -13.4700   11.2900  -34.4600 O.co2     2 ASP3        0.0000 
     33 OD1       -16.6200   10.9500  -33.3600 O.co2     2 ASP3        0.0000 
     34 OD1       -12.9700   12.7900  -28.4800 O.co2     2 ASP3        0.0000 
     35 OD1       -13.8900   13.9600  -28.7000 O.co2     2 ASP3        0.0000 
     36 OD1       -12.5600   13.3500  -27.1500 O.co2     2 ASP3        0.0000 
     37 OD1       -12.1600   13.9200  -25.8200 O.co2     2 ASP3        0.0000 
     38 NZ        -16.7200   10.0100  -38.0100 N.4       3 LYS4        0.0000 
     39 NZ        -16.5300   11.9400  -38.8800 N.4       3 LYS4        0.0000 
     40 NZ        -18.3500   10.9900  -36.2300 N.4       3 LYS4        0.0000 
     41 NZ        -14.9900    9.9700  -35.1300 N.4       3 LYS4        0.0000 
     42 NZ        -17.0300   10.3900  -34.6900 N.4       3 LYS4        0.0000 
     43 NZ        -15.9100   11.1400  -35.3500 N.4       3 LYS4        0.0000 
     44 NZ        -13.6700    9.3700  -33.5900 N.4       3 LYS4        0.0000 
     45 NZ        -12.5600   10.1300  -34.2500 N.4       3 LYS4        0.0000 
     46 NZ        -15.7000    9.7800  -33.1400 N.4       3 LYS4        0.0000 
     47 NZ        -14.5900   10.5400  -33.8000 N.4       3 LYS4        0.0000 
     48 NZ        -13.2700    9.9300  -32.2600 N.4       3 LYS4        0.0000 
     49 NZ        -12.8600   10.5000  -30.9300 N.4       3 LYS4        0.0000 
     50 NZ        -13.7800   11.6600  -31.1400 N.4       3 LYS4        0.0000 
     51 NZ        -11.3400   11.8200  -30.2600 N.4       3 LYS4        0.0000 
     52 NZ        -11.9500   12.5600  -23.6200 N.4       3 LYS4        0.0000 
     53 CA        -16.3200   10.5800  -36.6800 C.3       4 GLY6        0.0000 
     54 CA        -13.8900   14.0100  -38.8700 C.3       4 GLY6        0.0000 
     55 CA        -14.8000   11.9000  -36.0100 C.3       4 GLY6        0.0000 
     56 CA        -16.8300   12.3100  -35.5600 C.3       4 GLY6        0.0000 
     57 CA        -15.7200   13.0600  -36.2200 C.3       4 GLY6        0.0000 
     58 CA        -17.7500   13.4800  -35.7800 C.3       4 GLY6        0.0000 
     59 CA        -16.6300   14.2300  -36.4400 C.3       4 GLY6        0.0000 
     60 CA        -15.5100   11.7000  -34.0200 C.3       4 GLY6        0.0000 
     61 CA        -14.3900   12.4600  -34.6800 C.3       4 GLY6        0.0000 
     62 CA        -15.3000   10.3500  -31.8100 C.3       4 GLY6        0.0000 
     63 CA        -14.1800   11.1000  -32.4700 C.3       4 GLY6        0.0000 
     64 CA        -14.7000   12.8300  -31.3600 C.3       4 GLY6        0.0000 
     65 CA        -14.2900   13.3900  -30.0300 C.3       4 GLY6        0.0000 
     66 CA        -13.1800   14.1500  -30.6900 C.3       4 GLY6        0.0000 
     67 CA        -13.1700   10.8700  -27.6100 C.3       4 GLY6        0.0000 
     68 CA        -14.0800   12.0400  -27.8200 C.3       4 GLY6        0.0000 
     69 CA        -11.6500   12.1900  -26.9400 C.3       4 GLY6        0.0000 
     70 CA        -10.3200   11.5800  -25.4000 C.3       4 GLY6        0.0000 
     71 CA        -11.2400   12.7500  -25.6100 C.3       4 GLY6        0.0000 
     72 CA        -10.1300   13.5100  -26.2700 C.3       4 GLY6        0.0000 
     73 CA        -11.0400   14.6700  -26.4800 C.3       4 GLY6        0.0000 
     74 CA        -14.1900   14.3300  -25.3800 C.3       4 GLY6        0.0000 
     75 CA        -12.8700   13.7300  -23.8400 C.3       4 GLY6        0.0000 
     76 CA        -11.7500   14.4800  -24.4900 C.3       4 GLY6        0.0000 
     77 DU        -17.2400   11.7500  -36.8900 H         5 CUB7        0.0000 
     78 DU        -18.1500   12.9100  -37.1100 H         5 CUB7        0.0000 
     79 DU        -17.0400   13.6700  -37.7700 H         5 CUB7        0.0000 
     80 DU        -13.3700   12.2300  -29.8100 H         5 CUB7        0.0000 
@<TRIPOS>BOND
@<TRIPOS>SUBSTRUCTURE
     1 ALA2        1 GROUP   
     2 ASP3       23 GROUP   
     3 LYS4       38 GROUP   
     4 GLY6       53 GROUP   
     5 CUB7       77 GROUP   
@<TRIPOS>SET

