#    Name: 6sne_9_PC_CAVITY_N1_4
#    Modification time : Fri May 22 19:29:22 2020

@<TRIPOS>MOLECULE
6sne_9_PC_CAVITY_N1_4
  111     0     6     0     0
SMALL
NO_CHARGES


@<TRIPOS>ATOM
      1 OG        -27.3400   15.5100  -73.4500 O.3       1 SER1        0.0000 
      2 OG        -28.6900   16.1400  -73.6100 O.3       1 SER1        0.0000 
      3 OG        -27.7800   18.0400  -73.8500 O.3       1 SER1        0.0000 
      4 OG        -29.1300   18.6700  -74.0100 O.3       1 SER1        0.0000 
      5 OG        -30.4800   19.3000  -74.1700 O.3       1 SER1        0.0000 
      6 OG        -26.9400   16.6100  -72.5200 O.3       1 SER1        0.0000 
      7 N         -30.5900    9.0100  -71.5700 N.am      2 ALA2        0.0000 
      8 N         -31.9400    9.6400  -71.7300 N.am      2 ALA2        0.0000 
      9 N         -33.2900   10.2700  -71.8900 N.am      2 ALA2        0.0000 
     10 N         -33.0500   16.6100  -77.1200 N.am      2 ALA2        0.0000 
     11 N         -33.5600   15.8100  -75.9500 N.am      2 ALA2        0.0000 
     12 N         -31.5400   10.7500  -70.8000 N.am      2 ALA2        0.0000 
     13 N         -32.8900   11.3800  -70.9600 N.am      2 ALA2        0.0000 
     14 N         -32.0400    9.9600  -69.6300 N.am      2 ALA2        0.0000 
     15 N         -31.2900   17.0800  -76.0300 N.am      2 ALA2        0.0000 
     16 N         -32.6500   17.7100  -76.1900 N.am      2 ALA2        0.0000 
     17 N         -26.3900   13.7700  -74.2200 N.am      2 ALA2        0.0000 
     18 N         -25.5500   12.3500  -72.8900 N.am      2 ALA2        0.0000 
     19 O         -35.1900   13.7400  -70.3600 O.2       2 ALA2        0.0000 
     20 N         -29.5400   17.5600  -74.9400 N.am      2 ALA2        0.0000 
     21 N         -33.1900   20.5500  -74.4900 N.am      2 ALA2        0.0000 
     22 O         -32.3500   19.1300  -73.1600 O.2       2 ALA2        0.0000 
     23 N         -33.7000   19.7600  -73.3300 N.am      2 ALA2        0.0000 
     24 OD1       -28.7300    9.1800  -72.5700 O.co2     3 ASP3        0.0000 
     25 OD1       -26.8000   12.6700  -75.1500 O.co2     3 ASP3        0.0000 
     26 OD1       -29.6700   10.9100  -71.8100 O.co2     3 ASP3        0.0000 
     27 OD1       -26.9000   12.9800  -73.0500 O.co2     3 ASP3        0.0000 
     28 OD1       -28.2500   13.6100  -73.2100 O.co2     3 ASP3        0.0000 
     29 OD1       -27.4100   12.1900  -71.8800 O.co2     3 ASP3        0.0000 
     30 OD1       -28.7600   12.8100  -72.0400 O.co2     3 ASP3        0.0000 
     31 CZ        -32.7800   11.0700  -73.0600 C.ar      4 PHE5        0.0000 
     32 CZ        -33.2200   13.6000  -73.4600 C.ar      4 PHE5        0.0000 
     33 CZ        -34.5700   14.2300  -73.6200 C.ar      4 PHE5        0.0000 
     34 CZ        -33.7300   12.8000  -72.2900 C.ar      4 PHE5        0.0000 
     35 CZ        -35.0800   13.4300  -72.4500 C.ar      4 PHE5        0.0000 
     36 CZ        -32.1400   18.5100  -77.3600 C.ar      4 PHE5        0.0000 
     37 CZ        -30.8900   18.1900  -75.1000 C.ar      4 PHE5        0.0000 
     38 CZ        -32.2400   18.8200  -75.2600 C.ar      4 PHE5        0.0000 
     39 CZ        -33.5900   19.4500  -75.4200 C.ar      4 PHE5        0.0000 
     40 CZ        -31.0600   15.1800  -71.4400 C.ar      4 PHE5        0.0000 
     41 CZ        -31.8400   19.9300  -74.3300 C.ar      4 PHE5        0.0000 
     42 CZ        -28.2900   17.2400  -72.6800 C.ar      4 PHE5        0.0000 
     43 CZ        -29.6400   17.8700  -72.8400 C.ar      4 PHE5        0.0000 
     44 CZ        -30.9900   18.5000  -73.0000 C.ar      4 PHE5        0.0000 
     45 CZ        -28.8000   16.4500  -71.5100 C.ar      4 PHE5        0.0000 
     46 CZ        -30.1500   17.0800  -71.6800 C.ar      4 PHE5        0.0000 
     47 CZ        -31.5000   17.7100  -71.8400 C.ar      4 PHE5        0.0000 
     48 CZ        -32.8500   18.3400  -72.0000 C.ar      4 PHE5        0.0000 
     49 CZ        -29.3100   15.6600  -70.3500 C.ar      4 PHE5        0.0000 
     50 CZ        -32.0100   16.9100  -70.6700 C.ar      4 PHE5        0.0000 
     51 CZ        -33.3600   17.5400  -70.8300 C.ar      4 PHE5        0.0000 
     52 CZ        -29.8100   14.8600  -69.1800 C.ar      4 PHE5        0.0000 
     53 CZ        -31.1700   15.4900  -69.3400 C.ar      4 PHE5        0.0000 
     54 CA        -30.4800    8.7000  -73.6600 C.3       5 GLY6        0.0000 
     55 CA        -30.0800    9.8100  -72.7300 C.3       5 GLY6        0.0000 
     56 CA        -31.4300   10.4400  -72.9000 C.3       5 GLY6        0.0000 
     57 CA        -32.2100   15.1800  -75.7900 C.3       5 GLY6        0.0000 
     58 CA        -32.7100   14.3900  -74.6200 C.3       5 GLY6        0.0000 
     59 CA        -31.0300   11.5400  -71.9700 C.3       5 GLY6        0.0000 
     60 CA        -32.3800   12.1700  -72.1300 C.3       5 GLY6        0.0000 
     61 CA        -34.2400   12.0100  -71.1200 C.3       5 GLY6        0.0000 
     62 CA        -34.0000   18.3400  -76.3500 C.3       5 GLY6        0.0000 
     63 CA        -29.1000   15.0300  -74.5400 C.3       5 GLY6        0.0000 
     64 CA        -30.4500   15.6600  -74.7000 C.3       5 GLY6        0.0000 
     65 CA        -31.8000   16.2900  -74.8600 C.3       5 GLY6        0.0000 
     66 CA        -29.6100   14.2400  -73.3700 C.3       5 GLY6        0.0000 
     67 CA        -30.9600   14.8700  -73.5300 C.3       5 GLY6        0.0000 
     68 CA        -26.0600   11.5600  -71.7200 C.3       5 GLY6        0.0000 
     69 CA        -30.1100   13.4400  -72.2100 C.3       5 GLY6        0.0000 
     70 CA        -31.4700   14.0700  -72.3700 C.3       5 GLY6        0.0000 
     71 CA        -26.5700   10.7600  -70.5500 C.3       5 GLY6        0.0000 
     72 CA        -27.9200   11.3900  -70.7200 C.3       5 GLY6        0.0000 
     73 CA        -31.6400   11.0600  -68.7000 C.3       5 GLY6        0.0000 
     74 CA        -32.9900   11.6900  -68.8700 C.3       5 GLY6        0.0000 
     75 CA        -27.8500   14.7100  -72.2800 C.3       5 GLY6        0.0000 
     76 CA        -28.3600   13.9200  -71.1200 C.3       5 GLY6        0.0000 
     77 CA        -31.2400   12.1700  -67.7800 C.3       5 GLY6        0.0000 
     78 CA        -32.5900   12.8000  -67.9400 C.3       5 GLY6        0.0000 
     79 CA        -27.4500   15.8200  -71.3500 C.3       5 GLY6        0.0000 
     80 DU        -30.1800   10.1200  -70.6400 H         6 CUB7        0.0000 
     81 DU        -33.1500   16.9200  -75.0200 H         6 CUB7        0.0000 
     82 DU        -34.5100   17.5500  -75.1800 H         6 CUB7        0.0000 
     83 DU        -32.3100   15.5000  -73.6900 H         6 CUB7        0.0000 
     84 DU        -33.6600   16.1300  -73.8600 H         6 CUB7        0.0000 
     85 DU        -32.8200   14.7000  -72.5300 H         6 CUB7        0.0000 
     86 DU        -29.2700   12.0200  -70.8800 H         6 CUB7        0.0000 
     87 DU        -30.6200   12.6500  -71.0400 H         6 CUB7        0.0000 
     88 DU        -31.9700   13.2800  -71.2000 H         6 CUB7        0.0000 
     89 DU        -34.6800   14.5400  -71.5200 H         6 CUB7        0.0000 
     90 DU        -31.1300   11.8600  -69.8700 H         6 CUB7        0.0000 
     91 DU        -32.4800   12.4900  -70.0300 H         6 CUB7        0.0000 
     92 DU        -33.8400   13.1100  -70.1900 H         6 CUB7        0.0000 
     93 DU        -30.0500   16.7700  -73.7700 H         6 CUB7        0.0000 
     94 DU        -31.4000   17.4000  -73.9300 H         6 CUB7        0.0000 
     95 DU        -32.7500   18.0300  -74.0900 H         6 CUB7        0.0000 
     96 DU        -34.1000   18.6500  -74.2500 H         6 CUB7        0.0000 
     97 DU        -29.2000   15.3400  -72.4400 H         6 CUB7        0.0000 
     98 DU        -30.5500   15.9700  -72.6000 H         6 CUB7        0.0000 
     99 DU        -31.9100   16.6000  -72.7700 H         6 CUB7        0.0000 
    100 DU        -33.2600   17.2300  -72.9300 H         6 CUB7        0.0000 
    101 DU        -32.4100   15.8100  -71.6000 H         6 CUB7        0.0000 
    102 DU        -33.7700   16.4400  -71.7600 H         6 CUB7        0.0000 
    103 DU        -30.2200   13.7600  -70.1100 H         6 CUB7        0.0000 
    104 DU        -31.5700   14.3900  -70.2700 H         6 CUB7        0.0000 
    105 DU        -32.9200   15.0100  -70.4300 H         6 CUB7        0.0000 
    106 DU        -34.2700   15.6400  -70.5900 H         6 CUB7        0.0000 
    107 DU        -30.7300   12.9600  -68.9400 H         6 CUB7        0.0000 
    108 DU        -32.0800   13.5900  -69.1000 H         6 CUB7        0.0000 
    109 DU        -33.4300   14.2200  -69.2700 H         6 CUB7        0.0000 
    110 DU        -34.7800   14.8500  -69.4300 H         6 CUB7        0.0000 
    111 DU        -31.6800   14.7000  -68.1800 H         6 CUB7        0.0000 
@<TRIPOS>BOND
@<TRIPOS>SUBSTRUCTURE
     1 SER1        1 GROUP   
     2 ALA2        7 GROUP   
     3 ASP3       24 GROUP   
     4 PHE5       31 GROUP   
     5 GLY6       54 GROUP   
     6 CUB7       80 GROUP   
@<TRIPOS>SET

