#    Name: 6sne_4_PC
#    Modification time : Fri May 22 19:29:06 2020

@<TRIPOS>MOLECULE
6sne_4_PC
   11    10     1     0     0
SMALL
NO_CHARGES


@<TRIPOS>ATOM
      1 P1        -24.1130    6.4500  -61.5950 P.3       1 PC301       0.0000 
      2 O1        -25.0230    6.9810  -62.6860 O.co2     1 PC301       0.0000 
      3 O3        -23.5230    5.1260  -62.0140 O.co2     1 PC301       0.0000 
      4 O4        -24.9100    6.1800  -60.3370 O.co2     1 PC301       0.0000 
      5 O2        -22.8890    7.5320  -61.3060 O.3       1 PC301       0.0000 
      6 C1        -21.5520    7.1510  -61.5120 C.3       1 PC301       0.0000 
      7 C2        -21.0310    6.2930  -60.3410 C.3       1 PC301       0.0000 
      8 N1        -19.9210    5.4340  -60.7360 N.4       1 PC301       0.0000 
      9 C3        -20.4030    4.3350  -61.5520 C.3       1 PC301       0.0000 
     10 C4        -19.2800    4.8950  -59.5500 C.3       1 PC301       0.0000 
     11 C5        -18.9390    6.1970  -61.4860 C.3       1 PC301       0.0000 
@<TRIPOS>BOND
     1    1    2 ar   
     2    1    3 ar   
     3    1    4 ar   
     4    1    5 1    
     5    5    6 1    
     6    6    7 1    
     7    7    8 1    
     8    8    9 1    
     9    8   10 1    
    10    8   11 1    
@<TRIPOS>SUBSTRUCTURE
     1 PC301       1 GROUP   
@<TRIPOS>SET

