#    Name: 6sne_8_PC
#    Modification time : Fri May 22 19:29:15 2020

@<TRIPOS>MOLECULE
6sne_8_PC
   11    10     1     0     0
SMALL
NO_CHARGES


@<TRIPOS>ATOM
      1 P1        -42.4870    8.9170  -32.8730 P.3       1 PC302       0.0000 
      2 O1        -41.7830    9.9120  -33.7740 O.co2     1 PC302       0.0000 
      3 O3        -43.3720    9.6330  -31.8690 O.co2     1 PC302       0.0000 
      4 O4        -41.4510    8.0730  -32.1540 O.co2     1 PC302       0.0000 
      5 O2        -43.4470    7.9440  -33.7900 O.3       1 PC302       0.0000 
      6 C1        -44.0930    6.8500  -33.2020 C.3       1 PC302       0.0000 
      7 C2        -43.4810    5.5270  -33.6920 C.3       1 PC302       0.0000 
      8 N1        -44.1250    5.0560  -34.9110 N.4       1 PC302       0.0000 
      9 C3        -43.8370    5.9710  -35.9850 C.3       1 PC302       0.0000 
     10 C4        -45.5620    4.9570  -34.7520 C.3       1 PC302       0.0000 
     11 C5        -43.6080    3.7540  -35.2860 C.3       1 PC302       0.0000 
@<TRIPOS>BOND
     1    1    2 ar   
     2    1    3 ar   
     3    1    4 ar   
     4    1    5 1    
     5    5    6 1    
     6    6    7 1    
     7    7    8 1    
     8    8    9 1    
     9    8   10 1    
    10    8   11 1    
@<TRIPOS>SUBSTRUCTURE
     1 PC302       1 GROUP   
@<TRIPOS>SET

