#    Name: 6sne_1_PC
#    Modification time : Fri May 22 19:28:50 2020

@<TRIPOS>MOLECULE
6sne_1_PC
   11    10     1     0     0
SMALL
NO_CHARGES


@<TRIPOS>ATOM
      1 P1        -26.6740   41.6380  -45.7470 P.3       1 PC302       0.0000 
      2 O1        -27.9270   42.4860  -45.7160 O.co2     1 PC302       0.0000 
      3 O3        -25.7360   42.0370  -44.6240 O.co2     1 PC302       0.0000 
      4 O4        -27.0790   40.1890  -45.5760 O.co2     1 PC302       0.0000 
      5 O2        -25.9160   41.8030  -47.2070 O.3       1 PC302       0.0000 
      6 C1        -25.5760   43.0720  -47.6910 C.3       1 PC302       0.0000 
      7 C2        -24.3140   43.6130  -47.0010 C.3       1 PC302       0.0000 
      8 N1        -23.1570   43.5370  -47.8730 N.4       1 PC302       0.0000 
      9 C3        -22.8930   42.1610  -48.1890 C.3       1 PC302       0.0000 
     10 C4        -22.0010   44.0890  -47.2080 C.3       1 PC302       0.0000 
     11 C5        -23.3730   44.2590  -49.1060 C.3       1 PC302       0.0000 
@<TRIPOS>BOND
     1    1    2 ar   
     2    1    3 ar   
     3    1    4 ar   
     4    1    5 1    
     5    5    6 1    
     6    6    7 1    
     7    7    8 1    
     8    8    9 1    
     9    8   10 1    
    10    8   11 1    
@<TRIPOS>SUBSTRUCTURE
     1 PC302       1 GROUP   
@<TRIPOS>SET

