#    Name: 6sne_7_PC
#    Modification time : Fri May 22 19:29:10 2020

@<TRIPOS>MOLECULE
6sne_7_PC
   11    10     1     0     0
SMALL
NO_CHARGES


@<TRIPOS>ATOM
      1 P1        -48.1350    8.7640  -34.9350 P.3       1 PC301       0.0000 
      2 O1        -47.7290    7.5800  -35.7870 O.co2     1 PC301       0.0000 
      3 O3        -47.2470    9.9570  -35.2270 O.co2     1 PC301       0.0000 
      4 O4        -47.9580    8.4190  -33.4680 O.co2     1 PC301       0.0000 
      5 O2        -49.7050    9.1590  -35.2760 O.3       1 PC301       0.0000 
      6 C1        -50.6850    8.1600  -35.3380 C.3       1 PC301       0.0000 
      7 C2        -51.0000    7.6110  -33.9340 C.3       1 PC301       0.0000 
      8 N1        -52.3020    8.0520  -33.4560 N.4       1 PC301       0.0000 
      9 C3        -53.3640    7.4230  -34.2200 C.3       1 PC301       0.0000 
     10 C4        -52.4000    9.5000  -33.5670 C.3       1 PC301       0.0000 
     11 C5        -52.4480    7.6590  -32.0690 C.3       1 PC301       0.0000 
@<TRIPOS>BOND
     1    1    2 ar   
     2    1    3 ar   
     3    1    4 ar   
     4    1    5 1    
     5    5    6 1    
     6    6    7 1    
     7    7    8 1    
     8    8    9 1    
     9    8   10 1    
    10    8   11 1    
@<TRIPOS>SUBSTRUCTURE
     1 PC301       1 GROUP   
@<TRIPOS>SET

