#    Name: 6sne_7_PC_CAVITY_N1_12
#    Modification time : Fri May 22 19:29:11 2020

@<TRIPOS>MOLECULE
6sne_7_PC_CAVITY_N1_12
   81     0     5     0     0
SMALL
NO_CHARGES


@<TRIPOS>ATOM
      1 OG        -53.6900    4.6300  -34.4800 O.3       1 SER1        0.0000 
      2 OG        -43.6500    4.3400  -36.0900 O.3       1 SER1        0.0000 
      3 OG        -45.5100    4.1700  -35.0800 O.3       1 SER1        0.0000 
      4 OG        -46.8600    4.8000  -35.2400 O.3       1 SER1        0.0000 
      5 OG        -54.6400    6.3600  -33.7200 O.3       1 SER1        0.0000 
      6 OG        -43.2500    5.4400  -35.1600 O.3       1 SER1        0.0000 
      7 OG        -43.7500    4.6500  -33.9900 O.3       1 SER1        0.0000 
      8 OG        -51.5300    6.2100  -32.4700 O.3       1 SER1        0.0000 
      9 OG        -52.8800    6.8400  -32.6300 O.3       1 SER1        0.0000 
     10 OG        -52.0400    5.4100  -31.3000 O.3       1 SER1        0.0000 
     11 OG        -43.3500    5.7600  -33.0600 O.3       1 SER1        0.0000 
     12 OG        -51.1300    7.3100  -31.5400 O.3       1 SER1        0.0000 
     13 O         -50.0400    1.6300  -34.9300 O.2       2 ALA2        0.0000 
     14 O         -51.3900    2.2600  -35.0900 O.2       2 ALA2        0.0000 
     15 N         -52.7400    2.8900  -35.2500 N.am      2 ALA2        0.0000 
     16 O         -50.5500    0.8400  -33.7600 O.2       2 ALA2        0.0000 
     17 O         -51.9000    1.4700  -33.9200 O.2       2 ALA2        0.0000 
     18 O         -51.0600    0.0400  -32.6000 O.2       2 ALA2        0.0000 
     19 N         -48.6200    4.3300  -36.3300 N.am      2 ALA2        0.0000 
     20 N         -49.9700    4.9500  -36.5000 N.am      2 ALA2        0.0000 
     21 N         -50.4800    4.1600  -35.3300 N.am      2 ALA2        0.0000 
     22 N         -51.8300    4.7900  -35.4900 N.am      2 ALA2        0.0000 
     23 N         -53.1800    5.4200  -35.6500 N.am      2 ALA2        0.0000 
     24 O         -49.0600    6.8500  -36.7300 O.2       2 ALA2        0.0000 
     25 N         -50.4100    7.4800  -36.8900 N.am      2 ALA2        0.0000 
     26 O         -48.2100    5.4300  -35.4100 O.2       2 ALA2        0.0000 
     27 O         -49.5700    6.0600  -35.5700 O.2       2 ALA2        0.0000 
     28 N         -50.9200    6.6900  -35.7300 N.am      2 ALA2        0.0000 
     29 N         -51.4300    5.9000  -34.5600 N.am      2 ALA2        0.0000 
     30 N         -52.7800    6.5300  -34.7200 N.am      2 ALA2        0.0000 
     31 N         -54.1300    7.1500  -34.8800 N.am      2 ALA2        0.0000 
     32 N         -48.3900    2.4200  -31.7400 N.am      2 ALA2        0.0000 
     33 N         -45.6100    4.4900  -32.9900 N.am      2 ALA2        0.0000 
     34 N         -52.3700    7.6300  -33.7900 N.am      2 ALA2        0.0000 
     35 N         -47.4700    4.3200  -31.9800 N.am      2 ALA2        0.0000 
     36 N         -48.8300    4.9500  -32.1400 N.am      2 ALA2        0.0000 
     37 N         -50.6900    4.7900  -31.1400 N.am      2 ALA2        0.0000 
     38 N         -48.4200    6.0600  -31.2100 N.am      2 ALA2        0.0000 
     39 N         -49.7700    6.6900  -31.3800 N.am      2 ALA2        0.0000 
     40 CZ        -49.1300    3.5300  -35.1700 C.ar      3 PHE5        0.0000 
     41 CZ        -49.6400    2.7400  -34.0000 C.ar      3 PHE5        0.0000 
     42 CZ        -52.3400    4.0000  -34.3200 C.ar      3 PHE5        0.0000 
     43 CZ        -50.1400    1.9400  -32.8300 C.ar      3 PHE5        0.0000 
     44 CZ        -51.5000    2.5700  -33.0000 C.ar      3 PHE5        0.0000 
     45 CZ        -45.0000    4.9700  -36.2500 C.ar      3 PHE5        0.0000 
     46 CZ        -46.3500    5.6000  -36.4100 C.ar      3 PHE5        0.0000 
     47 CZ        -44.1600    3.5400  -34.9200 C.ar      3 PHE5        0.0000 
     48 CZ        -46.0200    3.3800  -33.9200 C.ar      3 PHE5        0.0000 
     49 CZ        -47.3700    4.0100  -34.0800 C.ar      3 PHE5        0.0000 
     50 CZ        -47.8800    3.2100  -32.9100 C.ar      3 PHE5        0.0000 
     51 CZ        -49.2300    3.8400  -33.0700 C.ar      3 PHE5        0.0000 
     52 CZ        -51.9400    5.1000  -33.3900 C.ar      3 PHE5        0.0000 
     53 CZ        -53.2900    5.7300  -33.5600 C.ar      3 PHE5        0.0000 
     54 CZ        -44.6000    6.0700  -35.3200 C.ar      3 PHE5        0.0000 
     55 CZ        -45.9500    6.7000  -35.4800 C.ar      3 PHE5        0.0000 
     56 CZ        -48.0200    7.1600  -30.2900 C.ar      3 PHE5        0.0000 
     57 CZ        -49.3700    7.7900  -30.4500 C.ar      3 PHE5        0.0000 
     58 CA        -50.6500    1.1500  -31.6700 C.3       4 GLY6        0.0000 
     59 CA        -49.7400    3.0500  -31.9100 C.3       4 GLY6        0.0000 
     60 CA        -51.0900    3.6800  -32.0700 C.3       4 GLY6        0.0000 
     61 CA        -49.3400    4.1600  -30.9800 C.3       4 GLY6        0.0000 
     62 CA        -43.8600    4.9600  -31.9000 C.3       4 GLY6        0.0000 
     63 CA        -45.2100    5.5900  -32.0600 C.3       4 GLY6        0.0000 
     64 CA        -46.5600    6.2200  -32.2200 C.3       4 GLY6        0.0000 
     65 CA        -47.0700    5.4300  -31.0500 C.3       4 GLY6        0.0000 
     66 CA        -46.1600    7.3300  -31.2900 C.3       4 GLY6        0.0000 
     67 DU        -50.9900    3.3700  -34.1600 H         5 CUB7        0.0000 
     68 DU        -48.7200    4.6400  -34.2400 H         5 CUB7        0.0000 
     69 DU        -50.0700    5.2700  -34.4000 H         5 CUB7        0.0000 
     70 DU        -50.5800    4.4700  -33.2300 H         5 CUB7        0.0000 
     71 DU        -45.1100    5.2800  -34.1500 H         5 CUB7        0.0000 
     72 DU        -46.4600    5.9100  -34.3200 H         5 CUB7        0.0000 
     73 DU        -47.8100    6.5400  -34.4800 H         5 CUB7        0.0000 
     74 DU        -49.1600    7.1700  -34.6400 H         5 CUB7        0.0000 
     75 DU        -46.9700    5.1100  -33.1500 H         5 CUB7        0.0000 
     76 DU        -51.0200    7.0000  -33.6300 H         5 CUB7        0.0000 
     77 DU        -50.1800    5.5800  -32.3000 H         5 CUB7        0.0000 
     78 DU        -44.7000    6.3900  -33.2300 H         5 CUB7        0.0000 
     79 DU        -46.0500    7.0100  -33.3900 H         5 CUB7        0.0000 
     80 DU        -47.9100    6.8500  -32.3800 H         5 CUB7        0.0000 
     81 DU        -47.5100    7.9600  -31.4500 H         5 CUB7        0.0000 
@<TRIPOS>BOND
@<TRIPOS>SUBSTRUCTURE
     1 SER1        1 GROUP   
     2 ALA2       13 GROUP   
     3 PHE5       40 GROUP   
     4 GLY6       58 GROUP   
     5 CUB7       67 GROUP   
@<TRIPOS>SET

