#    Name: 6sne_4_PC_CAVITY_N1_4
#    Modification time : Fri May 22 19:29:06 2020

@<TRIPOS>MOLECULE
6sne_4_PC_CAVITY_N1_4
   89     0     6     0     0
SMALL
NO_CHARGES


@<TRIPOS>ATOM
      1 OG        -19.5800    5.7100  -65.1600 O.3       1 SER1        0.0000 
      2 OG        -20.0800    4.9200  -63.9900 O.3       1 SER1        0.0000 
      3 OG        -20.5900    4.1200  -62.8300 O.3       1 SER1        0.0000 
      4 OG        -19.1700    6.8200  -64.2300 O.3       1 SER1        0.0000 
      5 OG        -19.6800    6.0200  -63.0600 O.3       1 SER1        0.0000 
      6 OG        -20.1900    5.2300  -61.9000 O.3       1 SER1        0.0000 
      7 OG        -19.8500    3.0100  -59.4000 O.3       1 SER1        0.0000 
      8 OG        -16.0600    6.6700  -62.9800 O.3       1 SER1        0.0000 
      9 OG        -17.4100    7.3000  -63.1400 O.3       1 SER1        0.0000 
     10 N         -22.7500    2.5400  -64.8400 N.am      2 ALA2        0.0000 
     11 N         -21.8400    4.4400  -65.0800 N.am      2 ALA2        0.0000 
     12 N         -21.0000    3.0200  -63.7500 N.am      2 ALA2        0.0000 
     13 N         -22.3500    3.6500  -63.9200 N.am      2 ALA2        0.0000 
     14 O         -26.0700    3.3200  -61.9000 O.2       2 ALA2        0.0000 
     15 N         -25.2300    1.9000  -60.5800 N.am      2 ALA2        0.0000 
     16 N         -22.9600    3.1700  -60.6500 N.am      2 ALA2        0.0000 
     17 O         -24.3100    3.8000  -60.8100 O.2       2 ALA2        0.0000 
     18 N         -22.1200    1.7400  -59.3200 N.am      2 ALA2        0.0000 
     19 N         -23.4700    2.3700  -59.4900 N.am      2 ALA2        0.0000 
     20 N         -24.8200    3.0000  -59.6500 N.am      2 ALA2        0.0000 
     21 N         -20.7000    4.4400  -60.7300 N.am      2 ALA2        0.0000 
     22 N         -22.0500    5.0700  -60.8900 N.am      2 ALA2        0.0000 
     23 N         -21.2100    3.6400  -59.5600 N.am      2 ALA2        0.0000 
     24 N         -22.5600    4.2700  -59.7200 N.am      2 ALA2        0.0000 
     25 N         -23.9100    4.9000  -59.8900 N.am      2 ALA2        0.0000 
     26 O         -25.2600    5.5300  -60.0500 O.2       2 ALA2        0.0000 
     27 OD1       -26.8400    8.0600  -64.8000 O.co2     3 ASP3        0.0000 
     28 OD1       -16.9100    8.0900  -64.3100 O.co2     3 ASP3        0.0000 
     29 OD1       -18.2600    8.7200  -64.4700 O.co2     3 ASP3        0.0000 
     30 CZ        -23.2600    1.7500  -63.6800 C.ar      4 PHE5        0.0000 
     31 CZ        -24.6100    2.3800  -63.8400 C.ar      4 PHE5        0.0000 
     32 CZ        -25.1200    1.5800  -62.6700 C.ar      4 PHE5        0.0000 
     33 CZ        -26.4000    5.5400  -64.4000 C.ar      4 PHE5        0.0000 
     34 CZ        -27.7600    6.1600  -64.5600 C.ar      4 PHE5        0.0000 
     35 CZ        -20.1500    1.6000  -62.4300 C.ar      4 PHE5        0.0000 
     36 CZ        -25.5600    4.1100  -63.0700 C.ar      4 PHE5        0.0000 
     37 CZ        -26.9100    4.7400  -63.2300 C.ar      4 PHE5        0.0000 
     38 CZ        -22.0100    1.4300  -61.4200 C.ar      4 PHE5        0.0000 
     39 CZ        -20.9300    6.3400  -65.3200 C.ar      4 PHE5        0.0000 
     40 CZ        -26.0000    6.6400  -63.4700 C.ar      4 PHE5        0.0000 
     41 CZ        -27.3500    7.2700  -63.6300 C.ar      4 PHE5        0.0000 
     42 CZ        -19.7500    2.7000  -61.5000 C.ar      4 PHE5        0.0000 
     43 CZ        -25.1600    5.2200  -62.1400 C.ar      4 PHE5        0.0000 
     44 CZ        -21.6100    2.5400  -60.4900 C.ar      4 PHE5        0.0000 
     45 CZ        -25.6000    7.7500  -62.5400 C.ar      4 PHE5        0.0000 
     46 CZ        -26.1000    6.9500  -61.3700 C.ar      4 PHE5        0.0000 
     47 CA        -24.1000    3.1700  -65.0100 C.3       5 GLY6        0.0000 
     48 CA        -25.4600    3.8000  -65.1700 C.3       5 GLY6        0.0000 
     49 CA        -21.5000    2.2200  -62.5900 C.3       5 GLY6        0.0000 
     50 CA        -21.4700    9.1800  -63.6200 C.3       5 GLY6        0.0000 
     51 CA        -22.8200    9.8100  -63.7800 C.3       5 GLY6        0.0000 
     52 CA        -24.1800   10.4400  -63.9500 C.3       5 GLY6        0.0000 
     53 CA        -19.7200    9.6600  -62.5300 C.3       5 GLY6        0.0000 
     54 CA        -21.0700   10.2900  -62.6900 C.3       5 GLY6        0.0000 
     55 CA        -20.2200    8.8700  -61.3700 C.3       5 GLY6        0.0000 
     56 CA        -21.5800    9.5000  -61.5300 C.3       5 GLY6        0.0000 
     57 DU        -25.9700    3.0100  -64.0000 H         6 CUB7        0.0000 
     58 DU        -23.1900    5.0700  -65.2400 H         6 CUB7        0.0000 
     59 DU        -24.5400    5.7000  -65.4000 H         6 CUB7        0.0000 
     60 DU        -25.9000    6.3300  -65.5700 H         6 CUB7        0.0000 
     61 DU        -27.2500    6.9600  -65.7300 H         6 CUB7        0.0000 
     62 DU        -25.0500    4.9100  -64.2400 H         6 CUB7        0.0000 
     63 DU        -22.8600    2.8500  -62.7500 H         6 CUB7        0.0000 
     64 DU        -24.2100    3.4800  -62.9100 H         6 CUB7        0.0000 
     65 DU        -23.3700    2.0600  -61.5800 H         6 CUB7        0.0000 
     66 DU        -24.7200    2.6900  -61.7400 H         6 CUB7        0.0000 
     67 DU        -22.2800    6.9700  -65.4800 H         6 CUB7        0.0000 
     68 DU        -23.6300    7.6000  -65.6400 H         6 CUB7        0.0000 
     69 DU        -24.9800    8.2300  -65.8000 H         6 CUB7        0.0000 
     70 DU        -21.4400    5.5500  -64.1500 H         6 CUB7        0.0000 
     71 DU        -25.4900    7.4400  -64.6400 H         6 CUB7        0.0000 
     72 DU        -21.9400    4.7500  -62.9900 H         6 CUB7        0.0000 
     73 DU        -24.6500    6.0100  -63.3100 H         6 CUB7        0.0000 
     74 DU        -21.1000    3.3300  -61.6600 H         6 CUB7        0.0000 
     75 DU        -22.4500    3.9600  -61.8200 H         6 CUB7        0.0000 
     76 DU        -23.8000    4.5900  -61.9800 H         6 CUB7        0.0000 
     77 DU        -20.5200    7.4500  -64.3900 H         6 CUB7        0.0000 
     78 DU        -21.8800    8.0800  -64.5500 H         6 CUB7        0.0000 
     79 DU        -23.2300    8.7100  -64.7100 H         6 CUB7        0.0000 
     80 DU        -21.0300    6.6500  -63.2200 H         6 CUB7        0.0000 
     81 DU        -21.5400    5.8600  -62.0600 H         6 CUB7        0.0000 
     82 DU        -23.4000    5.7000  -61.0500 H         6 CUB7        0.0000 
     83 DU        -18.7700    7.9200  -63.3000 H         6 CUB7        0.0000 
     84 DU        -20.1200    8.5500  -63.4600 H         6 CUB7        0.0000 
     85 DU        -19.2800    7.1300  -62.1300 H         6 CUB7        0.0000 
     86 DU        -20.6300    7.7600  -62.3000 H         6 CUB7        0.0000 
     87 DU        -21.9800    8.3900  -62.4600 H         6 CUB7        0.0000 
     88 DU        -17.0100    8.4000  -62.2100 H         6 CUB7        0.0000 
     89 DU        -18.3600    9.0300  -62.3700 H         6 CUB7        0.0000 
@<TRIPOS>BOND
@<TRIPOS>SUBSTRUCTURE
     1 SER1        1 GROUP   
     2 ALA2       10 GROUP   
     3 ASP3       27 GROUP   
     4 PHE5       30 GROUP   
     5 GLY6       47 GROUP   
     6 CUB7       57 GROUP   
@<TRIPOS>SET

