#    Name: 6sne_3_PC_CAVITY_N1_6
#    Modification time : Fri May 22 19:29:00 2020

@<TRIPOS>MOLECULE
6sne_3_PC_CAVITY_N1_6
  134     0     6     0     0
SMALL
NO_CHARGES


@<TRIPOS>ATOM
      1 OG        -28.4600    3.6400  -68.5100 O.3       1 SER1        0.0000 
      2 OG        -28.0600    4.7500  -67.5800 O.3       1 SER1        0.0000 
      3 OG        -27.2100    3.3200  -66.2600 O.3       1 SER1        0.0000 
      4 OG        -28.5700    3.9500  -66.4200 O.3       1 SER1        0.0000 
      5 OG        -27.7200    2.5300  -65.0900 O.3       1 SER1        0.0000 
      6 OG        -29.0700    3.1600  -65.2500 O.3       1 SER1        0.0000 
      7 OG        -26.4700    2.2100  -62.8300 O.3       1 SER1        0.0000 
      8 OG        -27.8300    2.8400  -62.9900 O.3       1 SER1        0.0000 
      9 OG        -19.5800    5.7100  -65.1600 O.3       1 SER1        0.0000 
     10 N         -28.2900    6.6500  -72.1700 N.am      2 ALA2        0.0000 
     11 N         -28.8000    5.8600  -71.0100 N.am      2 ALA2        0.0000 
     12 N         -29.8100    4.2700  -68.6700 N.am      2 ALA2        0.0000 
     13 N         -29.7400    7.5900  -70.2400 N.am      2 ALA2        0.0000 
     14 N         -28.9000    6.1700  -68.9100 N.am      2 ALA2        0.0000 
     15 N         -29.4100    5.3700  -67.7500 N.am      2 ALA2        0.0000 
     16 N         -29.9200    4.5800  -66.5800 N.am      2 ALA2        0.0000 
     17 N         -26.3700    1.9000  -64.9300 N.am      2 ALA2        0.0000 
     18 N         -29.3400    8.7000  -69.3100 N.am      2 ALA2        0.0000 
     19 N         -28.5000    7.2700  -67.9800 N.am      2 ALA2        0.0000 
     20 N         -22.2400    3.3300  -66.0100 N.am      2 ALA2        0.0000 
     21 N         -29.0000    6.4800  -66.8200 N.am      2 ALA2        0.0000 
     22 N         -22.7500    2.5400  -64.8400 N.am      2 ALA2        0.0000 
     23 N         -29.5100    5.6900  -65.6500 N.am      2 ALA2        0.0000 
     24 O         -22.9300   -0.4700  -61.1800 O.2       2 ALA2        0.0000 
     25 N         -19.9800    4.6100  -66.0900 N.am      2 ALA2        0.0000 
     26 N         -21.8400    4.4400  -65.0800 N.am      2 ALA2        0.0000 
     27 N         -21.0000    3.0200  -63.7500 N.am      2 ALA2        0.0000 
     28 N         -22.3500    3.6500  -63.9200 N.am      2 ALA2        0.0000 
     29 O         -26.0700    3.3200  -61.9000 O.2       2 ALA2        0.0000 
     30 N         -23.8700    1.2700  -60.4100 N.am      2 ALA2        0.0000 
     31 N         -25.2300    1.9000  -60.5800 N.am      2 ALA2        0.0000 
     32 N         -22.9600    3.1700  -60.6500 N.am      2 ALA2        0.0000 
     33 O         -24.3100    3.8000  -60.8100 O.2       2 ALA2        0.0000 
     34 N         -23.4700    2.3700  -59.4900 N.am      2 ALA2        0.0000 
     35 N         -24.8200    3.0000  -59.6500 N.am      2 ALA2        0.0000 
     36 N         -22.0500    5.0700  -60.8900 N.am      2 ALA2        0.0000 
     37 N         -22.5600    4.2700  -59.7200 N.am      2 ALA2        0.0000 
     38 N         -23.9100    4.9000  -59.8900 N.am      2 ALA2        0.0000 
     39 O         -25.2600    5.5300  -60.0500 O.2       2 ALA2        0.0000 
     40 N         -22.3100   10.6100  -64.9500 N.am      2 ALA2        0.0000 
     41 OD1       -27.8800    7.7600  -71.2500 O.co2     3 ASP3        0.0000 
     42 OD1       -27.4800    8.8600  -70.3200 O.co2     3 ASP3        0.0000 
     43 OD1       -26.6400    7.4400  -68.9900 O.co2     3 ASP3        0.0000 
     44 OD1       -27.9900    8.0700  -69.1500 O.co2     3 ASP3        0.0000 
     45 OD1       -27.1400    6.6500  -67.8200 O.co2     3 ASP3        0.0000 
     46 OD1       -24.8800    7.9200  -67.9000 O.co2     3 ASP3        0.0000 
     47 OD1       -25.3900    7.1200  -66.7300 O.co2     3 ASP3        0.0000 
     48 OD1       -28.6000    7.5900  -65.8900 O.co2     3 ASP3        0.0000 
     49 OD1       -24.4800    9.0200  -66.9700 O.co2     3 ASP3        0.0000 
     50 OD1       -26.8400    8.0600  -64.8000 O.co2     3 ASP3        0.0000 
     51 OD1       -20.0100    8.2400  -65.5600 O.co2     3 ASP3        0.0000 
     52 CZ        -23.6700    0.6400  -64.6100 C.ar      4 PHE5        0.0000 
     53 CZ        -25.0200    1.2700  -64.7700 C.ar      4 PHE5        0.0000 
     54 CZ        -22.8200   -0.7800  -63.2800 C.ar      4 PHE5        0.0000 
     55 CZ        -28.1600    5.0600  -65.4900 C.ar      4 PHE5        0.0000 
     56 CZ        -23.2600    1.7500  -63.6800 C.ar      4 PHE5        0.0000 
     57 CZ        -24.6100    2.3800  -63.8400 C.ar      4 PHE5        0.0000 
     58 CZ        -27.3200    3.6400  -64.1600 C.ar      4 PHE5        0.0000 
     59 CZ        -28.6700    4.2600  -64.3200 C.ar      4 PHE5        0.0000 
     60 CZ        -22.4200    0.3200  -62.3500 C.ar      4 PHE5        0.0000 
     61 CZ        -23.7700    0.9500  -62.5100 C.ar      4 PHE5        0.0000 
     62 CZ        -25.1200    1.5800  -62.6700 C.ar      4 PHE5        0.0000 
     63 CZ        -22.1800    6.6600  -67.5800 C.ar      4 PHE5        0.0000 
     64 CZ        -21.3300    5.2400  -66.2500 C.ar      4 PHE5        0.0000 
     65 CZ        -26.4000    5.5400  -64.4000 C.ar      4 PHE5        0.0000 
     66 CZ        -27.7600    6.1600  -64.5600 C.ar      4 PHE5        0.0000 
     67 CZ        -25.5600    4.1100  -63.0700 C.ar      4 PHE5        0.0000 
     68 CZ        -26.9100    4.7400  -63.2300 C.ar      4 PHE5        0.0000 
     69 CZ        -22.0100    1.4300  -61.4200 C.ar      4 PHE5        0.0000 
     70 CZ        -20.4200    7.1400  -66.4900 C.ar      4 PHE5        0.0000 
     71 CZ        -20.9300    6.3400  -65.3200 C.ar      4 PHE5        0.0000 
     72 CZ        -26.0000    6.6400  -63.4700 C.ar      4 PHE5        0.0000 
     73 CZ        -27.3500    7.2700  -63.6300 C.ar      4 PHE5        0.0000 
     74 CZ        -25.1600    5.2200  -62.1400 C.ar      4 PHE5        0.0000 
     75 CZ        -25.6000    7.7500  -62.5400 C.ar      4 PHE5        0.0000 
     76 CZ        -26.1000    6.9500  -61.3700 C.ar      4 PHE5        0.0000 
     77 CA        -26.9400    6.0200  -72.0100 C.3       5 GLY6        0.0000 
     78 CA        -27.9500    4.4300  -69.6800 C.3       5 GLY6        0.0000 
     79 CA        -29.3000    5.0600  -69.8400 C.3       5 GLY6        0.0000 
     80 CA        -27.0400    6.3300  -69.9200 C.3       5 GLY6        0.0000 
     81 CA        -28.3900    6.9600  -70.0800 C.3       5 GLY6        0.0000 
     82 CA        -27.5500    5.5400  -68.7500 C.3       5 GLY6        0.0000 
     83 CA        -26.7000    4.1200  -67.4200 C.3       5 GLY6        0.0000 
     84 CA        -24.5100    2.0600  -65.9300 C.3       5 GLY6        0.0000 
     85 CA        -25.8600    2.6900  -66.1000 C.3       5 GLY6        0.0000 
     86 CA        -25.7900    6.0200  -67.6600 C.3       5 GLY6        0.0000 
     87 CA        -23.6000    3.9600  -66.1700 C.3       5 GLY6        0.0000 
     88 CA        -24.9500    4.5900  -66.3300 C.3       5 GLY6        0.0000 
     89 CA        -26.3000    5.2200  -66.4900 C.3       5 GLY6        0.0000 
     90 CA        -24.1000    3.1700  -65.0100 C.3       5 GLY6        0.0000 
     91 CA        -25.4600    3.8000  -65.1700 C.3       5 GLY6        0.0000 
     92 CA        -21.9100    1.1200  -63.5200 C.3       5 GLY6        0.0000 
     93 CA        -22.6800    5.8600  -66.4100 C.3       5 GLY6        0.0000 
     94 CA        -24.0400    6.4900  -66.5700 C.3       5 GLY6        0.0000 
     95 CA        -21.5000    2.2200  -62.5900 C.3       5 GLY6        0.0000 
     96 CA        -21.7700    7.7600  -66.6500 C.3       5 GLY6        0.0000 
     97 CA        -23.1200    8.3900  -66.8100 C.3       5 GLY6        0.0000 
     98 CA        -21.3700    8.8700  -65.7200 C.3       5 GLY6        0.0000 
     99 CA        -22.7200    9.5000  -65.8800 C.3       5 GLY6        0.0000 
    100 CA        -20.9600    9.9800  -64.7900 C.3       5 GLY6        0.0000 
    101 CA        -21.4700    9.1800  -63.6200 C.3       5 GLY6        0.0000 
    102 CA        -22.8200    9.8100  -63.7800 C.3       5 GLY6        0.0000 
    103 CA        -24.1800   10.4400  -63.9500 C.3       5 GLY6        0.0000 
    104 DU        -29.2400    8.3900  -71.4100 H         6 CUB7        0.0000 
    105 DU        -27.6500    5.8500  -66.6600 H         6 CUB7        0.0000 
    106 DU        -26.8100    4.4300  -65.3300 H         6 CUB7        0.0000 
    107 DU        -25.9700    3.0100  -64.0000 H         6 CUB7        0.0000 
    108 DU        -26.7400    7.7500  -66.8900 H         6 CUB7        0.0000 
    109 DU        -23.1900    5.0700  -65.2400 H         6 CUB7        0.0000 
    110 DU        -24.5400    5.7000  -65.4000 H         6 CUB7        0.0000 
    111 DU        -25.9000    6.3300  -65.5700 H         6 CUB7        0.0000 
    112 DU        -27.2500    6.9600  -65.7300 H         6 CUB7        0.0000 
    113 DU        -25.0500    4.9100  -64.2400 H         6 CUB7        0.0000 
    114 DU        -22.8600    2.8500  -62.7500 H         6 CUB7        0.0000 
    115 DU        -24.2100    3.4800  -62.9100 H         6 CUB7        0.0000 
    116 DU        -23.3700    2.0600  -61.5800 H         6 CUB7        0.0000 
    117 DU        -24.7200    2.6900  -61.7400 H         6 CUB7        0.0000 
    118 DU        -22.2800    6.9700  -65.4800 H         6 CUB7        0.0000 
    119 DU        -23.6300    7.6000  -65.6400 H         6 CUB7        0.0000 
    120 DU        -24.9800    8.2300  -65.8000 H         6 CUB7        0.0000 
    121 DU        -21.4400    5.5500  -64.1500 H         6 CUB7        0.0000 
    122 DU        -25.4900    7.4400  -64.6400 H         6 CUB7        0.0000 
    123 DU        -21.9400    4.7500  -62.9900 H         6 CUB7        0.0000 
    124 DU        -24.6500    6.0100  -63.3100 H         6 CUB7        0.0000 
    125 DU        -22.4500    3.9600  -61.8200 H         6 CUB7        0.0000 
    126 DU        -23.8000    4.5900  -61.9800 H         6 CUB7        0.0000 
    127 DU        -24.0700   10.1300  -66.0400 H         6 CUB7        0.0000 
    128 DU        -20.5200    7.4500  -64.3900 H         6 CUB7        0.0000 
    129 DU        -21.8800    8.0800  -64.5500 H         6 CUB7        0.0000 
    130 DU        -23.2300    8.7100  -64.7100 H         6 CUB7        0.0000 
    131 DU        -21.0300    6.6500  -63.2200 H         6 CUB7        0.0000 
    132 DU        -21.5400    5.8600  -62.0600 H         6 CUB7        0.0000 
    133 DU        -23.4000    5.7000  -61.0500 H         6 CUB7        0.0000 
    134 DU        -21.9800    8.3900  -62.4600 H         6 CUB7        0.0000 
@<TRIPOS>BOND
@<TRIPOS>SUBSTRUCTURE
     1 SER1        1 GROUP   
     2 ALA2       10 GROUP   
     3 ASP3       41 GROUP   
     4 PHE5       52 GROUP   
     5 GLY6       77 GROUP   
     6 CUB7      104 GROUP   
@<TRIPOS>SET

