#    Name: 6sne_2_PC_CAVITY_N1_6
#    Modification time : Fri May 22 19:28:54 2020

@<TRIPOS>MOLECULE
6sne_2_PC_CAVITY_N1_6
   73     0     6     0     0
SMALL
NO_CHARGES


@<TRIPOS>ATOM
      1 OG        -24.0700   42.9900  -49.4700 O.3       1 SER1        0.0000 
      2 OG        -20.9600   42.8400  -48.2200 O.3       1 SER1        0.0000 
      3 OG        -22.3100   43.4700  -48.3800 O.3       1 SER1        0.0000 
      4 OG        -23.6600   44.1000  -48.5400 O.3       1 SER1        0.0000 
      5 OG        -18.6900   44.1100  -48.2900 O.3       1 SER1        0.0000 
      6 OG        -20.5500   43.9400  -47.2900 O.3       1 SER1        0.0000 
      7 OG        -17.1500   45.2100  -43.0100 O.3       1 SER1        0.0000 
      8 OG        -19.0100   45.0500  -42.0100 O.3       1 SER1        0.0000 
      9 O         -19.6100   42.2100  -48.0600 O.2       2 ALA2        0.0000 
     10 N         -17.8500   42.6900  -46.9700 N.am      2 ALA2        0.0000 
     11 N         -19.2000   43.3200  -47.1300 N.am      2 ALA2        0.0000 
     12 N         -23.2600   45.2000  -47.6100 N.am      2 ALA2        0.0000 
     13 O         -18.3600   41.8900  -45.8000 O.2       2 ALA2        0.0000 
     14 O         -19.7100   42.5200  -45.9600 O.2       2 ALA2        0.0000 
     15 N         -15.5900   43.9600  -47.0400 N.am      2 ALA2        0.0000 
     16 N         -16.9400   44.5900  -47.2000 N.am      2 ALA2        0.0000 
     17 O         -16.0900   43.1600  -45.8800 O.2       2 ALA2        0.0000 
     18 N         -17.4500   43.7900  -46.0400 N.am      2 ALA2        0.0000 
     19 N         -16.6000   42.3700  -44.7100 N.am      2 ALA2        0.0000 
     20 N         -17.1100   41.5800  -43.5400 N.am      2 ALA2        0.0000 
     21 N         -15.1800   45.0600  -46.1100 N.am      2 ALA2        0.0000 
     22 O         -14.3400   43.6400  -44.7900 O.2       2 ALA2        0.0000 
     23 N         -21.1000   46.7900  -45.5900 N.am      2 ALA2        0.0000 
     24 O         -14.8500   42.8500  -43.6200 O.2       2 ALA2        0.0000 
     25 N         -16.2000   43.4800  -43.7800 N.am      2 ALA2        0.0000 
     26 N         -20.2600   45.3600  -44.2600 N.am      2 ALA2        0.0000 
     27 N         -21.6100   45.9900  -44.4300 N.am      2 ALA2        0.0000 
     28 N         -20.7600   44.5700  -43.1000 N.am      2 ALA2        0.0000 
     29 N         -18.5000   45.8400  -43.1700 N.am      2 ALA2        0.0000 
     30 N         -20.3600   45.6800  -42.1700 N.am      2 ALA2        0.0000 
     31 OD1       -24.6800   42.5100  -46.2100 O.co2     3 ASP3        0.0000 
     32 CZ        -22.7200   42.3600  -49.3100 C.ar      4 PHE5        0.0000 
     33 CZ        -23.2200   41.5700  -48.1400 C.ar      4 PHE5        0.0000 
     34 CZ        -24.5800   42.2000  -48.3000 C.ar      4 PHE5        0.0000 
     35 CZ        -21.4700   42.0400  -47.0500 C.ar      4 PHE5        0.0000 
     36 CZ        -22.8200   42.6700  -47.2100 C.ar      4 PHE5        0.0000 
     37 CZ        -21.9800   41.2500  -45.8800 C.ar      4 PHE5        0.0000 
     38 CZ        -23.3300   41.8800  -46.0500 C.ar      4 PHE5        0.0000 
     39 CZ        -21.9100   44.5700  -47.4500 C.ar      4 PHE5        0.0000 
     40 CZ        -18.2900   45.2200  -47.3700 C.ar      4 PHE5        0.0000 
     41 CZ        -19.6400   45.8400  -47.5300 C.ar      4 PHE5        0.0000 
     42 CZ        -16.5300   45.6900  -46.2800 C.ar      4 PHE5        0.0000 
     43 CZ        -15.6900   44.2700  -44.9500 C.ar      4 PHE5        0.0000 
     44 CZ        -17.0400   44.9000  -45.1100 C.ar      4 PHE5        0.0000 
     45 CZ        -22.6200   44.4100  -42.0900 C.ar      4 PHE5        0.0000 
     46 CZ        -15.7900   44.5800  -42.8500 C.ar      4 PHE5        0.0000 
     47 CZ        -20.8700   44.8800  -41.0000 C.ar      4 PHE5        0.0000 
     48 CA        -24.1700   43.3000  -47.3700 C.3       5 GLY6        0.0000 
     49 CA        -22.4200   43.7800  -46.2800 C.3       5 GLY6        0.0000 
     50 CA        -22.9200   42.9900  -45.1200 C.3       5 GLY6        0.0000 
     51 CA        -21.5000   45.6800  -46.5200 C.3       5 GLY6        0.0000 
     52 CA        -22.0100   44.8900  -45.3500 C.3       5 GLY6        0.0000 
     53 CA        -22.5200   44.0900  -44.1900 C.3       5 GLY6        0.0000 
     54 CA        -17.8900   46.3200  -46.4400 C.3       5 GLY6        0.0000 
     55 CA        -19.2400   46.9500  -46.6000 C.3       5 GLY6        0.0000 
     56 CA        -18.3900   45.5300  -45.2700 C.3       5 GLY6        0.0000 
     57 CA        -19.7500   46.1600  -45.4300 C.3       5 GLY6        0.0000 
     58 CA        -22.1200   45.2000  -43.2600 C.3       5 GLY6        0.0000 
     59 CA        -17.4800   47.4300  -45.5100 C.3       5 GLY6        0.0000 
     60 CA        -17.9900   46.6300  -44.3400 C.3       5 GLY6        0.0000 
     61 DU        -21.0600   43.1500  -46.1200 H         6 CUB7        0.0000 
     62 DU        -20.2200   41.7300  -44.7900 H         6 CUB7        0.0000 
     63 DU        -21.5700   42.3600  -44.9600 H         6 CUB7        0.0000 
     64 DU        -18.8000   44.4200  -46.2000 H         6 CUB7        0.0000 
     65 DU        -20.1500   45.0500  -46.3600 H         6 CUB7        0.0000 
     66 DU        -17.9600   43.0000  -44.8700 H         6 CUB7        0.0000 
     67 DU        -20.6600   44.2600  -45.1900 H         6 CUB7        0.0000 
     68 DU        -18.4600   42.2000  -43.7000 H         6 CUB7        0.0000 
     69 DU        -21.1700   43.4600  -44.0300 H         6 CUB7        0.0000 
     70 DU        -17.5500   44.1100  -43.9400 H         6 CUB7        0.0000 
     71 DU        -18.9000   44.7300  -44.1000 H         6 CUB7        0.0000 
     72 DU        -18.0600   43.3100  -42.7800 H         6 CUB7        0.0000 
     73 DU        -19.4100   43.9400  -42.9400 H         6 CUB7        0.0000 
@<TRIPOS>BOND
@<TRIPOS>SUBSTRUCTURE
     1 SER1        1 GROUP   
     2 ALA2        9 GROUP   
     3 ASP3       31 GROUP   
     4 PHE5       32 GROUP   
     5 GLY6       48 GROUP   
     6 CUB7       61 GROUP   
@<TRIPOS>SET

