#    Name: 6sne_9_PC
#    Modification time : Fri May 22 19:29:22 2020

@<TRIPOS>MOLECULE
6sne_9_PC
   11    10     1     0     0
SMALL
NO_CHARGES


@<TRIPOS>ATOM
      1 P1        -30.2610   13.1790  -71.5120 P.3       1 PC801       0.0000 
      2 O1        -30.5090   12.2120  -72.6320 O.co2     1 PC801       0.0000 
      3 O3        -31.5190   14.0090  -71.3340 O.co2     1 PC801       0.0000 
      4 O4        -30.0200   12.3870  -70.2460 O.co2     1 PC801       0.0000 
      5 O2        -28.9030   14.0860  -71.7920 O.3       1 PC801       0.0000 
      6 C1        -28.7380   14.9090  -72.9190 C.3       1 PC801       0.0000 
      7 C2        -29.9920   15.7600  -73.2040 C.3       1 PC801       0.0000 
      8 N1        -29.7320   17.1410  -73.5930 N.4       1 PC801       0.0000 
      9 C3        -30.7090   17.5560  -74.5770 C.3       1 PC801       0.0000 
     10 C4        -28.4070   17.3230  -74.1290 C.3       1 PC801       0.0000 
     11 C5        -29.8480   18.0060  -72.4490 C.3       1 PC801       0.0000 
@<TRIPOS>BOND
     1    1    2 ar   
     2    1    3 ar   
     3    1    4 ar   
     4    1    5 1    
     5    5    6 1    
     6    6    7 1    
     7    7    8 1    
     8    8    9 1    
     9    8   10 1    
    10    8   11 1    
@<TRIPOS>SUBSTRUCTURE
     1 PC801       1 GROUP   
@<TRIPOS>SET

