#    Name: 6sne_7_PC_CAVITY_N1_4
#    Modification time : Fri May 22 19:29:11 2020

@<TRIPOS>MOLECULE
6sne_7_PC_CAVITY_N1_4
   52     0     5     0     0
SMALL
NO_CHARGES


@<TRIPOS>ATOM
      1 OG        -53.6900    4.6300  -34.4800 O.3       1 SER1        0.0000 
      2 OG        -46.8600    4.8000  -35.2400 O.3       1 SER1        0.0000 
      3 OG        -54.6400    6.3600  -33.7200 O.3       1 SER1        0.0000 
      4 OG        -51.5300    6.2100  -32.4700 O.3       1 SER1        0.0000 
      5 OG        -52.8800    6.8400  -32.6300 O.3       1 SER1        0.0000 
      6 OG        -52.0400    5.4100  -31.3000 O.3       1 SER1        0.0000 
      7 OG        -51.1300    7.3100  -31.5400 O.3       1 SER1        0.0000 
      8 N         -48.6200    4.3300  -36.3300 N.am      2 ALA2        0.0000 
      9 N         -49.9700    4.9500  -36.5000 N.am      2 ALA2        0.0000 
     10 N         -50.4800    4.1600  -35.3300 N.am      2 ALA2        0.0000 
     11 N         -51.8300    4.7900  -35.4900 N.am      2 ALA2        0.0000 
     12 N         -53.1800    5.4200  -35.6500 N.am      2 ALA2        0.0000 
     13 O         -49.0600    6.8500  -36.7300 O.2       2 ALA2        0.0000 
     14 N         -50.4100    7.4800  -36.8900 N.am      2 ALA2        0.0000 
     15 O         -48.2100    5.4300  -35.4100 O.2       2 ALA2        0.0000 
     16 O         -49.5700    6.0600  -35.5700 O.2       2 ALA2        0.0000 
     17 N         -50.9200    6.6900  -35.7300 N.am      2 ALA2        0.0000 
     18 N         -51.4300    5.9000  -34.5600 N.am      2 ALA2        0.0000 
     19 N         -52.7800    6.5300  -34.7200 N.am      2 ALA2        0.0000 
     20 N         -54.1300    7.1500  -34.8800 N.am      2 ALA2        0.0000 
     21 N         -52.3700    7.6300  -33.7900 N.am      2 ALA2        0.0000 
     22 N         -48.8300    4.9500  -32.1400 N.am      2 ALA2        0.0000 
     23 N         -50.6900    4.7900  -31.1400 N.am      2 ALA2        0.0000 
     24 N         -48.4200    6.0600  -31.2100 N.am      2 ALA2        0.0000 
     25 N         -49.7700    6.6900  -31.3800 N.am      2 ALA2        0.0000 
     26 CZ        -52.3400    4.0000  -34.3200 C.ar      3 PHE5        0.0000 
     27 CZ        -45.0000    4.9700  -36.2500 C.ar      3 PHE5        0.0000 
     28 CZ        -46.3500    5.6000  -36.4100 C.ar      3 PHE5        0.0000 
     29 CZ        -47.3700    4.0100  -34.0800 C.ar      3 PHE5        0.0000 
     30 CZ        -51.9400    5.1000  -33.3900 C.ar      3 PHE5        0.0000 
     31 CZ        -53.2900    5.7300  -33.5600 C.ar      3 PHE5        0.0000 
     32 CZ        -44.6000    6.0700  -35.3200 C.ar      3 PHE5        0.0000 
     33 CZ        -45.9500    6.7000  -35.4800 C.ar      3 PHE5        0.0000 
     34 CZ        -48.0200    7.1600  -30.2900 C.ar      3 PHE5        0.0000 
     35 CZ        -49.3700    7.7900  -30.4500 C.ar      3 PHE5        0.0000 
     36 CA        -46.5600    6.2200  -32.2200 C.3       4 GLY6        0.0000 
     37 CA        -47.0700    5.4300  -31.0500 C.3       4 GLY6        0.0000 
     38 CA        -46.1600    7.3300  -31.2900 C.3       4 GLY6        0.0000 
     39 DU        -48.7200    4.6400  -34.2400 H         5 CUB7        0.0000 
     40 DU        -50.0700    5.2700  -34.4000 H         5 CUB7        0.0000 
     41 DU        -50.5800    4.4700  -33.2300 H         5 CUB7        0.0000 
     42 DU        -45.1100    5.2800  -34.1500 H         5 CUB7        0.0000 
     43 DU        -46.4600    5.9100  -34.3200 H         5 CUB7        0.0000 
     44 DU        -47.8100    6.5400  -34.4800 H         5 CUB7        0.0000 
     45 DU        -49.1600    7.1700  -34.6400 H         5 CUB7        0.0000 
     46 DU        -46.9700    5.1100  -33.1500 H         5 CUB7        0.0000 
     47 DU        -51.0200    7.0000  -33.6300 H         5 CUB7        0.0000 
     48 DU        -50.1800    5.5800  -32.3000 H         5 CUB7        0.0000 
     49 DU        -44.7000    6.3900  -33.2300 H         5 CUB7        0.0000 
     50 DU        -46.0500    7.0100  -33.3900 H         5 CUB7        0.0000 
     51 DU        -47.9100    6.8500  -32.3800 H         5 CUB7        0.0000 
     52 DU        -47.5100    7.9600  -31.4500 H         5 CUB7        0.0000 
@<TRIPOS>BOND
@<TRIPOS>SUBSTRUCTURE
     1 SER1        1 GROUP   
     2 ALA2        8 GROUP   
     3 PHE5       26 GROUP   
     4 GLY6       36 GROUP   
     5 CUB7       39 GROUP   
@<TRIPOS>SET

