#    Name: 6sne_1_PC_CAVITY_N1_4
#    Modification time : Fri May 22 19:28:50 2020

@<TRIPOS>MOLECULE
6sne_1_PC_CAVITY_N1_4
   41     0     6     0     0
SMALL
NO_CHARGES


@<TRIPOS>ATOM
      1 OG        -24.0700   42.9900  -49.4700 O.3       1 SER1        0.0000 
      2 OG        -25.9300   42.8300  -48.4600 O.3       1 SER1        0.0000 
      3 OG        -20.9600   42.8400  -48.2200 O.3       1 SER1        0.0000 
      4 OG        -22.3100   43.4700  -48.3800 O.3       1 SER1        0.0000 
      5 OG        -23.6600   44.1000  -48.5400 O.3       1 SER1        0.0000 
      6 OG        -25.5200   43.9300  -47.5300 O.3       1 SER1        0.0000 
      7 OG        -18.6900   44.1100  -48.2900 O.3       1 SER1        0.0000 
      8 OG        -20.5500   43.9400  -47.2900 O.3       1 SER1        0.0000 
      9 O         -19.6100   42.2100  -48.0600 O.2       2 ALA2        0.0000 
     10 N         -19.2000   43.3200  -47.1300 N.am      2 ALA2        0.0000 
     11 N         -23.2600   45.2000  -47.6100 N.am      2 ALA2        0.0000 
     12 O         -19.7100   42.5200  -45.9600 O.2       2 ALA2        0.0000 
     13 N         -21.1000   46.7900  -45.5900 N.am      2 ALA2        0.0000 
     14 N         -20.2600   45.3600  -44.2600 N.am      2 ALA2        0.0000 
     15 N         -21.6100   45.9900  -44.4300 N.am      2 ALA2        0.0000 
     16 OD1       -24.6800   42.5100  -46.2100 O.co2     3 ASP3        0.0000 
     17 CZ        -22.7200   42.3600  -49.3100 C.ar      4 PHE5        0.0000 
     18 CZ        -23.2200   41.5700  -48.1400 C.ar      4 PHE5        0.0000 
     19 CZ        -24.5800   42.2000  -48.3000 C.ar      4 PHE5        0.0000 
     20 CZ        -21.4700   42.0400  -47.0500 C.ar      4 PHE5        0.0000 
     21 CZ        -22.8200   42.6700  -47.2100 C.ar      4 PHE5        0.0000 
     22 CZ        -21.9800   41.2500  -45.8800 C.ar      4 PHE5        0.0000 
     23 CZ        -23.3300   41.8800  -46.0500 C.ar      4 PHE5        0.0000 
     24 CZ        -21.9100   44.5700  -47.4500 C.ar      4 PHE5        0.0000 
     25 CZ        -18.2900   45.2200  -47.3700 C.ar      4 PHE5        0.0000 
     26 CZ        -19.6400   45.8400  -47.5300 C.ar      4 PHE5        0.0000 
     27 CZ        -20.9900   46.4700  -47.6900 C.ar      4 PHE5        0.0000 
     28 CA        -24.1700   43.3000  -47.3700 C.3       5 GLY6        0.0000 
     29 CA        -22.4200   43.7800  -46.2800 C.3       5 GLY6        0.0000 
     30 CA        -22.9200   42.9900  -45.1200 C.3       5 GLY6        0.0000 
     31 CA        -21.5000   45.6800  -46.5200 C.3       5 GLY6        0.0000 
     32 CA        -22.0100   44.8900  -45.3500 C.3       5 GLY6        0.0000 
     33 CA        -22.5200   44.0900  -44.1900 C.3       5 GLY6        0.0000 
     34 CA        -19.7500   46.1600  -45.4300 C.3       5 GLY6        0.0000 
     35 DU        -21.0600   43.1500  -46.1200 H         6 CUB7        0.0000 
     36 DU        -20.2200   41.7300  -44.7900 H         6 CUB7        0.0000 
     37 DU        -21.5700   42.3600  -44.9600 H         6 CUB7        0.0000 
     38 DU        -18.8000   44.4200  -46.2000 H         6 CUB7        0.0000 
     39 DU        -20.1500   45.0500  -46.3600 H         6 CUB7        0.0000 
     40 DU        -20.6600   44.2600  -45.1900 H         6 CUB7        0.0000 
     41 DU        -21.1700   43.4600  -44.0300 H         6 CUB7        0.0000 
@<TRIPOS>BOND
@<TRIPOS>SUBSTRUCTURE
     1 SER1        1 GROUP   
     2 ALA2        9 GROUP   
     3 ASP3       16 GROUP   
     4 PHE5       17 GROUP   
     5 GLY6       28 GROUP   
     6 CUB7       35 GROUP   
@<TRIPOS>SET

