#    Name: 6sne_8_PC_CAVITY_N1_4
#    Modification time : Fri May 22 19:29:15 2020

@<TRIPOS>MOLECULE
6sne_8_PC_CAVITY_N1_4
   73     0     6     0     0
SMALL
NO_CHARGES


@<TRIPOS>ATOM
      1 OG        -43.6500    4.3400  -36.0900 O.3       1 SER1        0.0000 
      2 OG        -45.5100    4.1700  -35.0800 O.3       1 SER1        0.0000 
      3 OG        -46.8600    4.8000  -35.2400 O.3       1 SER1        0.0000 
      4 OG        -41.8900    4.8100  -35.0000 O.3       1 SER1        0.0000 
      5 OG        -43.2500    5.4400  -35.1600 O.3       1 SER1        0.0000 
      6 OG        -43.7500    4.6500  -33.9900 O.3       1 SER1        0.0000 
      7 OG        -41.4900    5.9200  -34.0700 O.3       1 SER1        0.0000 
      8 OG        -42.8400    6.5500  -34.2300 O.3       1 SER1        0.0000 
      9 OG        -43.3500    5.7600  -33.0600 O.3       1 SER1        0.0000 
     10 OG        -40.2400    5.6000  -31.8100 O.3       1 SER1        0.0000 
     11 OG        -41.5900    6.2300  -31.9700 O.3       1 SER1        0.0000 
     12 N         -48.6200    4.3300  -36.3300 N.am      2 ALA2        0.0000 
     13 O         -48.2100    5.4300  -35.4100 O.2       2 ALA2        0.0000 
     14 N         -45.6100    4.4900  -32.9900 N.am      2 ALA2        0.0000 
     15 N         -47.4700    4.3200  -31.9800 N.am      2 ALA2        0.0000 
     16 N         -40.9800    6.7100  -35.2400 N.am      2 ALA2        0.0000 
     17 N         -40.1400    5.2900  -33.9100 N.am      2 ALA2        0.0000 
     18 N         -41.4200    9.2400  -35.6400 N.am      2 ALA2        0.0000 
     19 N         -41.9300    8.4500  -34.4700 N.am      2 ALA2        0.0000 
     20 N         -38.3800    5.7700  -32.8200 N.am      2 ALA2        0.0000 
     21 N         -41.0800    7.0300  -33.1400 N.am      2 ALA2        0.0000 
     22 O         -38.4900    6.0800  -30.7200 O.2       2 ALA2        0.0000 
     23 O         -39.8400    6.7100  -30.8800 O.2       2 ALA2        0.0000 
     24 OD1       -42.0300    8.7600  -32.3700 O.co2     3 ASP3        0.0000 
     25 OD1       -42.5400    7.9700  -31.2100 O.co2     3 ASP3        0.0000 
     26 OD1       -43.8900    8.6000  -31.3700 O.co2     3 ASP3        0.0000 
     27 OD1       -41.6300    9.8700  -31.4400 O.co2     3 ASP3        0.0000 
     28 CZ        -49.1300    3.5300  -35.1700 C.ar      4 PHE5        0.0000 
     29 CZ        -45.0000    4.9700  -36.2500 C.ar      4 PHE5        0.0000 
     30 CZ        -46.3500    5.6000  -36.4100 C.ar      4 PHE5        0.0000 
     31 CZ        -44.1600    3.5400  -34.9200 C.ar      4 PHE5        0.0000 
     32 CZ        -46.0200    3.3800  -33.9200 C.ar      4 PHE5        0.0000 
     33 CZ        -47.3700    4.0100  -34.0800 C.ar      4 PHE5        0.0000 
     34 CZ        -47.8800    3.2100  -32.9100 C.ar      4 PHE5        0.0000 
     35 CZ        -42.7400    6.2400  -36.3300 C.ar      4 PHE5        0.0000 
     36 CZ        -44.6000    6.0700  -35.3200 C.ar      4 PHE5        0.0000 
     37 CZ        -45.9500    6.7000  -35.4800 C.ar      4 PHE5        0.0000 
     38 CZ        -42.3300    7.3400  -35.4000 C.ar      4 PHE5        0.0000 
     39 CZ        -43.6800    7.9700  -35.5600 C.ar      4 PHE5        0.0000 
     40 CZ        -45.0400    8.6000  -35.7200 C.ar      4 PHE5        0.0000 
     41 CZ        -45.5500    7.8100  -34.5500 C.ar      4 PHE5        0.0000 
     42 CA        -46.1200    3.6900  -31.8200 C.3       5 GLY6        0.0000 
     43 CA        -43.8600    4.9600  -31.9000 C.3       5 GLY6        0.0000 
     44 CA        -45.2100    5.5900  -32.0600 C.3       5 GLY6        0.0000 
     45 CA        -46.5600    6.2200  -32.2200 C.3       5 GLY6        0.0000 
     46 CA        -47.0700    5.4300  -31.0500 C.3       5 GLY6        0.0000 
     47 CA        -42.9500    6.8600  -32.1400 C.3       5 GLY6        0.0000 
     48 CA        -44.3000    7.4900  -32.3000 C.3       5 GLY6        0.0000 
     49 CA        -40.7500    4.8100  -30.6500 C.3       5 GLY6        0.0000 
     50 CA        -42.1000    5.4400  -30.8100 C.3       5 GLY6        0.0000 
     51 CA        -41.5200    9.5600  -33.5400 C.3       5 GLY6        0.0000 
     52 CA        -39.3300    7.5000  -32.0500 C.3       5 GLY6        0.0000 
     53 CA        -40.6800    8.1300  -32.2100 C.3       5 GLY6        0.0000 
     54 CA        -41.1900    7.3400  -31.0500 C.3       5 GLY6        0.0000 
     55 CA        -40.3500    5.9200  -29.7200 C.3       5 GLY6        0.0000 
     56 CA        -39.7700   10.0300  -32.4500 C.3       5 GLY6        0.0000 
     57 CA        -40.2800    9.2400  -31.2800 C.3       5 GLY6        0.0000 
     58 CA        -39.4300    7.8200  -29.9600 C.3       5 GLY6        0.0000 
     59 CA        -40.7900    8.4500  -30.1200 C.3       5 GLY6        0.0000 
     60 CA        -39.9400    7.0200  -28.7900 C.3       5 GLY6        0.0000 
     61 CA        -40.7200   11.7700  -31.6800 C.3       5 GLY6        0.0000 
     62 DU        -48.7200    4.6400  -34.2400 H         6 CUB7        0.0000 
     63 DU        -45.1100    5.2800  -34.1500 H         6 CUB7        0.0000 
     64 DU        -46.4600    5.9100  -34.3200 H         6 CUB7        0.0000 
     65 DU        -47.8100    6.5400  -34.4800 H         6 CUB7        0.0000 
     66 DU        -46.9700    5.1100  -33.1500 H         6 CUB7        0.0000 
     67 DU        -44.1900    7.1800  -34.3900 H         6 CUB7        0.0000 
     68 DU        -44.7000    6.3900  -33.2300 H         6 CUB7        0.0000 
     69 DU        -46.0500    7.0100  -33.3900 H         6 CUB7        0.0000 
     70 DU        -47.9100    6.8500  -32.3800 H         6 CUB7        0.0000 
     71 DU        -42.4400    7.6600  -33.3000 H         6 CUB7        0.0000 
     72 DU        -43.7900    8.2900  -33.4600 H         6 CUB7        0.0000 
     73 DU        -47.5100    7.9600  -31.4500 H         6 CUB7        0.0000 
@<TRIPOS>BOND
@<TRIPOS>SUBSTRUCTURE
     1 SER1        1 GROUP   
     2 ALA2       12 GROUP   
     3 ASP3       24 GROUP   
     4 PHE5       28 GROUP   
     5 GLY6       42 GROUP   
     6 CUB7       62 GROUP   
@<TRIPOS>SET

