#    Name: 6sne_2_PC
#    Modification time : Fri May 22 19:28:54 2020

@<TRIPOS>MOLECULE
6sne_2_PC
   11    10     1     0     0
SMALL
NO_CHARGES


@<TRIPOS>ATOM
      1 P1        -20.4510   40.4130  -44.1080 P.3       1 PC301       0.0000 
      2 O1        -20.2810   40.7650  -45.5660 O.co2     1 PC301       0.0000 
      3 O3        -21.2680   39.1430  -43.9850 O.co2     1 PC301       0.0000 
      4 O4        -21.1730   41.5440  -43.4050 O.co2     1 PC301       0.0000 
      5 O2        -18.9570   40.2060  -43.4340 O.3       1 PC301       0.0000 
      6 C1        -18.1250   41.3230  -43.3080 C.3       1 PC301       0.0000 
      7 C2        -17.5410   41.3800  -41.8900 C.3       1 PC301       0.0000 
      8 N1        -16.8530   42.6430  -41.6840 N.4       1 PC301       0.0000 
      9 C3        -15.8100   42.8020  -42.6770 C.3       1 PC301       0.0000 
     10 C4        -16.2460   42.6400  -40.3640 C.3       1 PC301       0.0000 
     11 C5        -17.8020   43.7360  -41.7990 C.3       1 PC301       0.0000 
@<TRIPOS>BOND
     1    1    2 ar   
     2    1    3 ar   
     3    1    4 ar   
     4    1    5 1    
     5    5    6 1    
     6    6    7 1    
     7    7    8 1    
     8    8    9 1    
     9    8   10 1    
    10    8   11 1    
@<TRIPOS>SUBSTRUCTURE
     1 PC301       1 GROUP   
@<TRIPOS>SET

