#    Name: 6sne_3_PC
#    Modification time : Fri May 22 19:29:00 2020

@<TRIPOS>MOLECULE
6sne_3_PC
   11    10     1     0     0
SMALL
NO_CHARGES


@<TRIPOS>ATOM
      1 P1        -26.5450    6.9760  -67.2780 P.3       1 PC302       0.0000 
      2 O1        -26.2060    7.7550  -68.5340 O.co2     1 PC302       0.0000 
      3 O3        -25.2630    6.6660  -66.5420 O.co2     1 PC302       0.0000 
      4 O4        -27.4140    7.8110  -66.3580 O.co2     1 PC302       0.0000 
      5 O2        -27.2990    5.5860  -67.7950 O.3       1 PC302       0.0000 
      6 C1        -27.1580    4.3790  -67.0960 C.3       1 PC302       0.0000 
      7 C2        -27.3420    4.6300  -65.5900 C.3       1 PC302       0.0000 
      8 N1        -27.2590    3.4090  -64.8050 N.4       1 PC302       0.0000 
      9 C3        -28.4800    2.6450  -64.9680 C.3       1 PC302       0.0000 
     10 C4        -27.1100    3.7450  -63.4080 C.3       1 PC302       0.0000 
     11 C5        -26.1070    2.6190  -65.1880 C.3       1 PC302       0.0000 
@<TRIPOS>BOND
     1    1    2 ar   
     2    1    3 ar   
     3    1    4 ar   
     4    1    5 1    
     5    5    6 1    
     6    6    7 1    
     7    7    8 1    
     8    8    9 1    
     9    8   10 1    
    10    8   11 1    
@<TRIPOS>SUBSTRUCTURE
     1 PC302       1 GROUP   
@<TRIPOS>SET

