#    Name: 6sjo_1_THH
#    Modification time : Fri May 22 19:24:42 2020

@<TRIPOS>MOLECULE
6sjo_1_THH
   33    35     1     0     0
SMALL
NO_CHARGES


@<TRIPOS>ATOM
      1 OE1        15.2460   -7.6260   47.8470 O.co2     1 THH901      0.0000 
      2 CD         15.6150   -7.6900   49.0390 C.2       1 THH901      0.0000 
      3 OE2        15.7120   -6.7310   49.8400 O.co2     1 THH901      0.0000 
      4 CG         16.0100   -9.0410   49.5600 C.3       1 THH901      0.0000 
      5 CB         14.7220   -9.7590   49.9010 C.3       1 THH901      0.0000 
      6 CA         14.2750   -9.2860   51.2960 C.3       1 THH901      0.0000 
      7 CT         12.9190   -9.9550   51.6300 C.2       1 THH901      0.0000 
      8 O1         11.8810   -9.3140   51.3520 O.co2     1 THH901      0.0000 
      9 O2         12.9450  -11.0910   52.1560 O.co2     1 THH901      0.0000 
     10 N          15.2600   -9.6200   52.3590 N.am      1 THH901      0.0000 
     11 C          15.2070   -8.9540   53.5370 C.2       1 THH901      0.0000 
     12 O          14.3380   -8.1060   53.7410 O.2       1 THH901      0.0000 
     13 C12        16.0760   -9.3080   54.5910 C.ar      1 THH901      0.0000 
     14 C13        17.2700  -10.0320   54.4600 C.ar      1 THH901      0.0000 
     15 C14        18.0410  -10.3410   55.5920 C.ar      1 THH901      0.0000 
     16 C15        17.6370   -9.9460   56.8750 C.ar      1 THH901      0.0000 
     17 C16        16.4450   -9.2320   57.0000 C.ar      1 THH901      0.0000 
     18 C17        15.6870   -8.9230   55.8790 C.ar      1 THH901      0.0000 
     19 N10        18.3920  -10.2530   57.9480 N.pl3     1 THH901      0.0000 
     20 C9         17.9780  -10.1250   59.3530 C.3       1 THH901      0.0000 
     21 C6         17.0450  -11.3310   59.6620 C.3       1 THH901      0.0000 
     22 C7         17.8710  -12.6040   59.6190 C.3       1 THH901      0.0000 
     23 N8         18.6900  -12.6390   60.8690 N.pl3     1 THH901      0.0000 
     24 C8A        18.2310  -12.0720   62.0830 C.ar      1 THH901      0.0000 
     25 N1         18.9920  -12.2020   63.1820 N.ar      1 THH901      0.0000 
     26 C4A        17.0170  -11.3770   62.1350 C.ar      1 THH901      0.0000 
     27 N5         16.3150  -11.3180   60.9780 N.3       1 THH901      0.0000 
     28 C11        14.8380  -11.5590   60.9560 C.3       1 THH901      0.0000 
     29 C4         16.5990  -10.8320   63.3700 C.ar      1 THH901      0.0000 
     30 O4         15.5420  -10.2130   63.5210 O.3       1 THH901      0.0000 
     31 N3         17.4220  -10.9910   64.4880 N.ar      1 THH901      0.0000 
     32 C2         18.6280  -11.6830   64.3600 C.ar      1 THH901      0.0000 
     33 NA2        19.4160  -11.8400   65.4090 N.pl3     1 THH901      0.0000 
@<TRIPOS>BOND
     1    1    2 ar   
     2    2    3 ar   
     3    2    4 1    
     4    4    5 1    
     5    5    6 1    
     6    6    7 1    
     7    6   10 1    
     8    7    8 ar   
     9    7    9 ar   
    10   10   11 am   
    11   11   12 2    
    12   11   13 1    
    13   13   14 ar   
    14   13   18 ar   
    15   14   15 ar   
    16   15   16 ar   
    17   16   17 ar   
    18   16   19 1    
    19   17   18 ar   
    20   19   20 1    
    21   20   21 1    
    22   21   22 1    
    23   21   27 1    
    24   22   23 1    
    25   23   24 1    
    26   24   25 ar   
    27   24   26 ar   
    28   25   32 ar   
    29   26   27 1    
    30   26   29 ar   
    31   27   28 1    
    32   29   30 1    
    33   29   31 ar   
    34   31   32 ar   
    35   32   33 1    
@<TRIPOS>SUBSTRUCTURE
     1 THH901      1 GROUP   
@<TRIPOS>SET

