#    Name: 6qii_2_144_CAVITY_N1_4
#    Modification time : Fri May 22 19:32:42 2020

@<TRIPOS>MOLECULE
6qii_2_144_CAVITY_N1_4
   44     0     6     0     0
SMALL
NO_CHARGES


@<TRIPOS>ATOM
      1 OG         23.3800  -46.5200  -21.0200 O.3       1 SER1        0.0000 
      2 OG         23.5800  -47.8000  -20.2700 O.3       1 SER1        0.0000 
      3 OG         25.4300  -43.7300  -19.7600 O.3       1 SER1        0.0000 
      4 OG         26.7000  -46.3000  -21.5000 O.3       1 SER1        0.0000 
      5 OG         26.1600  -45.6600  -20.2600 O.3       1 SER1        0.0000 
      6 OG         26.8100  -43.3100  -19.3800 O.3       1 SER1        0.0000 
      7 OG         28.0800  -45.8800  -21.1200 O.3       1 SER1        0.0000 
      8 OG         27.5400  -45.2400  -19.8700 O.3       1 SER1        0.0000 
      9 OG         28.7400  -43.5200  -20.2400 O.3       1 SER1        0.0000 
     10 OG         29.8500  -48.0200  -19.2500 O.3       1 SER1        0.0000 
     11 N          21.1900  -51.2300  -19.5400 N.am      2 ALA2        0.0000 
     12 N          20.6500  -50.5900  -18.3000 N.am      2 ALA2        0.0000 
     13 N          24.7700  -46.0900  -20.6400 N.am      2 ALA2        0.0000 
     14 N          28.2700  -47.1600  -20.3700 N.am      2 ALA2        0.0000 
     15 N          29.6600  -46.7400  -19.9900 N.am      2 ALA2        0.0000 
     16 NZ         22.0300  -50.1700  -17.9200 N.4       3 LYS4        0.0000 
     17 NZ         23.5000  -43.5200  -18.8900 N.4       3 LYS4        0.0000 
     18 NZ         24.2300  -45.4500  -19.3900 N.4       3 LYS4        0.0000 
     19 NZ         24.9600  -47.3800  -19.8900 N.4       3 LYS4        0.0000 
     20 NZ         24.8900  -43.0900  -18.5100 N.4       3 LYS4        0.0000 
     21 NZ         25.6200  -45.0200  -19.0100 N.4       3 LYS4        0.0000 
     22 NZ         25.0800  -44.3800  -17.7700 N.4       3 LYS4        0.0000 
     23 NZ         24.5400  -43.7400  -16.5200 N.4       3 LYS4        0.0000 
     24 NZ         26.3500  -46.9500  -19.5100 N.4       3 LYS4        0.0000 
     25 NZ         26.4600  -43.9600  -17.3900 N.4       3 LYS4        0.0000 
     26 NZ         27.7300  -46.5200  -19.1300 N.4       3 LYS4        0.0000 
     27 NZ         27.2000  -45.8800  -17.8800 N.4       3 LYS4        0.0000 
     28 NZ         26.6600  -45.2400  -16.6400 N.4       3 LYS4        0.0000 
     29 NZ         29.1200  -46.1000  -18.7500 N.4       3 LYS4        0.0000 
     30 NZ         28.5800  -45.4600  -17.5000 N.4       3 LYS4        0.0000 
     31 NZ         29.3100  -47.3800  -18.0000 N.4       3 LYS4        0.0000 
     32 CZ         28.9300  -44.8100  -19.4900 C.ar      4 PHE5        0.0000 
     33 CZ         30.8600  -45.0200  -20.3600 C.ar      4 PHE5        0.0000 
     34 CA         22.3800  -49.5200  -19.9100 C.3       5 GLY6        0.0000 
     35 CA         24.1100  -48.4400  -21.5200 C.3       5 GLY6        0.0000 
     36 CA         24.5800  -44.8000  -21.3800 C.3       5 GLY6        0.0000 
     37 CA         24.0400  -44.1600  -20.1400 C.3       5 GLY6        0.0000 
     38 CA         25.5000  -48.0200  -21.1400 C.3       5 GLY6        0.0000 
     39 CA         26.8900  -47.5900  -20.7600 C.3       5 GLY6        0.0000 
     40 CA         26.1200  -44.6000  -15.4000 C.3       5 GLY6        0.0000 
     41 DU         26.2700  -42.6700  -18.1300 H         6 CUB7        0.0000 
     42 DU         27.0000  -44.6000  -18.6300 H         6 CUB7        0.0000 
     43 DU         28.3900  -44.1700  -18.2500 H         6 CUB7        0.0000 
     44 DU         30.3200  -44.3800  -19.1100 H         6 CUB7        0.0000 
@<TRIPOS>BOND
@<TRIPOS>SUBSTRUCTURE
     1 SER1        1 GROUP   
     2 ALA2       11 GROUP   
     3 LYS4       16 GROUP   
     4 PHE5       32 GROUP   
     5 GLY6       34 GROUP   
     6 CUB7       41 GROUP   
@<TRIPOS>SET

