#    Name: 6qii_2_144_CAVITY_N1_8
#    Modification time : Fri May 22 19:32:42 2020

@<TRIPOS>MOLECULE
6qii_2_144_CAVITY_N1_8
  106     0     6     0     0
SMALL
NO_CHARGES


@<TRIPOS>ATOM
      1 OG         20.1800  -54.2400  -18.4300 O.3       1 SER1        0.0000 
      2 OG         21.0300  -53.1700  -16.8100 O.3       1 SER1        0.0000 
      3 OG         19.9500  -51.8900  -14.3200 O.3       1 SER1        0.0000 
      4 OG         21.8800  -52.1000  -15.1800 O.3       1 SER1        0.0000 
      5 OG         23.3800  -46.5200  -21.0200 O.3       1 SER1        0.0000 
      6 OG         23.5800  -47.8000  -20.2700 O.3       1 SER1        0.0000 
      7 OG         25.4300  -43.7300  -19.7600 O.3       1 SER1        0.0000 
      8 OG         26.7000  -46.3000  -21.5000 O.3       1 SER1        0.0000 
      9 OG         26.1600  -45.6600  -20.2600 O.3       1 SER1        0.0000 
     10 OG         26.8100  -43.3100  -19.3800 O.3       1 SER1        0.0000 
     11 OG         28.0800  -45.8800  -21.1200 O.3       1 SER1        0.0000 
     12 OG         27.5400  -45.2400  -19.8700 O.3       1 SER1        0.0000 
     13 OG         28.7400  -43.5200  -20.2400 O.3       1 SER1        0.0000 
     14 OG         29.8500  -48.0200  -19.2500 O.3       1 SER1        0.0000 
     15 OG         31.2400  -47.6000  -18.8700 O.3       1 SER1        0.0000 
     16 OG         31.4300  -48.8800  -18.1200 O.3       1 SER1        0.0000 
     17 OG         31.6200  -50.1700  -17.3800 O.3       1 SER1        0.0000 
     18 OG         33.4700  -46.1000  -16.8600 O.3       1 SER1        0.0000 
     19 N          19.9900  -52.9500  -19.1800 N.am      2 ALA2        0.0000 
     20 N          19.6400  -53.6000  -17.1900 N.am      2 ALA2        0.0000 
     21 N          21.1900  -51.2300  -19.5400 N.am      2 ALA2        0.0000 
     22 N          20.6500  -50.5900  -18.3000 N.am      2 ALA2        0.0000 
     23 N          20.8400  -51.8800  -17.5500 N.am      2 ALA2        0.0000 
     24 N          20.3000  -51.2400  -16.3100 N.am      2 ALA2        0.0000 
     25 N          20.4900  -52.5300  -15.5600 N.am      2 ALA2        0.0000 
     26 N          24.7700  -46.0900  -20.6400 N.am      2 ALA2        0.0000 
     27 N          23.8100  -41.8100  -16.0200 N.am      2 ALA2        0.0000 
     28 N          28.2700  -47.1600  -20.3700 N.am      2 ALA2        0.0000 
     29 N          29.6600  -46.7400  -19.9900 N.am      2 ALA2        0.0000 
     30 N          31.5900  -46.9500  -20.8600 N.am      2 ALA2        0.0000 
     31 NZ         22.0300  -50.1700  -17.9200 N.4       3 LYS4        0.0000 
     32 NZ         21.6900  -50.8100  -15.9300 N.4       3 LYS4        0.0000 
     33 NZ         23.5000  -43.5200  -18.8900 N.4       3 LYS4        0.0000 
     34 NZ         22.9600  -42.8800  -17.6500 N.4       3 LYS4        0.0000 
     35 NZ         24.2300  -45.4500  -19.3900 N.4       3 LYS4        0.0000 
     36 NZ         24.9600  -47.3800  -19.8900 N.4       3 LYS4        0.0000 
     37 NZ         23.0800  -39.8900  -15.5200 N.4       3 LYS4        0.0000 
     38 NZ         24.8900  -43.0900  -18.5100 N.4       3 LYS4        0.0000 
     39 NZ         24.3500  -42.4500  -17.2700 N.4       3 LYS4        0.0000 
     40 NZ         25.6200  -45.0200  -19.0100 N.4       3 LYS4        0.0000 
     41 NZ         25.0800  -44.3800  -17.7700 N.4       3 LYS4        0.0000 
     42 NZ         24.5400  -43.7400  -16.5200 N.4       3 LYS4        0.0000 
     43 NZ         26.3500  -46.9500  -19.5100 N.4       3 LYS4        0.0000 
     44 NZ         24.6600  -40.7500  -14.4000 N.4       3 LYS4        0.0000 
     45 NZ         26.4600  -43.9600  -17.3900 N.4       3 LYS4        0.0000 
     46 NZ         27.7300  -46.5200  -19.1300 N.4       3 LYS4        0.0000 
     47 NZ         27.2000  -45.8800  -17.8800 N.4       3 LYS4        0.0000 
     48 NZ         26.6600  -45.2400  -16.6400 N.4       3 LYS4        0.0000 
     49 NZ         29.1200  -46.1000  -18.7500 N.4       3 LYS4        0.0000 
     50 NZ         28.5800  -45.4600  -17.5000 N.4       3 LYS4        0.0000 
     51 NZ         29.3100  -47.3800  -18.0000 N.4       3 LYS4        0.0000 
     52 NZ         28.7700  -46.7400  -16.7600 N.4       3 LYS4        0.0000 
     53 NZ         28.2400  -46.1000  -15.5100 N.4       3 LYS4        0.0000 
     54 NZ         29.8900  -51.2500  -15.7700 N.4       3 LYS4        0.0000 
     55 NZ         30.1600  -46.3200  -16.3800 N.4       3 LYS4        0.0000 
     56 NZ         30.8900  -48.2400  -16.8800 N.4       3 LYS4        0.0000 
     57 NZ         30.3500  -47.6000  -15.6300 N.4       3 LYS4        0.0000 
     58 NZ         31.0800  -49.5300  -16.1300 N.4       3 LYS4        0.0000 
     59 NZ         30.5400  -48.8900  -14.8900 N.4       3 LYS4        0.0000 
     60 NZ         30.0100  -48.2500  -13.6400 N.4       3 LYS4        0.0000 
     61 NZ         32.8200  -48.4600  -17.7400 N.4       3 LYS4        0.0000 
     62 NZ         33.0100  -49.7400  -17.0000 N.4       3 LYS4        0.0000 
     63 CZ         21.3800  -52.5200  -18.8000 C.ar      4 PHE5        0.0000 
     64 CZ         28.9300  -44.8100  -19.4900 C.ar      4 PHE5        0.0000 
     65 CZ         30.6600  -43.7300  -21.1000 C.ar      4 PHE5        0.0000 
     66 CZ         31.3900  -45.6600  -21.6000 C.ar      4 PHE5        0.0000 
     67 CZ         30.8600  -45.0200  -20.3600 C.ar      4 PHE5        0.0000 
     68 CA         22.3800  -49.5200  -19.9100 C.3       5 GLY6        0.0000 
     69 CA         24.1100  -48.4400  -21.5200 C.3       5 GLY6        0.0000 
     70 CA         23.3100  -42.2300  -19.6400 C.3       5 GLY6        0.0000 
     71 CA         24.5800  -44.8000  -21.3800 C.3       5 GLY6        0.0000 
     72 CA         24.0400  -44.1600  -20.1400 C.3       5 GLY6        0.0000 
     73 CA         25.5000  -48.0200  -21.1400 C.3       5 GLY6        0.0000 
     74 CA         25.2300  -42.4500  -20.5000 C.3       5 GLY6        0.0000 
     75 CA         24.6900  -41.8100  -19.2600 C.3       5 GLY6        0.0000 
     76 CA         24.1600  -41.1700  -18.0100 C.3       5 GLY6        0.0000 
     77 CA         23.6200  -40.5300  -16.7700 C.3       5 GLY6        0.0000 
     78 CA         26.8900  -47.5900  -20.7600 C.3       5 GLY6        0.0000 
     79 CA         25.1900  -41.3900  -15.6400 C.3       5 GLY6        0.0000 
     80 CA         25.9300  -43.3100  -16.1400 C.3       5 GLY6        0.0000 
     81 CA         25.3900  -42.6700  -14.9000 C.3       5 GLY6        0.0000 
     82 CA         26.1200  -44.6000  -15.4000 C.3       5 GLY6        0.0000 
     83 CA         27.7000  -45.4600  -14.2700 C.3       5 GLY6        0.0000 
     84 CA         30.4300  -51.8900  -17.0100 C.3       5 GLY6        0.0000 
     85 CA         31.7800  -48.2400  -20.1100 C.3       5 GLY6        0.0000 
     86 CA         32.0500  -43.3100  -20.7200 C.3       5 GLY6        0.0000 
     87 CA         32.7800  -45.2300  -21.2200 C.3       5 GLY6        0.0000 
     88 CA         32.2400  -44.5900  -19.9800 C.3       5 GLY6        0.0000 
     89 CA         32.9700  -46.5200  -20.4800 C.3       5 GLY6        0.0000 
     90 CA         32.4300  -45.8800  -19.2300 C.3       5 GLY6        0.0000 
     91 CA         32.6300  -47.1700  -18.4900 C.3       5 GLY6        0.0000 
     92 DU         26.2700  -42.6700  -18.1300 H         6 CUB7        0.0000 
     93 DU         25.7300  -42.0300  -16.8900 H         6 CUB7        0.0000 
     94 DU         27.0000  -44.6000  -18.6300 H         6 CUB7        0.0000 
     95 DU         28.3900  -44.1700  -18.2500 H         6 CUB7        0.0000 
     96 DU         28.0400  -44.8200  -16.2600 H         6 CUB7        0.0000 
     97 DU         30.3200  -44.3800  -19.1100 H         6 CUB7        0.0000 
     98 DU         31.0500  -46.3100  -19.6100 H         6 CUB7        0.0000 
     99 DU         30.5100  -45.6700  -18.3700 H         6 CUB7        0.0000 
    100 DU         29.9700  -45.0300  -17.1200 H         6 CUB7        0.0000 
    101 DU         30.7000  -46.9600  -17.6200 H         6 CUB7        0.0000 
    102 DU         31.8900  -45.2400  -17.9900 H         6 CUB7        0.0000 
    103 DU         32.0900  -46.5300  -17.2400 H         6 CUB7        0.0000 
    104 DU         32.2800  -47.8200  -16.5000 H         6 CUB7        0.0000 
    105 DU         31.7400  -47.1800  -15.2500 H         6 CUB7        0.0000 
    106 DU         32.4700  -49.1000  -15.7500 H         6 CUB7        0.0000 
@<TRIPOS>BOND
@<TRIPOS>SUBSTRUCTURE
     1 SER1        1 GROUP   
     2 ALA2       19 GROUP   
     3 LYS4       31 GROUP   
     4 PHE5       63 GROUP   
     5 GLY6       68 GROUP   
     6 CUB7       92 GROUP   
@<TRIPOS>SET

