#    Name: 6qii_3_FAD
#    Modification time : Fri May 22 19:32:44 2020

@<TRIPOS>MOLECULE
6qii_3_FAD
   53    58     1     0     1
SMALL
NO_CHARGES


@<TRIPOS>ATOM
      1 PA        -32.5710  -66.0350  -23.5620 P.3       1 FAD302      0.0000 
      2 O1A       -33.5620  -66.5450  -22.5470 O.co2     1 FAD302      0.0000 
      3 O2A       -32.7400  -66.6070  -24.9360 O.co2     1 FAD302      0.0000 
      4 O5B       -30.9740  -66.1620  -23.1290 O.3       1 FAD302      0.0000 
      5 C5B       -30.5930  -65.7900  -21.8120 C.3       1 FAD302      0.0000 
      6 C4B       -29.3810  -64.8240  -21.8110 C.3       1 FAD302      0.0000 
      7 O4B       -29.2220  -64.3860  -20.5780 O.3       1 FAD302      0.0000 
      8 C3B       -28.1880  -65.6870  -22.1810 C.3       1 FAD302      0.0000 
      9 O3B       -27.5100  -65.1790  -23.3110 O.3       1 FAD302      0.0000 
     10 C2B       -27.3690  -65.6700  -20.8510 C.3       1 FAD302      0.0000 
     11 O2B       -25.9090  -65.7030  -21.2840 O.3       1 FAD302      0.0000 
     12 C1B       -27.7510  -64.5760  -20.1710 C.3       1 FAD302      0.0000 
     13 N9A       -27.8300  -64.6290  -18.7440 N.pl3     1 FAD302      0.0000 
     14 C8A       -28.8040  -65.2740  -18.0080 C.2       1 FAD302      0.0000 
     15 N7A       -28.5270  -65.0720  -16.6240 N.2       1 FAD302      0.0000 
     16 C5A       -27.3770  -64.2760  -16.4970 C.ar      1 FAD302      0.0000 
     17 C6A       -26.6360  -63.7670  -15.3880 C.ar      1 FAD302      0.0000 
     18 N6A       -26.7320  -63.8380  -13.8960 N.pl3     1 FAD302      0.0000 
     19 N1A       -25.5130  -63.0050  -15.6100 N.ar      1 FAD302      0.0000 
     20 C2A       -25.1040  -62.7330  -16.8960 C.ar      1 FAD302      0.0000 
     21 N3A       -25.8030  -63.2210  -17.9740 N.ar      1 FAD302      0.0000 
     22 C4A       -26.9460  -64.0010  -17.8140 C.ar      1 FAD302      0.0000 
     23 N1        -34.6050  -56.9420  -18.2610 N.2       1 FAD302      0.0000 
     24 C2        -35.4880  -55.7950  -18.1520 C.2       1 FAD302      0.0000 
     25 O2        -36.2080  -55.4770  -19.1040 O.2       1 FAD302      0.0000 
     26 N3        -35.4750  -55.0790  -16.9050 N.am      1 FAD302      0.0000 
     27 C4        -34.6260  -55.4790  -15.8260 C.2       1 FAD302      0.0000 
     28 O4        -34.6230  -54.8740  -14.8140 O.2       1 FAD302      0.0000 
     29 C4X       -33.7330  -56.6850  -15.9870 C.2       1 FAD302      0.0000 
     30 N5        -32.8860  -57.0800  -14.9140 N.2       1 FAD302      0.0000 
     31 C5X       -32.0260  -58.2140  -15.0820 C.ar      1 FAD302      0.0000 
     32 C6        -31.2040  -58.5780  -14.0030 C.ar      1 FAD302      0.0000 
     33 C7        -30.3670  -59.6770  -14.1440 C.ar      1 FAD302      0.0000 
     34 C7M       -29.6980  -59.6660  -12.7320 C.3       1 FAD302      0.0000 
     35 C8        -30.3400  -60.4290  -15.3830 C.ar      1 FAD302      0.0000 
     36 C8M       -29.3580  -61.6380  -15.4120 C.3       1 FAD302      0.0000 
     37 C9        -31.1600  -60.0800  -16.4610 C.ar      1 FAD302      0.0000 
     38 C9A       -32.0140  -58.9580  -16.3110 C.ar      1 FAD302      0.0000 
     39 N10       -32.8980  -58.5350  -17.4220 N.pl3     1 FAD302      0.0000 
     40 C10       -33.7460  -57.3740  -17.2030 C.2       1 FAD302      0.0000 
     41 C1'       -32.9210  -59.2690  -18.7500 C.3       1 FAD302      0.0000 
     42 C2'       -34.1680  -60.1050  -18.9330 C.3       1 FAD302      0.0000 
     43 O2'       -34.5000  -60.7090  -17.7180 O.3       1 FAD302      0.0000 
     44 C3'       -33.8470  -61.1900  -19.9610 C.3       1 FAD302      0.0000 
     45 O3'       -32.8700  -62.0060  -19.4560 O.3       1 FAD302      0.0000 
     46 C4'       -33.2940  -60.6000  -21.2860 C.3       1 FAD302      0.0000 
     47 O4'       -34.3190  -59.9000  -21.9460 O.3       1 FAD302      0.0000 
     48 C5'       -32.7620  -61.7510  -22.1970 C.3       1 FAD302      0.0000 
     49 O5'       -33.9210  -62.5190  -22.5950 O.3       1 FAD302      0.0000 
     50 P         -33.9280  -63.3960  -23.9180 P.3       1 FAD302      0.0000 
     51 O1P       -33.5170  -62.6840  -25.1190 O.co2     1 FAD302      0.0000 
     52 O2P       -35.2560  -64.0740  -24.0890 O.co2     1 FAD302      0.0000 
     53 O3P       -32.7340  -64.4200  -23.6270 O.3       1 FAD302      0.0000 
@<TRIPOS>BOND
     1    1    2 ar   
     2    1    3 ar   
     3    1    4 1    
     4    1   53 1    
     5    4    5 1    
     6    5    6 1    
     7    6    7 1    
     8    6    8 1    
     9    7   12 1    
    10    8    9 1    
    11    8   10 1    
    12   10   11 1    
    13   10   12 1    
    14   12   13 1    
    15   13   14 1    
    16   13   22 1    
    17   14   15 2    
    18   15   16 1    
    19   16   17 ar   
    20   16   22 ar   
    21   17   18 1    
    22   17   19 ar   
    23   19   20 ar   
    24   20   21 ar   
    25   21   22 ar   
    26   23   24 1    
    27   23   40 2    
    28   24   25 2    
    29   24   26 am   
    30   26   27 am   
    31   27   28 2    
    32   27   29 1    
    33   29   30 2    
    34   29   40 1    
    35   30   31 1    
    36   31   32 ar   
    37   31   38 ar   
    38   32   33 ar   
    39   33   34 1    
    40   33   35 ar   
    41   35   36 1    
    42   35   37 ar   
    43   37   38 ar   
    44   38   39 1    
    45   39   40 1    
    46   39   41 1    
    47   41   42 1    
    48   42   43 1    
    49   42   44 1    
    50   44   45 1    
    51   44   46 1    
    52   46   47 1    
    53   46   48 1    
    54   48   49 1    
    55   49   50 1    
    56   50   51 ar   
    57   50   52 ar   
    58   50   53 1    
@<TRIPOS>SUBSTRUCTURE
     1 FAD302      1 GROUP   
@<TRIPOS>SET
ATOM$ORANGE STATIC     ATOMS   COLORGROUP SYSTEM 
54 5 5 6 6 8 8 10 10 12 12 14 14 16 16 17 17 20 \
20 22 22 24 24 27 27 29 29 31 31 32 32 33 33 34 34 35 \
35 36 36 37 37 38 38 40 40 41 41 42 42 44 44 46 46 48 \
48 

