#    Name: 6qii_2_144
#    Modification time : Fri May 22 19:32:41 2020

@<TRIPOS>MOLECULE
6qii_2_144
    8     7     1     0     0
SMALL
NO_CHARGES


@<TRIPOS>ATOM
      1 C1         25.1060  -46.1580  -18.8750 C.3       1 144304      0.0000 
      2 N          24.7370  -46.9360  -20.0260 N.4       1 144304      0.0000 
      3 C2         24.2070  -48.4400  -19.5230 C.3       1 144304      0.0000 
      4 O2         22.8310  -48.5180  -19.6660 O.3       1 144304      0.0000 
      5 C3         23.6300  -46.2360  -20.7420 C.3       1 144304      0.0000 
      6 O3         23.4470  -46.7890  -22.1530 O.3       1 144304      0.0000 
      7 C4         25.9810  -47.0800  -20.9720 C.3       1 144304      0.0000 
      8 O4         27.0830  -46.1720  -20.5390 O.3       1 144304      0.0000 
@<TRIPOS>BOND
     1    1    2 1    
     2    2    3 1    
     3    2    5 1    
     4    2    7 1    
     5    3    4 1    
     6    5    6 1    
     7    7    8 1    
@<TRIPOS>SUBSTRUCTURE
     1 144304      1 GROUP   
@<TRIPOS>SET

