#    Name: 6dvv_1_NAD_CAVITY_N1_4
#    Modification time : Fri May 22 19:27:33 2020

@<TRIPOS>MOLECULE
6dvv_1_NAD_CAVITY_N1_4
  117     0     7     0     0
SMALL
NO_CHARGES


@<TRIPOS>ATOM
      1 OG         18.3700   29.1100   29.9500 O.3       1 SER1        0.0000 
      2 OG         18.6900   29.4600   28.5300 O.3       1 SER1        0.0000 
      3 OG         19.3900   28.1500   28.3600 O.3       1 SER1        0.0000 
      4 OG         25.2300   29.3700   29.9900 O.3       1 SER1        0.0000 
      5 OG         27.5500   29.0500   28.8500 O.3       1 SER1        0.0000 
      6 OG         27.1000   31.9600   31.0400 O.3       1 SER1        0.0000 
      7 OG         28.1200   30.9900   29.4600 O.3       1 SER1        0.0000 
      8 OG         28.8300   29.6800   29.2900 O.3       1 SER1        0.0000 
      9 N          19.7200   28.5000   26.9400 N.am      2 ALA2        0.0000 
     10 N          20.0400   28.8500   25.5200 N.am      2 ALA2        0.0000 
     11 N          21.0000   29.1300   27.3900 N.am      2 ALA2        0.0000 
     12 N          21.7100   27.8200   27.2300 N.am      2 ALA2        0.0000 
     13 N          21.3200   29.4800   25.9700 N.am      2 ALA2        0.0000 
     14 N          22.0300   28.1700   25.8000 N.am      2 ALA2        0.0000 
     15 N          22.9900   28.4600   27.6700 N.am      2 ALA2        0.0000 
     16 N          23.3100   28.8000   26.2500 N.am      2 ALA2        0.0000 
     17 O          22.9300   30.4700   24.9900 O.2       2 ALA2        0.0000 
     18 N          25.3000   28.1300   26.5300 N.am      2 ALA2        0.0000 
     19 N          25.9400   28.0600   29.8200 N.am      2 ALA2        0.0000 
     20 N          26.2600   28.4100   28.4000 N.am      2 ALA2        0.0000 
     21 N          28.2500   27.7300   28.6800 N.am      2 ALA2        0.0000 
     22 N          29.9200   26.7000   30.3900 N.am      2 ALA2        0.0000 
     23 O          30.2400   27.0500   28.9700 O.2       2 ALA2        0.0000 
     24 O          30.9500   25.7400   28.8000 O.2       2 ALA2        0.0000 
     25 N          33.0700   21.8000   28.3200 N.am      2 ALA2        0.0000 
     26 O          31.9800   24.7800   27.2200 O.2       2 ALA2        0.0000 
     27 O          33.3900   22.1500   26.8900 O.2       2 ALA2        0.0000 
     28 O          34.4200   21.1900   25.3100 O.2       2 ALA2        0.0000 
     29 O          31.2000   27.3400   30.8400 O.2       2 ALA2        0.0000 
     30 O          31.5300   27.6900   29.4100 O.2       2 ALA2        0.0000 
     31 O          32.2300   26.3700   29.2500 O.2       2 ALA2        0.0000 
     32 N          33.6400   23.7500   28.9200 N.am      2 ALA2        0.0000 
     33 N          31.8500   28.0400   27.9900 N.am      2 ALA2        0.0000 
     34 N          32.5500   26.7200   27.8300 N.am      2 ALA2        0.0000 
     35 N          33.2600   25.4100   27.6600 N.am      2 ALA2        0.0000 
     36 OD1        23.8900   30.7500   26.8600 O.co2     3 ASP3        0.0000 
     37 OD1        24.5900   29.4400   26.7000 O.co2     3 ASP3        0.0000 
     38 OD1        24.2100   31.1000   25.4400 O.co2     3 ASP3        0.0000 
     39 OD1        23.7600   34.0100   27.6300 O.co2     3 ASP3        0.0000 
     40 OD1        24.4700   32.7000   27.4700 O.co2     3 ASP3        0.0000 
     41 OD1        26.5800   28.7600   26.9800 O.co2     3 ASP3        0.0000 
     42 OD1        27.8700   29.4000   27.4200 O.co2     3 ASP3        0.0000 
     43 OD1        30.1100   30.3100   29.7400 O.co2     3 ASP3        0.0000 
     44 OD1        30.8200   29.0000   29.5800 O.co2     3 ASP3        0.0000 
     45 OD1        32.8100   28.3200   29.8600 O.co2     3 ASP3        0.0000 
     46 NZ         17.6600   30.4300   30.1100 N.4       4 LYS4        0.0000 
     47 NZ         19.0100   29.8100   27.1100 N.4       4 LYS4        0.0000 
     48 NZ         19.3300   29.4000   31.8200 N.4       4 LYS4        0.0000 
     49 NZ         18.2400   32.3700   30.7200 N.4       4 LYS4        0.0000 
     50 NZ         18.9400   31.0600   30.5600 N.4       4 LYS4        0.0000 
     51 NZ         18.5600   32.7200   29.3000 N.4       4 LYS4        0.0000 
     52 NZ         19.2700   31.4100   29.1400 N.4       4 LYS4        0.0000 
     53 NZ         18.8800   33.0700   27.8800 N.4       4 LYS4        0.0000 
     54 NZ         19.5900   31.7600   27.7100 N.4       4 LYS4        0.0000 
     55 NZ         20.2900   30.4500   27.5500 N.4       4 LYS4        0.0000 
     56 NZ         19.2000   33.4200   26.4500 N.4       4 LYS4        0.0000 
     57 NZ         19.9100   32.1100   26.2900 N.4       4 LYS4        0.0000 
     58 NZ         20.6100   30.8000   26.1300 N.4       4 LYS4        0.0000 
     59 NZ         19.5200   33.7700   25.0300 N.4       4 LYS4        0.0000 
     60 NZ         23.5000   32.4200   25.6000 N.4       4 LYS4        0.0000 
     61 NZ         31.9100   26.0300   30.6700 N.4       4 LYS4        0.0000 
     62 NZ         32.9400   25.0600   29.0900 N.4       4 LYS4        0.0000 
     63 NZ         33.1900   26.6600   31.1200 N.4       4 LYS4        0.0000 
     64 CZ         20.3600   28.4300   30.2300 C.ar      5 PHE5        0.0000 
     65 CZ         20.6800   28.7800   28.8100 C.ar      5 PHE5        0.0000 
     66 CZ         21.3800   27.4700   28.6500 C.ar      5 PHE5        0.0000 
     67 CZ         19.5200   33.0100   31.1700 C.ar      5 PHE5        0.0000 
     68 CZ         20.2300   31.7000   31.0100 C.ar      5 PHE5        0.0000 
     69 CZ         20.9300   30.3800   30.8400 C.ar      5 PHE5        0.0000 
     70 CZ         22.3500   27.7600   30.5200 C.ar      5 PHE5        0.0000 
     71 CZ         19.8400   33.3600   29.7500 C.ar      5 PHE5        0.0000 
     72 CZ         20.5500   32.0500   29.5800 C.ar      5 PHE5        0.0000 
     73 CZ         21.2600   30.7300   29.4200 C.ar      5 PHE5        0.0000 
     74 CZ         20.1700   33.7100   28.3200 C.ar      5 PHE5        0.0000 
     75 CZ         20.8700   32.4000   28.1600 C.ar      5 PHE5        0.0000 
     76 CZ         20.8100   34.4100   25.4800 C.ar      5 PHE5        0.0000 
     77 CZ         23.2400   30.0500   29.7000 C.ar      5 PHE5        0.0000 
     78 CZ         21.4500   34.3400   28.7700 C.ar      5 PHE5        0.0000 
     79 CZ         22.1500   33.0300   28.6100 C.ar      5 PHE5        0.0000 
     80 CZ         22.8600   31.7200   28.4400 C.ar      5 PHE5        0.0000 
     81 CZ         23.5700   30.4000   28.2800 C.ar      5 PHE5        0.0000 
     82 CZ         21.7700   34.6900   27.3500 C.ar      5 PHE5        0.0000 
     83 CZ         22.4800   33.3800   27.1800 C.ar      5 PHE5        0.0000 
     84 CZ         23.1800   32.0700   27.0200 C.ar      5 PHE5        0.0000 
     85 CZ         24.8500   31.0400   28.7300 C.ar      5 PHE5        0.0000 
     86 CZ         32.1700   19.5000   29.1300 C.ar      5 PHE5        0.0000 
     87 CZ         26.1300   31.6700   29.1700 C.ar      5 PHE5        0.0000 
     88 CA         21.6400   29.0700   30.6800 C.3       6 GLY6        0.0000 
     89 CA         22.6700   28.1100   29.0900 C.3       6 GLY6        0.0000 
     90 CA         23.6900   27.1400   27.5100 C.3       6 GLY6        0.0000 
     91 CA         24.0200   27.4900   26.0900 C.3       6 GLY6        0.0000 
     92 CA         23.9500   28.7400   29.5400 C.3       6 GLY6        0.0000 
     93 CA         24.9800   27.7800   27.9500 C.3       6 GLY6        0.0000 
     94 CA         31.7800   21.1700   27.8700 C.3       6 GLY6        0.0000 
     95 CA         32.4900   19.8500   27.7100 C.3       6 GLY6        0.0000 
     96 CA         32.1000   21.5100   26.4500 C.3       6 GLY6        0.0000 
     97 CA         32.8100   20.2000   26.2800 C.3       6 GLY6        0.0000 
     98 CA         30.6300   25.3900   30.2300 C.3       6 GLY6        0.0000 
     99 CA         31.3300   24.0800   30.0600 C.3       6 GLY6        0.0000 
    100 CA         29.5400   28.3700   29.1300 C.3       6 GLY6        0.0000 
    101 CA         31.6500   24.4300   28.6400 C.3       6 GLY6        0.0000 
    102 CA         32.3600   23.1100   28.4800 C.3       6 GLY6        0.0000 
    103 CA         32.6800   23.4600   27.0600 C.3       6 GLY6        0.0000 
    104 CA         30.5000   28.6500   31.0000 C.3       6 GLY6        0.0000 
    105 CA         31.1400   29.3500   28.1500 C.3       6 GLY6        0.0000 
    106 CA         33.5200   27.0100   29.7000 C.3       6 GLY6        0.0000 
    107 DU         19.6500   29.7500   30.4000 H         7 CUB7        0.0000 
    108 DU         19.9700   30.1000   28.9700 H         7 CUB7        0.0000 
    109 DU         21.9600   29.4200   29.2600 H         7 CUB7        0.0000 
    110 DU         21.5800   31.0800   28.0000 H         7 CUB7        0.0000 
    111 DU         22.2800   29.7700   27.8300 H         7 CUB7        0.0000 
    112 DU         20.4900   34.0600   26.9000 H         7 CUB7        0.0000 
    113 DU         21.1900   32.7400   26.7400 H         7 CUB7        0.0000 
    114 DU         21.9000   31.4300   26.5700 H         7 CUB7        0.0000 
    115 DU         22.6000   30.1200   26.4100 H         7 CUB7        0.0000 
    116 DU         24.2700   29.0900   28.1200 H         7 CUB7        0.0000 
    117 DU         22.8000   33.7300   25.7600 H         7 CUB7        0.0000 
@<TRIPOS>BOND
@<TRIPOS>SUBSTRUCTURE
     1 SER1        1 GROUP   
     2 ALA2        9 GROUP   
     3 ASP3       36 GROUP   
     4 LYS4       46 GROUP   
     5 PHE5       64 GROUP   
     6 GLY6       88 GROUP   
     7 CUB7      107 GROUP   
@<TRIPOS>SET

