#    Name: 6dvv_1_NAD
#    Modification time : Fri May 22 19:27:30 2020

@<TRIPOS>MOLECULE
6dvv_1_NAD
   44    48     1     0     1
SMALL
NO_CHARGES


@<TRIPOS>ATOM
      1 PA         29.1600   30.3420   29.7860 P.3       1 NAD501      0.0000 
      2 O1A        29.6610   30.8360   28.4580 O.co2     1 NAD501      0.0000 
      3 O2A        28.9030   31.3170   30.9180 O.co2     1 NAD501      0.0000 
      4 O5B        30.1820   29.1950   30.2670 O.3       1 NAD501      0.0000 
      5 C5B        30.3720   28.0260   29.4710 C.3       1 NAD501      0.0000 
      6 C4B        31.0640   26.9300   30.2740 C.3       1 NAD501      0.0000 
      7 O4B        31.0230   25.7000   29.5360 O.3       1 NAD501      0.0000 
      8 C3B        32.5430   27.2250   30.5540 C.3       1 NAD501      0.0000 
      9 O3B        32.8830   27.0140   31.9340 O.3       1 NAD501      0.0000 
     10 C2B        33.2800   26.2190   29.7080 C.3       1 NAD501      0.0000 
     11 O2B        34.5440   25.8430   30.2650 O.3       1 NAD501      0.0000 
     12 C1B        32.2870   25.0570   29.6750 C.3       1 NAD501      0.0000 
     13 N9A        32.6050   24.0800   28.6010 N.pl3     1 NAD501      0.0000 
     14 C8A        32.9600   24.3940   27.3390 C.2       1 NAD501      0.0000 
     15 N7A        33.2130   23.2730   26.6180 N.2       1 NAD501      0.0000 
     16 C5A        33.0240   22.2160   27.4210 C.ar      1 NAD501      0.0000 
     17 C6A        33.1140   20.7480   27.2640 C.ar      1 NAD501      0.0000 
     18 N6A        33.4670   20.2120   26.0720 N.pl3     1 NAD501      0.0000 
     19 N1A        32.8380   19.9780   28.3460 N.ar      1 NAD501      0.0000 
     20 C2A        32.4750   20.5300   29.5280 C.ar      1 NAD501      0.0000 
     21 N3A        32.3680   21.8670   29.7280 N.ar      1 NAD501      0.0000 
     22 C4A        32.6270   22.7490   28.7320 C.ar      1 NAD501      0.0000 
     23 O3         27.8390   29.4290   29.5880 O.3       1 NAD501      0.0000 
     24 PN         26.3880   29.9640   29.1280 P.3       1 NAD501      0.0000 
     25 O1N        25.3660   29.3600   30.0750 O.co2     1 NAD501      0.0000 
     26 O2N        26.4530   31.4660   28.9520 O.co2     1 NAD501      0.0000 
     27 O5D        26.2240   29.2920   27.6620 O.3       1 NAD501      0.0000 
     28 C5D        26.1670   27.8780   27.4270 C.3       1 NAD501      0.0000 
     29 C4D        25.2880   27.5780   26.2050 C.3       1 NAD501      0.0000 
     30 O4D        23.9000   27.6370   26.5620 O.3       1 NAD501      0.0000 
     31 C3D        25.4660   28.5770   25.0660 C.3       1 NAD501      0.0000 
     32 O3D        25.4410   27.9100   23.8040 O.3       1 NAD501      0.0000 
     33 C2D        24.2880   29.5230   25.1750 C.3       1 NAD501      0.0000 
     34 O2D        23.9020   30.0320   23.8890 O.3       1 NAD501      0.0000 
     35 C1D        23.2080   28.6800   25.8500 C.3       1 NAD501      0.0000 
     36 N1N        22.3630   29.4620   26.7720 N.pl3     1 NAD501      0.0000 
     37 C2N        22.2240   29.0600   28.0510 C.ar      1 NAD501      0.0000 
     38 C3N        21.4250   29.7730   28.9440 C.ar      1 NAD501      0.0000 
     39 C7N        21.2990   29.2950   30.3680 C.2       1 NAD501      0.0000 
     40 O7N        22.2570   28.7370   30.8960 O.2       1 NAD501      0.0000 
     41 N7N        20.1440   29.4790   31.0210 N.am      1 NAD501      0.0000 
     42 C4N        20.7560   30.9160   28.4990 C.ar      1 NAD501      0.0000 
     43 C5N        20.9060   31.3110   27.1720 C.ar      1 NAD501      0.0000 
     44 C6N        21.7170   30.5590   26.3230 C.ar      1 NAD501      0.0000 
@<TRIPOS>BOND
     1    1    2 ar   
     2    1    3 ar   
     3    1    4 1    
     4    1   23 1    
     5    4    5 1    
     6    5    6 1    
     7    6    7 1    
     8    6    8 1    
     9    7   12 1    
    10    8    9 1    
    11    8   10 1    
    12   10   11 1    
    13   10   12 1    
    14   12   13 1    
    15   13   14 1    
    16   13   22 1    
    17   14   15 2    
    18   15   16 1    
    19   16   17 ar   
    20   16   22 ar   
    21   17   18 1    
    22   17   19 ar   
    23   19   20 ar   
    24   20   21 ar   
    25   21   22 ar   
    26   23   24 1    
    27   24   25 ar   
    28   24   26 ar   
    29   24   27 1    
    30   27   28 1    
    31   28   29 1    
    32   29   30 1    
    33   29   31 1    
    34   30   35 1    
    35   31   32 1    
    36   31   33 1    
    37   33   34 1    
    38   33   35 1    
    39   35   36 1    
    40   36   37 ar   
    41   36   44 ar   
    42   37   38 ar   
    43   38   39 1    
    44   38   42 ar   
    45   39   40 2    
    46   39   41 am   
    47   42   43 ar   
    48   43   44 ar   
@<TRIPOS>SUBSTRUCTURE
     1 NAD501      1 GROUP   
@<TRIPOS>SET
ATOM$ORANGE STATIC     ATOMS   COLORGROUP SYSTEM 
42 5 5 6 6 8 8 10 10 12 12 14 14 16 16 17 17 20 \
20 22 22 28 28 29 29 31 31 33 33 35 35 37 37 38 38 39 \
39 42 42 43 43 44 44 

