#    Name: 6hq3_1_CMP
#    Modification time : Fri May 22 19:27:18 2020

@<TRIPOS>MOLECULE
6hq3_1_CMP
   22    25     1     0     1
SMALL
NO_CHARGES


@<TRIPOS>ATOM
      1 P         -14.8030   -0.4790    7.0930 P.3       1 CMP901      0.0000 
      2 O1P       -16.0870    0.0120    7.6610 O.co2     1 CMP901      0.0000 
      3 O2P       -14.6910   -1.8290    7.6900 O.co2     1 CMP901      0.0000 
      4 O5'       -13.3980    0.3410    7.6010 O.3       1 CMP901      0.0000 
      5 C5'       -12.2060    0.1180    6.7140 C.3       1 CMP901      0.0000 
      6 C4'       -12.6640    0.3830    5.3650 C.3       1 CMP901      0.0000 
      7 O4'       -11.5650    0.3570    4.4190 O.3       1 CMP901      0.0000 
      8 C3'       -13.6250   -0.6710    4.8910 C.3       1 CMP901      0.0000 
      9 O3'       -14.8670   -0.5070    5.5000 O.3       1 CMP901      0.0000 
     10 C2'       -13.6120   -0.5530    3.4290 C.3       1 CMP901      0.0000 
     11 O2'       -14.6140    0.3340    2.9290 O.3       1 CMP901      0.0000 
     12 C1'       -12.2510    0.0210    3.0870 C.3       1 CMP901      0.0000 
     13 N9        -11.4000   -0.7890    2.4370 N.pl3     1 CMP901      0.0000 
     14 C8        -10.9250   -0.4650    1.2380 C.2       1 CMP901      0.0000 
     15 N7        -10.0530   -1.4590    0.8680 N.2       1 CMP901      0.0000 
     16 C5        -10.0380   -2.4240    1.9680 C.ar      1 CMP901      0.0000 
     17 C6         -9.3740   -3.5930    2.1630 C.ar      1 CMP901      0.0000 
     18 N6         -8.4930   -4.0640    1.1420 N.pl3     1 CMP901      0.0000 
     19 N1         -9.5460   -4.2990    3.3240 N.ar      1 CMP901      0.0000 
     20 C2        -10.4150   -3.8340    4.3280 C.ar      1 CMP901      0.0000 
     21 N3        -11.0790   -2.6290    4.0880 N.ar      1 CMP901      0.0000 
     22 C4        -10.8990   -1.9400    2.9460 C.ar      1 CMP901      0.0000 
@<TRIPOS>BOND
     1    1    2 ar   
     2    1    3 ar   
     3    1    4 1    
     4    1    9 1    
     5    4    5 1    
     6    5    6 1    
     7    6    7 1    
     8    6    8 1    
     9    7   12 1    
    10    8    9 1    
    11    8   10 1    
    12   10   11 1    
    13   10   12 1    
    14   12   13 1    
    15   13   14 1    
    16   13   22 1    
    17   14   15 2    
    18   15   16 1    
    19   16   17 ar   
    20   16   22 ar   
    21   17   18 1    
    22   17   19 ar   
    23   19   20 ar   
    24   20   21 ar   
    25   21   22 ar   
@<TRIPOS>SUBSTRUCTURE
     1 CMP901      1 GROUP   
@<TRIPOS>SET
ATOM$ORANGE STATIC     ATOMS   COLORGROUP SYSTEM 
20 5 5 6 6 8 8 10 10 12 12 14 14 16 16 17 17 20 \
20 22 22 

