#    Name: 6hq3_2_CMP
#    Modification time : Fri May 22 19:27:23 2020

@<TRIPOS>MOLECULE
6hq3_2_CMP
   22    25     1     0     1
SMALL
NO_CHARGES


@<TRIPOS>ATOM
      1 P         -15.1580  -29.7020    8.7630 P.3       1 CMP901      0.0000 
      2 O1P       -15.3130  -30.2670    7.4040 O.co2     1 CMP901      0.0000 
      3 O2P       -14.6670  -28.3410    8.4200 O.co2     1 CMP901      0.0000 
      4 O5'       -13.9060  -30.4240    9.6870 O.3       1 CMP901      0.0000 
      5 C5'       -14.0470  -30.3440   11.1840 C.3       1 CMP901      0.0000 
      6 C4'       -15.4210  -30.7010   11.4840 C.3       1 CMP901      0.0000 
      7 O4'       -15.6220  -30.7540   12.9220 O.3       1 CMP901      0.0000 
      8 C3'       -16.3870  -29.6660   10.9580 C.3       1 CMP901      0.0000 
      9 O3'       -16.5480  -29.7530    9.5690 O.3       1 CMP901      0.0000 
     10 C2'       -17.5890  -29.8460   11.7790 C.3       1 CMP901      0.0000 
     11 O2'       -18.5200  -30.7640   11.2230 O.3       1 CMP901      0.0000 
     12 C1'       -17.1100  -30.4170   13.1070 C.3       1 CMP901      0.0000 
     13 N9        -17.2400  -29.5780   14.1650 N.pl3     1 CMP901      0.0000 
     14 C8        -18.0910  -29.8370   15.1570 C.2       1 CMP901      0.0000 
     15 N7        -17.9680  -28.8180   16.0700 N.2       1 CMP901      0.0000 
     16 C5        -16.9510  -27.9070   15.5490 C.ar      1 CMP901      0.0000 
     17 C6        -16.4140  -26.7420   16.0120 C.ar      1 CMP901      0.0000 
     18 N6        -16.8800  -26.2190   17.2560 N.pl3     1 CMP901      0.0000 
     19 N1        -15.4430  -26.0800   15.3000 N.ar      1 CMP901      0.0000 
     20 C2        -14.9840  -26.5950   14.0760 C.ar      1 CMP901      0.0000 
     21 N3        -15.5560  -27.7970   13.6340 N.ar      1 CMP901      0.0000 
     22 C4        -16.5130  -28.4410   14.3400 C.ar      1 CMP901      0.0000 
@<TRIPOS>BOND
     1    1    2 ar   
     2    1    3 ar   
     3    1    4 1    
     4    1    9 1    
     5    4    5 1    
     6    5    6 1    
     7    6    7 1    
     8    6    8 1    
     9    7   12 1    
    10    8    9 1    
    11    8   10 1    
    12   10   11 1    
    13   10   12 1    
    14   12   13 1    
    15   13   14 1    
    16   13   22 1    
    17   14   15 2    
    18   15   16 1    
    19   16   17 ar   
    20   16   22 ar   
    21   17   18 1    
    22   17   19 ar   
    23   19   20 ar   
    24   20   21 ar   
    25   21   22 ar   
@<TRIPOS>SUBSTRUCTURE
     1 CMP901      1 GROUP   
@<TRIPOS>SET
ATOM$ORANGE STATIC     ATOMS   COLORGROUP SYSTEM 
20 5 5 6 6 8 8 10 10 12 12 14 14 16 16 17 17 20 \
20 22 22 

