#    Name: 6hxr_2_UHB_CAVITY_N1_6
#    Modification time : Fri May 22 19:33:35 2020

@<TRIPOS>MOLECULE
6hxr_2_UHB_CAVITY_N1_6
   84     0     6     0     0
SMALL
NO_CHARGES


@<TRIPOS>ATOM
      1 OG        139.6400   93.1500   90.4700 O.3       1 SER1        0.0000 
      2 OG        139.8100   94.6300   91.9800 O.3       1 SER1        0.0000 
      3 OG        141.5600   93.6900   89.7400 O.3       1 SER1        0.0000 
      4 OG        139.1700   95.6400   91.0700 O.3       1 SER1        0.0000 
      5 OG        139.9700   96.1200   93.4900 O.3       1 SER1        0.0000 
      6 OG        140.2100   96.6500   91.4500 O.3       1 SER1        0.0000 
      7 OG        141.0900   96.1700   90.3300 O.3       1 SER1        0.0000 
      8 OG        141.9600   95.7000   89.2000 O.3       1 SER1        0.0000 
      9 OG        139.5800   97.6500   90.5300 O.3       1 SER1        0.0000 
     10 OG        141.3300   96.7000   88.2900 O.3       1 SER1        0.0000 
     11 OG        141.0100   97.1300   93.8800 O.3       1 SER1        0.0000 
     12 OG        141.8900   96.6500   92.7500 O.3       1 SER1        0.0000 
     13 OG        141.2500   97.6600   91.8400 O.3       1 SER1        0.0000 
     14 OG        143.8800   96.2400   88.4700 O.3       1 SER1        0.0000 
     15 OG        143.2400   97.2400   87.5500 O.3       1 SER1        0.0000 
     16 OG        143.5600   96.6600   94.0500 O.3       1 SER1        0.0000 
     17 OG        146.7500   95.1900   95.1500 O.3       1 SER1        0.0000 
     18 OG        147.6200   94.7200   94.0300 O.3       1 SER1        0.0000 
     19 OG        145.2400   96.6700   95.3600 O.3       1 SER1        0.0000 
     20 OG        146.1100   96.1900   94.2300 O.3       1 SER1        0.0000 
     21 OG        146.9900   95.7200   93.1100 O.3       1 SER1        0.0000 
     22 OG        144.6000   97.6700   94.4400 O.3       1 SER1        0.0000 
     23 OG        145.4800   97.2000   93.3200 O.3       1 SER1        0.0000 
     24 OG        147.5500   95.6700   97.5700 O.3       1 SER1        0.0000 
     25 OG        146.9100   96.6700   96.6600 O.3       1 SER1        0.0000 
     26 OG        146.2800   97.6800   95.7400 O.3       1 SER1        0.0000 
     27 OG        145.6400   98.6800   94.8200 O.3       1 SER1        0.0000 
     28 OG        147.3200   98.6900   96.1300 O.3       1 SER1        0.0000 
     29 OG        147.5600   99.2200   94.0900 O.3       1 SER1        0.0000 
     30 N         139.0100   94.1500   89.5600 N.am      2 ALA2        0.0000 
     31 N         140.0500   95.1600   89.9400 N.am      2 ALA2        0.0000 
     32 N         140.4500   97.1800   89.4100 N.am      2 ALA2        0.0000 
     33 N         141.4200   99.1400   93.3400 N.am      2 ALA2        0.0000 
     34 N         143.1700   98.1900   91.1000 N.am      2 ALA2        0.0000 
     35 N         144.0400   97.7200   89.9700 N.am      2 ALA2        0.0000 
     36 N         147.3800   94.1900   96.0700 N.am      2 ALA2        0.0000 
     37 N         148.2500   93.7100   94.9400 N.am      2 ALA2        0.0000 
     38 O         144.8400   98.2000   92.4000 O.2       2 ALA2        0.0000 
     39 N         145.0800   98.7300   90.3600 N.am      2 ALA2        0.0000 
     40 N         149.9300   93.7200   96.2500 N.am      2 ALA2        0.0000 
     41 N         148.4200   95.2000   96.4500 N.am      2 ALA2        0.0000 
     42 O         146.5200   98.2100   93.7000 O.2       2 ALA2        0.0000 
     43 O         145.0100   99.6800   93.9100 O.2       2 ALA2        0.0000 
     44 OD1       144.2800   98.2500   87.9300 O.co2     3 ASP3        0.0000 
     45 CZ        142.6000   94.7000   90.1200 C.ar      4 PHE5        0.0000 
     46 CZ        141.6500   96.1200   94.7900 C.ar      4 PHE5        0.0000 
     47 CZ        143.6400   95.7100   90.5100 C.ar      4 PHE5        0.0000 
     48 CZ        142.1300   97.1800   90.7100 C.ar      4 PHE5        0.0000 
     49 CZ        143.0000   96.7100   89.5900 C.ar      4 PHE5        0.0000 
     50 CZ        142.9300   97.6600   93.1400 C.ar      4 PHE5        0.0000 
     51 CZ        143.8000   97.1900   92.0100 C.ar      4 PHE5        0.0000 
     52 CZ        144.6800   96.7200   90.8900 C.ar      4 PHE5        0.0000 
     53 CZ        150.9700   94.7300   96.6300 C.ar      4 PHE5        0.0000 
     54 CZ        148.5900   96.6800   97.9600 C.ar      4 PHE5        0.0000 
     55 CZ        147.9500   97.6800   97.0400 C.ar      4 PHE5        0.0000 
     56 CZ        148.8300   97.2100   95.9200 C.ar      4 PHE5        0.0000 
     57 CZ        150.5000   97.2200   97.2200 C.ar      4 PHE5        0.0000 
     58 CZ        149.8700   98.2200   96.3000 C.ar      4 PHE5        0.0000 
     59 CZ        149.2300   99.2200   95.3900 C.ar      4 PHE5        0.0000 
     60 CA        140.9200   94.6900   88.8200 C.3       5 GLY6        0.0000 
     61 CA        140.6200   98.6600   90.9200 C.3       5 GLY6        0.0000 
     62 CA        141.4900   98.1900   89.8000 C.3       5 GLY6        0.0000 
     63 CA        142.3700   97.7100   88.6700 C.3       5 GLY6        0.0000 
     64 CA        143.3200   96.1300   96.0900 C.3       5 GLY6        0.0000 
     65 CA        142.6900   97.1300   95.1800 C.3       5 GLY6        0.0000 
     66 CA        142.0500   98.1400   94.2600 C.3       5 GLY6        0.0000 
     67 CA        142.2900   98.6700   92.2200 C.3       5 GLY6        0.0000 
     68 CA        143.4100   98.7200   89.0600 C.3       5 GLY6        0.0000 
     69 CA        146.5100   94.6600   97.1900 C.3       5 GLY6        0.0000 
     70 CA        145.0000   96.1400   97.4000 C.3       5 GLY6        0.0000 
     71 CA        145.8700   95.6600   96.2700 C.3       5 GLY6        0.0000 
     72 CA        144.3600   97.1400   96.4800 C.3       5 GLY6        0.0000 
     73 CA        143.7300   98.1400   95.5600 C.3       5 GLY6        0.0000 
     74 CA        143.9700   98.6700   93.5200 C.3       5 GLY6        0.0000 
     75 CA        146.0400   97.1500   97.7800 C.3       5 GLY6        0.0000 
     76 CA        145.4000   98.1500   96.8600 C.3       5 GLY6        0.0000 
     77 DU        149.3000   94.7200   95.3300 H         6 CUB7        0.0000 
     78 DU        147.7900   96.2000   95.5300 H         6 CUB7        0.0000 
     79 DU        148.6600   95.7300   94.4100 H         6 CUB7        0.0000 
     80 DU        147.1500   97.2000   94.6200 H         6 CUB7        0.0000 
     81 DU        148.0300   96.7300   93.4900 H         6 CUB7        0.0000 
     82 DU        149.4600   96.2100   96.8400 H         6 CUB7        0.0000 
     83 DU        150.3400   95.7300   95.7100 H         6 CUB7        0.0000 
     84 DU        148.1900   98.2100   95.0000 H         6 CUB7        0.0000 
@<TRIPOS>BOND
@<TRIPOS>SUBSTRUCTURE
     1 SER1        1 GROUP   
     2 ALA2       30 GROUP   
     3 ASP3       44 GROUP   
     4 PHE5       45 GROUP   
     5 GLY6       60 GROUP   
     6 CUB7       77 GROUP   
@<TRIPOS>SET

