#    Name: 6hxr_1_UHB
#    Modification time : Fri May 22 19:33:30 2020

@<TRIPOS>MOLECULE
6hxr_1_UHB
   39    44     1     0     0
SMALL
NO_CHARGES


@<TRIPOS>ATOM
      1 C01       167.0830  108.4200   96.0120 C.ar      1 UHB301      0.0000 
      2 C02       167.1520  107.0770   95.6130 C.ar      1 UHB301      0.0000 
      3 C03       168.0270  106.1440   96.1990 C.ar      1 UHB301      0.0000 
      4 C04       169.0320  106.5370   97.1150 C.ar      1 UHB301      0.0000 
      5 C05       168.9970  107.9230   97.5520 C.ar      1 UHB301      0.0000 
      6 C06       168.0530  108.8230   97.0350 C.ar      1 UHB301      0.0000 
      7 C07       168.2360  110.0340   97.6250 C.2       1 UHB301      0.0000 
      8 C08       169.6800  108.6960   98.4640 C.3       1 UHB301      0.0000 
      9 N09       169.1810  110.0100   98.4710 N.am      1 UHB301      0.0000 
     10 O10       167.6230  111.0700   97.4090 O.2       1 UHB301      0.0000 
     11 N11       169.8890  105.5370   97.5200 N.am      1 UHB301      0.0000 
     12 C12       171.0160  105.5440   98.1660 C.2       1 UHB301      0.0000 
     13 O13       171.7000  106.5380   98.2760 O.2       1 UHB301      0.0000 
     14 C14       171.6860  104.2620   98.5370 C.3       1 UHB301      0.0000 
     15 N15       172.6910  104.2930   99.7100 N.4       1 UHB301      0.0000 
     16 C16       174.0170  104.4320   99.0800 C.3       1 UHB301      0.0000 
     17 C17       175.1550  104.6070   99.9740 C.3       1 UHB301      0.0000 
     18 N18       174.9220  105.7390  100.9140 N.am      1 UHB301      0.0000 
     19 C19       173.6990  105.6770  101.7090 C.3       1 UHB301      0.0000 
     20 C20       172.4920  104.9660  101.0300 C.3       1 UHB301      0.0000 
     21 C21       175.8700  106.7560  100.9580 C.2       1 UHB301      0.0000 
     22 C22       175.6150  107.9360  101.9960 C.3       1 UHB301      0.0000 
     23 C23       174.5620  108.7780  101.5490 C.3       1 UHB301      0.0000 
     24 C24       175.0330  110.1390  101.3650 C.3       1 UHB301      0.0000 
     25 C25       176.2710  110.0710  102.1240 C.3       1 UHB301      0.0000 
     26 O26       176.6920  108.8600  101.7970 O.3       1 UHB301      0.0000 
     27 O27       176.9640  106.7920  100.1670 O.2       1 UHB301      0.0000 
     28 O28       173.6000  108.7070  102.3070 O.3       1 UHB301      0.0000 
     29 O29       174.0600  111.1690  101.5600 O.3       1 UHB301      0.0000 
     30 N30       177.3770  110.9820  101.6760 N.pl3     1 UHB301      0.0000 
     31 C31       178.9740  112.3980  101.9950 C.ar      1 UHB301      0.0000 
     32 C32       178.0670  111.6050  102.6070 C.ar      1 UHB301      0.0000 
     33 C33       177.8550  111.3640  100.5010 C.2       1 UHB301      0.0000 
     34 N34       178.8240  112.2680  100.6860 N.2       1 UHB301      0.0000 
     35 N35       179.6120  113.0770  104.1020 N.ar      1 UHB301      0.0000 
     36 C36       178.6770  112.1660  104.8230 C.ar      1 UHB301      0.0000 
     37 N37       177.8800  111.4550  103.9330 N.ar      1 UHB301      0.0000 
     38 C38       179.7850  113.1530  102.7490 C.ar      1 UHB301      0.0000 
     39 N39       180.7070  114.0170  102.2110 N.pl3     1 UHB301      0.0000 
@<TRIPOS>BOND
     1    1    2 ar   
     2    1    6 ar   
     3    2    3 ar   
     4    3    4 ar   
     5    4    5 ar   
     6    4   11 1    
     7    5    6 ar   
     8    5    8 1    
     9    6    7 1    
    10    7    9 am   
    11    7   10 2    
    12    8    9 1    
    13   11   12 am   
    14   12   13 2    
    15   12   14 1    
    16   14   15 1    
    17   15   16 1    
    18   15   20 1    
    19   16   17 1    
    20   17   18 1    
    21   18   19 1    
    22   18   21 am   
    23   19   20 1    
    24   21   22 1    
    25   21   27 2    
    26   22   23 1    
    27   22   26 1    
    28   23   24 1    
    29   23   28 1    
    30   24   25 1    
    31   24   29 1    
    32   25   26 1    
    33   25   30 1    
    34   30   32 1    
    35   30   33 1    
    36   31   32 ar   
    37   31   34 1    
    38   31   38 ar   
    39   32   37 ar   
    40   33   34 2    
    41   35   36 ar   
    42   35   38 ar   
    43   36   37 ar   
    44   38   39 1    
@<TRIPOS>SUBSTRUCTURE
     1 UHB301      1 GROUP   
@<TRIPOS>SET

