#    Name: 6hxr_2_UHB
#    Modification time : Fri May 22 19:33:33 2020

@<TRIPOS>MOLECULE
6hxr_2_UHB
   39    44     1     0     0
SMALL
NO_CHARGES


@<TRIPOS>ATOM
      1 C01       154.2320  100.9710  100.7870 C.ar      1 UHB301      0.0000 
      2 C02       155.1950   99.9890  100.4220 C.ar      1 UHB301      0.0000 
      3 C03       155.0230   99.0980   99.3420 C.ar      1 UHB301      0.0000 
      4 C04       153.8160   99.2170   98.6040 C.ar      1 UHB301      0.0000 
      5 C05       152.8500  100.1670   98.9040 C.ar      1 UHB301      0.0000 
      6 C06       153.0620  101.0080   99.9520 C.ar      1 UHB301      0.0000 
      7 C07       152.0300  101.7930   99.9740 C.2       1 UHB301      0.0000 
      8 C08       151.6450  100.4810   98.3060 C.3       1 UHB301      0.0000 
      9 N09       151.2000  101.5560   99.0130 N.am      1 UHB301      0.0000 
     10 O10       151.8450  102.6500  100.8030 O.2       1 UHB301      0.0000 
     11 N11       153.5130   98.3780   97.6750 N.am      1 UHB301      0.0000 
     12 C12       153.7420   97.4980   96.8880 C.2       1 UHB301      0.0000 
     13 O13       154.8250   97.2010   96.5740 O.2       1 UHB301      0.0000 
     14 C14       152.4630   96.9530   96.3900 C.3       1 UHB301      0.0000 
     15 N15       152.6310   96.5260   95.0550 N.4       1 UHB301      0.0000 
     16 C16       151.9840   95.2320   95.0800 C.3       1 UHB301      0.0000 
     17 C17       151.0350   94.8770   93.9660 C.3       1 UHB301      0.0000 
     18 N18       150.2130   96.0450   93.7050 N.am      1 UHB301      0.0000 
     19 C19       151.0130   97.2400   93.2240 C.3       1 UHB301      0.0000 
     20 C20       152.3080   97.5230   94.0340 C.3       1 UHB301      0.0000 
     21 C21       148.8010   95.9950   93.9190 C.2       1 UHB301      0.0000 
     22 C22       147.9970   97.3380   93.6170 C.3       1 UHB301      0.0000 
     23 C23       148.2070   98.4090   94.6680 C.3       1 UHB301      0.0000 
     24 C24       146.9020   98.3390   95.4260 C.3       1 UHB301      0.0000 
     25 C25       145.9340   97.8830   94.4150 C.3       1 UHB301      0.0000 
     26 O26       146.6510   96.9010   93.7630 O.3       1 UHB301      0.0000 
     27 O27       148.1560   94.9330   94.3370 O.2       1 UHB301      0.0000 
     28 O28       148.7460   99.7030   94.3620 O.3       1 UHB301      0.0000 
     29 O29       146.5150   99.4800   96.1050 O.3       1 UHB301      0.0000 
     30 N30       144.6280   97.3830   95.0040 N.pl3     1 UHB301      0.0000 
     31 C31       142.4570   97.0240   95.1470 C.ar      1 UHB301      0.0000 
     32 C32       143.4580   97.4990   94.3640 C.ar      1 UHB301      0.0000 
     33 C33       144.3740   96.8310   96.2150 C.2       1 UHB301      0.0000 
     34 N34       143.0470   96.5990   96.3000 N.2       1 UHB301      0.0000 
     35 N35       140.8150   97.5480   93.4870 N.ar      1 UHB301      0.0000 
     36 C36       141.8670   98.0680   92.5630 C.ar      1 UHB301      0.0000 
     37 N37       143.2320   97.9890   93.1550 N.ar      1 UHB301      0.0000 
     38 C38       141.1470   97.0640   94.6910 C.ar      1 UHB301      0.0000 
     39 N39       140.1620   96.6380   95.4110 N.pl3     1 UHB301      0.0000 
@<TRIPOS>BOND
     1    1    2 ar   
     2    1    6 ar   
     3    2    3 ar   
     4    3    4 ar   
     5    4    5 ar   
     6    4   11 1    
     7    5    6 ar   
     8    5    8 1    
     9    6    7 1    
    10    7    9 am   
    11    7   10 2    
    12    8    9 1    
    13   11   12 am   
    14   12   13 2    
    15   12   14 1    
    16   14   15 1    
    17   15   16 1    
    18   15   20 1    
    19   16   17 1    
    20   17   18 1    
    21   18   19 1    
    22   18   21 am   
    23   19   20 1    
    24   21   22 1    
    25   21   27 2    
    26   22   23 1    
    27   22   26 1    
    28   23   24 1    
    29   23   28 1    
    30   24   25 1    
    31   24   29 1    
    32   25   26 1    
    33   25   30 1    
    34   30   32 1    
    35   30   33 1    
    36   31   32 ar   
    37   31   34 1    
    38   31   38 ar   
    39   32   37 ar   
    40   33   34 2    
    41   35   36 ar   
    42   35   38 ar   
    43   36   37 ar   
    44   38   39 1    
@<TRIPOS>SUBSTRUCTURE
     1 UHB301      1 GROUP   
@<TRIPOS>SET

