#    Name: 6dhq_9_NDP
#    Modification time : Fri May 22 19:36:17 2020

@<TRIPOS>MOLECULE
6dhq_9_NDP
   48    52     1     0     1
SMALL
NO_CHARGES


@<TRIPOS>ATOM
      1 PA        -23.6320   -0.1900   50.1500 P.3       1 NDP602      0.0000 
      2 O1A       -24.4000    1.0750   50.3910 O.co2     1 NDP602      0.0000 
      3 O2A       -22.4580   -0.4980   51.0140 O.co2     1 NDP602      0.0000 
      4 O5B       -24.6780   -1.4150   50.1950 O.3       1 NDP602      0.0000 
      5 C5B       -23.9810   -2.4970   49.7280 C.3       1 NDP602      0.0000 
      6 C4B       -24.9070   -3.6660   49.9740 C.3       1 NDP602      0.0000 
      7 O4B       -24.4500   -4.7780   49.2700 O.3       1 NDP602      0.0000 
      8 C3B       -24.9270   -3.9660   51.5080 C.3       1 NDP602      0.0000 
      9 O3B       -26.2320   -4.2660   51.9230 O.3       1 NDP602      0.0000 
     10 C2B       -24.0490   -5.2400   51.6060 C.3       1 NDP602      0.0000 
     11 O2B       -24.4660   -6.0740   52.5330 O.3       1 NDP602      0.0000 
     12 C1B       -24.3680   -5.8500   50.1950 C.3       1 NDP602      0.0000 
     13 N9A       -23.3660   -6.7790   49.6460 N.pl3     1 NDP602      0.0000 
     14 C8A       -21.9790   -6.5930   49.3930 C.2       1 NDP602      0.0000 
     15 N7A       -21.3990   -7.6770   48.8500 N.2       1 NDP602      0.0000 
     16 C5A       -22.4650   -8.6000   48.7410 C.ar      1 NDP602      0.0000 
     17 C6A       -22.5340   -9.9170   48.2590 C.ar      1 NDP602      0.0000 
     18 N6A       -21.4080  -10.5400   47.7720 N.pl3     1 NDP602      0.0000 
     19 N1A       -23.7160  -10.6260   48.2590 N.ar      1 NDP602      0.0000 
     20 C2A       -24.8160   -9.9510   48.7630 C.ar      1 NDP602      0.0000 
     21 N3A       -24.9140   -8.7070   49.2500 N.ar      1 NDP602      0.0000 
     22 C4A       -23.6870   -8.0430   49.2310 C.ar      1 NDP602      0.0000 
     23 O3        -23.1000   -0.1020   48.5260 O.3       1 NDP602      0.0000 
     24 PN        -24.1840    0.6580   47.5950 P.3       1 NDP602      0.0000 
     25 O1N       -23.7590    2.0720   47.5410 O.co2     1 NDP602      0.0000 
     26 O2N       -25.6250    0.2580   47.8520 O.co2     1 NDP602      0.0000 
     27 O5D       -24.0350    0.2010   45.8840 O.3       1 NDP602      0.0000 
     28 C5D       -23.5320   -1.0430   45.7370 C.3       1 NDP602      0.0000 
     29 C4D       -23.4920   -1.3130   44.2300 C.3       1 NDP602      0.0000 
     30 O4D       -24.1660   -0.2390   43.5510 O.3       1 NDP602      0.0000 
     31 C3D       -22.0020   -1.2630   43.7170 C.3       1 NDP602      0.0000 
     32 O3D       -21.9610   -1.9350   42.5130 O.3       1 NDP602      0.0000 
     33 C2D       -21.8370    0.2260   43.5020 C.3       1 NDP602      0.0000 
     34 O2D       -20.8050    0.5530   42.6060 O.3       1 NDP602      0.0000 
     35 C1D       -23.2180    0.5050   42.8110 C.3       1 NDP602      0.0000 
     36 N1N       -23.5870    1.9620   42.8310 N.pl3     1 NDP602      0.0000 
     37 C2N       -23.6100    2.7090   44.0240 C.2       1 NDP602      0.0000 
     38 C3N       -24.0890    4.0140   44.0360 C.2       1 NDP602      0.0000 
     39 C7N       -24.1190    4.7470   45.3360 C.2       1 NDP602      0.0000 
     40 O7N       -24.8270    5.7530   45.5660 O.2       1 NDP602      0.0000 
     41 N7N       -23.3110    4.2640   46.3620 N.am      1 NDP602      0.0000 
     42 C4N       -24.5870    4.6890   42.7870 C.3       1 NDP602      0.0000 
     43 C5N       -24.4300    3.8440   41.5610 C.2       1 NDP602      0.0000 
     44 C6N       -23.9580    2.5900   41.6050 C.2       1 NDP602      0.0000 
     45 P2B       -23.1850   -6.7110   53.6630 P.3       1 NDP602      0.0000 
     46 O1X       -23.9480   -7.9300   54.0790 O.co2     1 NDP602      0.0000 
     47 O2X       -21.9820   -6.9240   52.7390 O.co2     1 NDP602      0.0000 
     48 O3X       -23.1250   -5.5710   54.6450 O.co2     1 NDP602      0.0000 
@<TRIPOS>BOND
     1    1    2 ar   
     2    1    3 ar   
     3    1    4 1    
     4    1   23 1    
     5    4    5 1    
     6    5    6 1    
     7    6    7 1    
     8    6    8 1    
     9    7   12 1    
    10    8    9 1    
    11    8   10 1    
    12   10   11 1    
    13   10   12 1    
    14   11   45 1    
    15   12   13 1    
    16   13   14 1    
    17   13   22 1    
    18   14   15 2    
    19   15   16 1    
    20   16   17 ar   
    21   16   22 ar   
    22   17   18 1    
    23   17   19 ar   
    24   19   20 ar   
    25   20   21 ar   
    26   21   22 ar   
    27   23   24 1    
    28   24   25 ar   
    29   24   26 ar   
    30   24   27 1    
    31   27   28 1    
    32   28   29 1    
    33   29   30 1    
    34   29   31 1    
    35   30   35 1    
    36   31   32 1    
    37   31   33 1    
    38   33   34 1    
    39   33   35 1    
    40   35   36 1    
    41   36   37 1    
    42   36   44 1    
    43   37   38 2    
    44   38   39 1    
    45   38   42 1    
    46   39   40 2    
    47   39   41 am   
    48   42   43 1    
    49   43   44 2    
    50   45   46 ar   
    51   45   47 ar   
    52   45   48 ar   
@<TRIPOS>SUBSTRUCTURE
     1 NDP602      1 GROUP   
@<TRIPOS>SET
ATOM$ORANGE STATIC     ATOMS   COLORGROUP SYSTEM 
42 5 5 6 6 8 8 10 10 12 12 14 14 16 16 17 17 20 \
20 22 22 28 28 29 29 31 31 33 33 35 35 37 37 38 38 39 \
39 42 42 43 43 44 44 

