#    Name: 6dhq_11_NDP
#    Modification time : Fri May 22 19:36:22 2020

@<TRIPOS>MOLECULE
6dhq_11_NDP
   48    52     1     0     1
SMALL
NO_CHARGES


@<TRIPOS>ATOM
      1 PA         22.8320   59.2830   33.5490 P.3       1 NDP602      0.0000 
      2 O1A        23.1750   58.7360   34.8800 O.co2     1 NDP602      0.0000 
      3 O2A        21.4620   59.8140   33.2870 O.co2     1 NDP602      0.0000 
      4 O5B        23.9620   60.3950   33.1730 O.3       1 NDP602      0.0000 
      5 C5B        23.7180   60.7650   31.8580 C.3       1 NDP602      0.0000 
      6 C4B        24.7320   61.8320   31.5040 C.3       1 NDP602      0.0000 
      7 O4B        24.7370   62.0080   30.1000 O.3       1 NDP602      0.0000 
      8 C3B        24.2760   63.1370   32.1790 C.3       1 NDP602      0.0000 
      9 O3B        25.3860   63.9160   32.5060 O.3       1 NDP602      0.0000 
     10 C2B        23.4740   63.8190   31.0290 C.3       1 NDP602      0.0000 
     11 O2B        23.4740   65.1530   31.0830 O.3       1 NDP602      0.0000 
     12 C1B        24.3690   63.3640   29.8440 C.3       1 NDP602      0.0000 
     13 N9A        23.7230   63.4010   28.5370 N.pl3     1 NDP602      0.0000 
     14 C8A        22.5070   62.8260   28.1200 C.2       1 NDP602      0.0000 
     15 N7A        22.2400   63.0550   26.8100 N.2       1 NDP602      0.0000 
     16 C5A        23.3610   63.8210   26.3700 C.ar      1 NDP602      0.0000 
     17 C6A        23.7130   64.3860   25.1100 C.ar      1 NDP602      0.0000 
     18 N6A        22.9030   64.2440   24.0090 N.pl3     1 NDP602      0.0000 
     19 N1A        24.8730   65.0850   24.9350 N.ar      1 NDP602      0.0000 
     20 C2A        25.6620   65.2040   26.0690 C.ar      1 NDP602      0.0000 
     21 N3A        25.4690   64.7380   27.3200 N.ar      1 NDP602      0.0000 
     22 C4A        24.2810   64.0320   27.4420 C.ar      1 NDP602      0.0000 
     23 O3         22.9570   57.9840   32.5470 O.3       1 NDP602      0.0000 
     24 PN         24.2190   57.0160   32.9100 P.3       1 NDP602      0.0000 
     25 O1N        23.6860   55.6930   33.2990 O.co2     1 NDP602      0.0000 
     26 O2N        25.4360   57.6290   33.5710 O.co2     1 NDP602      0.0000 
     27 O5D        24.9360   56.5640   31.4090 O.3       1 NDP602      0.0000 
     28 C5D        23.9320   56.0110   30.6870 C.3       1 NDP602      0.0000 
     29 C4D        24.4950   55.6920   29.3180 C.3       1 NDP602      0.0000 
     30 O4D        25.4050   54.5850   29.4330 O.3       1 NDP602      0.0000 
     31 C3D        23.3300   55.1770   28.4700 C.3       1 NDP602      0.0000 
     32 O3D        23.7820   55.0770   27.1470 O.3       1 NDP602      0.0000 
     33 C2D        23.1540   53.8230   29.1260 C.3       1 NDP602      0.0000 
     34 O2D        22.4560   52.9150   28.3530 O.3       1 NDP602      0.0000 
     35 C1D        24.6570   53.3930   29.1560 C.3       1 NDP602      0.0000 
     36 N1N        24.9010   52.3690   30.1910 N.pl3     1 NDP602      0.0000 
     37 C2N        24.4960   52.5790   31.4850 C.2       1 NDP602      0.0000 
     38 C3N        24.8230   51.6980   32.4750 C.2       1 NDP602      0.0000 
     39 C7N        24.3370   52.0360   33.8050 C.2       1 NDP602      0.0000 
     40 O7N        24.5620   51.3780   34.8490 O.2       1 NDP602      0.0000 
     41 N7N        23.5730   53.1990   33.8770 N.am      1 NDP602      0.0000 
     42 C4N        25.6310   50.4700   32.2280 C.3       1 NDP602      0.0000 
     43 C5N        25.9190   50.2700   30.7710 C.2       1 NDP602      0.0000 
     44 C6N        25.5580   51.1660   29.8440 C.2       1 NDP602      0.0000 
     45 P2B        21.9800   65.8370   31.8600 P.3       1 NDP602      0.0000 
     46 O1X        22.3470   65.4860   33.2700 O.co2     1 NDP602      0.0000 
     47 O2X        22.0260   67.3180   31.4730 O.co2     1 NDP602      0.0000 
     48 O3X        20.9830   64.9560   31.1540 O.co2     1 NDP602      0.0000 
@<TRIPOS>BOND
     1    1    2 ar   
     2    1    3 ar   
     3    1    4 1    
     4    1   23 1    
     5    4    5 1    
     6    5    6 1    
     7    6    7 1    
     8    6    8 1    
     9    7   12 1    
    10    8    9 1    
    11    8   10 1    
    12   10   11 1    
    13   10   12 1    
    14   11   45 1    
    15   12   13 1    
    16   13   14 1    
    17   13   22 1    
    18   14   15 2    
    19   15   16 1    
    20   16   17 ar   
    21   16   22 ar   
    22   17   18 1    
    23   17   19 ar   
    24   19   20 ar   
    25   20   21 ar   
    26   21   22 ar   
    27   23   24 1    
    28   24   25 ar   
    29   24   26 ar   
    30   24   27 1    
    31   27   28 1    
    32   28   29 1    
    33   29   30 1    
    34   29   31 1    
    35   30   35 1    
    36   31   32 1    
    37   31   33 1    
    38   33   34 1    
    39   33   35 1    
    40   35   36 1    
    41   36   37 1    
    42   36   44 1    
    43   37   38 2    
    44   38   39 1    
    45   38   42 1    
    46   39   40 2    
    47   39   41 am   
    48   42   43 1    
    49   43   44 2    
    50   45   46 ar   
    51   45   47 ar   
    52   45   48 ar   
@<TRIPOS>SUBSTRUCTURE
     1 NDP602      1 GROUP   
@<TRIPOS>SET
ATOM$ORANGE STATIC     ATOMS   COLORGROUP SYSTEM 
42 5 5 6 6 8 8 10 10 12 12 14 14 16 16 17 17 20 \
20 22 22 28 28 29 29 31 31 33 33 35 35 37 37 38 38 39 \
39 42 42 43 43 44 44 

