#    Name: 6dhq_5_NDP
#    Modification time : Fri May 22 19:36:05 2020

@<TRIPOS>MOLECULE
6dhq_5_NDP
   48    52     1     0     1
SMALL
NO_CHARGES


@<TRIPOS>ATOM
      1 PA        -13.2920   35.1420    6.7350 P.3       1 NDP602      0.0000 
      2 O1A       -14.2220   34.2190    7.4310 O.co2     1 NDP602      0.0000 
      3 O2A       -11.8320   34.7930    6.6350 O.co2     1 NDP602      0.0000 
      4 O5B       -13.9110   35.3750    5.2290 O.3       1 NDP602      0.0000 
      5 C5B       -13.2640   36.5140    4.6990 C.3       1 NDP602      0.0000 
      6 C4B       -13.7590   36.6880    3.2430 C.3       1 NDP602      0.0000 
      7 O4B       -13.3230   37.8920    2.6950 O.3       1 NDP602      0.0000 
      8 C3B       -13.2720   35.5280    2.3390 C.3       1 NDP602      0.0000 
      9 O3B       -14.2630   35.2800    1.4060 O.3       1 NDP602      0.0000 
     10 C2B       -12.1460   36.1470    1.5430 C.3       1 NDP602      0.0000 
     11 O2B       -12.0810   35.6440    0.3310 O.3       1 NDP602      0.0000 
     12 C1B       -12.7170   37.5940    1.4210 C.3       1 NDP602      0.0000 
     13 N9A       -11.7490   38.6490    1.2980 N.pl3     1 NDP602      0.0000 
     14 C8A       -10.6750   38.9280    2.1690 C.2       1 NDP602      0.0000 
     15 N7A        -9.9900   40.0400    1.8420 N.2       1 NDP602      0.0000 
     16 C5A       -10.6680   40.5310    0.7050 C.ar      1 NDP602      0.0000 
     17 C6A       -10.4450   41.6560   -0.1020 C.ar      1 NDP602      0.0000 
     18 N6A        -9.3830   42.4980    0.1880 N.pl3     1 NDP602      0.0000 
     19 N1A       -11.2560   41.9500   -1.1830 N.ar      1 NDP602      0.0000 
     20 C2A       -12.2920   41.0530   -1.3890 C.ar      1 NDP602      0.0000 
     21 N3A       -12.6390   39.9260   -0.7060 N.ar      1 NDP602      0.0000 
     22 C4A       -11.7860   39.6790    0.3600 C.ar      1 NDP602      0.0000 
     23 O3        -13.4270   36.5590    7.5970 O.3       1 NDP602      0.0000 
     24 PN        -14.8140   36.5920    8.4440 P.3       1 NDP602      0.0000 
     25 O1N       -14.6460   35.9360    9.7560 O.co2     1 NDP602      0.0000 
     26 O2N       -16.0930   36.4240    7.6560 O.co2     1 NDP602      0.0000 
     27 O5D       -14.9230   38.2100    8.9690 O.3       1 NDP602      0.0000 
     28 C5D       -14.5810   39.0130    7.9380 C.3       1 NDP602      0.0000 
     29 C4D       -14.8620   40.4710    8.3550 C.3       1 NDP602      0.0000 
     30 O4D       -15.8950   40.5760    9.3940 O.3       1 NDP602      0.0000 
     31 C3D       -13.6240   41.0260    9.0240 C.3       1 NDP602      0.0000 
     32 O3D       -13.7490   42.4120    8.9460 O.3       1 NDP602      0.0000 
     33 C2D       -13.8390   40.5310   10.4610 C.3       1 NDP602      0.0000 
     34 O2D       -13.0480   41.1880   11.4090 O.3       1 NDP602      0.0000 
     35 C1D       -15.3080   41.0090   10.6020 C.3       1 NDP602      0.0000 
     36 N1N       -16.0400   40.3920   11.7440 N.pl3     1 NDP602      0.0000 
     37 C2N       -15.9700   39.0310   12.0120 C.2       1 NDP602      0.0000 
     38 C3N       -16.7300   38.4680   13.0110 C.2       1 NDP602      0.0000 
     39 C7N       -16.6090   37.0180   13.2070 C.2       1 NDP602      0.0000 
     40 O7N       -17.1990   36.3710   14.0920 O.2       1 NDP602      0.0000 
     41 N7N       -15.7720   36.3400   12.3280 N.am      1 NDP602      0.0000 
     42 C4N       -17.6450   39.2670   13.8780 C.3       1 NDP602      0.0000 
     43 C5N       -17.6370   40.7140   13.5220 C.2       1 NDP602      0.0000 
     44 C6N       -16.8750   41.2080   12.5350 C.2       1 NDP602      0.0000 
     45 P2B       -10.4580   35.0300   -0.1430 P.3       1 NDP602      0.0000 
     46 O1X       -10.6200   33.6470    0.4080 O.co2     1 NDP602      0.0000 
     47 O2X       -10.5170   35.2060   -1.6650 O.co2     1 NDP602      0.0000 
     48 O3X        -9.5970   35.9890    0.6290 O.co2     1 NDP602      0.0000 
@<TRIPOS>BOND
     1    1    2 ar   
     2    1    3 ar   
     3    1    4 1    
     4    1   23 1    
     5    4    5 1    
     6    5    6 1    
     7    6    7 1    
     8    6    8 1    
     9    7   12 1    
    10    8    9 1    
    11    8   10 1    
    12   10   11 1    
    13   10   12 1    
    14   11   45 1    
    15   12   13 1    
    16   13   14 1    
    17   13   22 1    
    18   14   15 2    
    19   15   16 1    
    20   16   17 ar   
    21   16   22 ar   
    22   17   18 1    
    23   17   19 ar   
    24   19   20 ar   
    25   20   21 ar   
    26   21   22 ar   
    27   23   24 1    
    28   24   25 ar   
    29   24   26 ar   
    30   24   27 1    
    31   27   28 1    
    32   28   29 1    
    33   29   30 1    
    34   29   31 1    
    35   30   35 1    
    36   31   32 1    
    37   31   33 1    
    38   33   34 1    
    39   33   35 1    
    40   35   36 1    
    41   36   37 1    
    42   36   44 1    
    43   37   38 2    
    44   38   39 1    
    45   38   42 1    
    46   39   40 2    
    47   39   41 am   
    48   42   43 1    
    49   43   44 2    
    50   45   46 ar   
    51   45   47 ar   
    52   45   48 ar   
@<TRIPOS>SUBSTRUCTURE
     1 NDP602      1 GROUP   
@<TRIPOS>SET
ATOM$ORANGE STATIC     ATOMS   COLORGROUP SYSTEM 
42 5 5 6 6 8 8 10 10 12 12 14 14 16 16 17 17 20 \
20 22 22 28 28 29 29 31 31 33 33 35 35 37 37 38 38 39 \
39 42 42 43 43 44 44 

