#    Name: 6dhq_3_NDP
#    Modification time : Fri May 22 19:36:00 2020

@<TRIPOS>MOLECULE
6dhq_3_NDP
   48    52     1     0     1
SMALL
NO_CHARGES


@<TRIPOS>ATOM
      1 PA         22.2390    2.2300   28.7760 P.3       1 NDP602      0.0000 
      2 O1A        23.0090    3.5500   28.7830 O.co2     1 NDP602      0.0000 
      3 O2A        20.9450    2.0540   28.1490 O.co2     1 NDP602      0.0000 
      4 O5B        23.3320    1.1890   28.1590 O.3       1 NDP602      0.0000 
      5 C5B        22.7590   -0.0260   28.4420 C.3       1 NDP602      0.0000 
      6 C4B        23.7520   -1.0790   28.0440 C.3       1 NDP602      0.0000 
      7 O4B        23.3230   -2.3410   28.5760 O.3       1 NDP602      0.0000 
      8 C3B        23.7980   -1.1130   26.5030 C.3       1 NDP602      0.0000 
      9 O3B        25.1120   -1.4730   26.0360 O.3       1 NDP602      0.0000 
     10 C2B        22.8490   -2.2670   26.2200 C.3       1 NDP602      0.0000 
     11 O2B        23.1840   -2.9460   25.1640 O.3       1 NDP602      0.0000 
     12 C1B        23.1790   -3.1930   27.4750 C.3       1 NDP602      0.0000 
     13 N9A        22.1160   -4.1420   27.7440 N.pl3     1 NDP602      0.0000 
     14 C8A        20.7490   -3.8730   27.9380 C.2       1 NDP602      0.0000 
     15 N7A        20.0090   -4.9800   28.1610 N.2       1 NDP602      0.0000 
     16 C5A        20.9460   -6.0230   28.1030 C.ar      1 NDP602      0.0000 
     17 C6A        20.7990   -7.4010   28.2500 C.ar      1 NDP602      0.0000 
     18 N6A        19.5550   -7.9290   28.4870 N.pl3     1 NDP602      0.0000 
     19 N1A        21.8490   -8.2410   28.1600 N.ar      1 NDP602      0.0000 
     20 C2A        23.0800   -7.6250   27.8950 C.ar      1 NDP602      0.0000 
     21 N3A        23.3950   -6.3300   27.7270 N.ar      1 NDP602      0.0000 
     22 C4A        22.2710   -5.5220   27.8360 C.ar      1 NDP602      0.0000 
     23 O3         21.9870    1.8760   30.4070 O.3       1 NDP602      0.0000 
     24 PN         22.9690    2.6410   31.3900 P.3       1 NDP602      0.0000 
     25 O1N        22.4500    4.0090   31.6530 O.co2     1 NDP602      0.0000 
     26 O2N        24.4400    2.3670   31.1880 O.co2     1 NDP602      0.0000 
     27 O5D        22.6600    1.9020   32.9760 O.3       1 NDP602      0.0000 
     28 C5D        22.4110    0.5580   32.8410 C.3       1 NDP602      0.0000 
     29 C4D        22.2490   -0.0180   34.2360 C.3       1 NDP602      0.0000 
     30 O4D        22.8850    0.8690   35.1930 O.3       1 NDP602      0.0000 
     31 C3D        20.7370    0.0280   34.6020 C.3       1 NDP602      0.0000 
     32 O3D        20.5010   -0.9830   35.5190 O.3       1 NDP602      0.0000 
     33 C2D        20.6290    1.3960   35.2710 C.3       1 NDP602      0.0000 
     34 O2D        19.5550    1.4930   36.1390 O.3       1 NDP602      0.0000 
     35 C1D        21.8930    1.3560   36.1030 C.3       1 NDP602      0.0000 
     36 N1N        22.2710    2.7020   36.5260 N.pl3     1 NDP602      0.0000 
     37 C2N        22.2610    3.7410   35.6230 C.2       1 NDP602      0.0000 
     38 C3N        22.6970    4.9980   35.9820 C.2       1 NDP602      0.0000 
     39 C7N        22.6640    6.0500   34.9230 C.2       1 NDP602      0.0000 
     40 O7N        23.1690    7.1960   35.0420 O.2       1 NDP602      0.0000 
     41 N7N        22.0350    5.7060   33.7030 N.am      1 NDP602      0.0000 
     42 C4N        23.2020    5.3140   37.3630 C.3       1 NDP602      0.0000 
     43 C5N        23.1300    4.1320   38.2770 C.2       1 NDP602      0.0000 
     44 C6N        22.6860    2.9360   37.8570 C.2       1 NDP602      0.0000 
     45 P2B        22.0130   -2.9050   23.8410 P.3       1 NDP602      0.0000 
     46 O1X        22.3600   -1.5230   23.3920 O.co2     1 NDP602      0.0000 
     47 O2X        22.4880   -4.0870   22.9850 O.co2     1 NDP602      0.0000 
     48 O3X        20.7500   -3.0940   24.6400 O.co2     1 NDP602      0.0000 
@<TRIPOS>BOND
     1    1    2 ar   
     2    1    3 ar   
     3    1    4 1    
     4    1   23 1    
     5    4    5 1    
     6    5    6 1    
     7    6    7 1    
     8    6    8 1    
     9    7   12 1    
    10    8    9 1    
    11    8   10 1    
    12   10   11 1    
    13   10   12 1    
    14   11   45 1    
    15   12   13 1    
    16   13   14 1    
    17   13   22 1    
    18   14   15 2    
    19   15   16 1    
    20   16   17 ar   
    21   16   22 ar   
    22   17   18 1    
    23   17   19 ar   
    24   19   20 ar   
    25   20   21 ar   
    26   21   22 ar   
    27   23   24 1    
    28   24   25 ar   
    29   24   26 ar   
    30   24   27 1    
    31   27   28 1    
    32   28   29 1    
    33   29   30 1    
    34   29   31 1    
    35   30   35 1    
    36   31   32 1    
    37   31   33 1    
    38   33   34 1    
    39   33   35 1    
    40   35   36 1    
    41   36   37 1    
    42   36   44 1    
    43   37   38 2    
    44   38   39 1    
    45   38   42 1    
    46   39   40 2    
    47   39   41 am   
    48   42   43 1    
    49   43   44 2    
    50   45   46 ar   
    51   45   47 ar   
    52   45   48 ar   
@<TRIPOS>SUBSTRUCTURE
     1 NDP602      1 GROUP   
@<TRIPOS>SET
ATOM$ORANGE STATIC     ATOMS   COLORGROUP SYSTEM 
42 5 5 6 6 8 8 10 10 12 12 14 14 16 16 17 17 20 \
20 22 22 28 28 29 29 31 31 33 33 35 35 37 37 38 38 39 \
39 42 42 43 43 44 44 

