#    Name: 6dhq_9_NDP_CAVITY_N1_4
#    Modification time : Fri May 22 19:36:19 2020

@<TRIPOS>MOLECULE
6dhq_9_NDP_CAVITY_N1_4
   78     0     6     0     0
SMALL
NO_CHARGES


@<TRIPOS>ATOM
      1 OG        -22.8500   -8.6600   49.8000 O.3       1 SER1        0.0000 
      2 OG        -21.4700   -9.8300   48.6800 O.3       1 SER1        0.0000 
      3 OG        -20.7700   -9.6600   47.3600 O.3       1 SER1        0.0000 
      4 OG        -23.7900   -6.9800   52.9300 O.3       1 SER1        0.0000 
      5 OG        -23.0800   -6.8200   51.6100 O.3       1 SER1        0.0000 
      6 OG        -22.3800   -6.6600   50.3000 O.3       1 SER1        0.0000 
      7 OG        -21.0000   -7.8200   49.1800 O.3       1 SER1        0.0000 
      8 OG        -21.9400   -6.1400   52.3100 O.3       1 SER1        0.0000 
      9 OG        -21.2300   -5.9800   51.0000 O.3       1 SER1        0.0000 
     10 OG        -20.5700   -7.3100   51.1900 O.3       1 SER1        0.0000 
     11 OG        -19.8600   -7.1400   49.8800 O.3       1 SER1        0.0000 
     12 OG        -21.4300   -2.6500   51.3100 O.3       1 SER1        0.0000 
     13 OG        -20.7600   -3.9700   51.5000 O.3       1 SER1        0.0000 
     14 OG        -19.4200   -6.6300   51.8900 O.3       1 SER1        0.0000 
     15 OG        -18.9500   -4.6300   52.4000 O.3       1 SER1        0.0000 
     16 O         -25.6100  -12.0200   47.8900 O.2       2 ALA2        0.0000 
     17 O         -24.9400  -13.3500   48.0900 O.2       2 ALA2        0.0000 
     18 O         -24.2300  -13.1800   46.7700 O.2       2 ALA2        0.0000 
     19 O         -25.1300  -10.0100   48.4000 O.2       2 ALA2        0.0000 
     20 O         -24.4600  -11.3400   48.5900 O.2       2 ALA2        0.0000 
     21 N         -23.8000  -12.6700   48.7900 N.am      2 ALA2        0.0000 
     22 O         -23.7600  -11.1800   47.2800 O.2       2 ALA2        0.0000 
     23 O         -23.0900  -12.5100   47.4700 O.2       2 ALA2        0.0000 
     24 O         -23.9900   -9.3400   49.1000 O.2       2 ALA2        0.0000 
     25 O         -22.6200  -10.5000   47.9800 O.2       2 ALA2        0.0000 
     26 O         -26.2700   -5.0000   51.8400 O.2       2 ALA2        0.0000 
     27 O         -26.2300   -3.5100   50.3300 O.2       2 ALA2        0.0000 
     28 O         -24.2200   -7.5000   50.9100 O.2       2 ALA2        0.0000 
     29 N         -25.5200   -3.3500   49.0200 N.am      2 ALA2        0.0000 
     30 O         -25.7900   -3.0000   52.3400 O.2       2 ALA2        0.0000 
     31 OD1       -24.6900   -3.8100   54.5500 O.co2     3 ASP3        0.0000 
     32 OD1       -22.1700   -4.3000   54.1300 O.co2     3 ASP3        0.0000 
     33 OD1       -21.5100   -5.6300   54.3200 O.co2     3 ASP3        0.0000 
     34 NZ        -26.5000   -3.1600   53.6600 N.4       4 LYS4        0.0000 
     35 NZ        -25.1300   -4.3200   52.5400 N.4       4 LYS4        0.0000 
     36 NZ        -24.4600   -5.6500   52.7300 N.4       4 LYS4        0.0000 
     37 NZ        -24.0200   -5.1400   54.7400 N.4       4 LYS4        0.0000 
     38 CA        -26.0300   -6.8400   50.0200 C.3       5 GLY6        0.0000 
     39 CA        -25.3700   -8.1700   50.2100 C.3       5 GLY6        0.0000 
     40 CA        -24.6600   -8.0100   48.9000 C.3       5 GLY6        0.0000 
     41 CA        -23.3200  -10.6700   49.2900 C.3       5 GLY6        0.0000 
     42 CA        -23.2800   -9.1700   47.7800 C.3       5 GLY6        0.0000 
     43 CA        -25.6000   -6.3300   52.0300 C.3       5 GLY6        0.0000 
     44 CA        -25.5600   -4.8400   50.5300 C.3       5 GLY6        0.0000 
     45 CA        -24.8900   -6.1700   50.7200 C.3       5 GLY6        0.0000 
     46 CA        -24.8500   -4.6700   49.2100 C.3       5 GLY6        0.0000 
     47 CA        -24.1900   -6.0000   49.4100 C.3       5 GLY6        0.0000 
     48 CA        -23.5200   -7.3300   49.6000 C.3       5 GLY6        0.0000 
     49 CA        -22.1400   -8.5000   48.4800 C.3       5 GLY6        0.0000 
     50 CA        -25.0900   -2.8300   51.0300 C.3       5 GLY6        0.0000 
     51 CA        -23.0000   -3.8300   48.6000 C.3       5 GLY6        0.0000 
     52 CA        -22.3400   -5.1600   48.7900 C.3       5 GLY6        0.0000 
     53 CA        -21.6700   -6.4900   48.9900 C.3       5 GLY6        0.0000 
     54 CA        -24.6500   -2.3200   53.0400 C.3       5 GLY6        0.0000 
     55 CA        -23.9500   -2.1600   51.7300 C.3       5 GLY6        0.0000 
     56 CA        -21.9000   -4.6500   50.8100 C.3       5 GLY6        0.0000 
     57 CA        -20.5300   -5.8200   49.6900 C.3       5 GLY6        0.0000 
     58 CA        -20.7200   -2.4800   50.0000 C.3       5 GLY6        0.0000 
     59 CA        -20.0500   -3.8100   50.1900 C.3       5 GLY6        0.0000 
     60 CA        -19.3800   -5.1400   50.3900 C.3       5 GLY6        0.0000 
     61 CA        -18.0100   -6.3000   49.2700 C.3       5 GLY6        0.0000 
     62 CA        -19.6600   -4.7900   53.7100 C.3       5 GLY6        0.0000 
     63 CA        -18.9900   -6.1200   53.9100 C.3       5 GLY6        0.0000 
     64 DU        -24.4200   -4.1600   51.2200 H         6 CUB7        0.0000 
     65 DU        -23.7500   -5.4900   51.4200 H         6 CUB7        0.0000 
     66 DU        -24.3800   -2.6700   49.7200 H         6 CUB7        0.0000 
     67 DU        -23.7100   -4.0000   49.9100 H         6 CUB7        0.0000 
     68 DU        -23.0400   -5.3300   50.1100 H         6 CUB7        0.0000 
     69 DU        -23.9800   -3.6500   53.2400 H         6 CUB7        0.0000 
     70 DU        -23.3200   -4.9800   53.4300 H         6 CUB7        0.0000 
     71 DU        -22.6100   -4.8100   52.1200 H         6 CUB7        0.0000 
     72 DU        -23.2400   -1.9900   50.4200 H         6 CUB7        0.0000 
     73 DU        -22.5700   -3.3200   50.6100 H         6 CUB7        0.0000 
     74 DU        -21.4700   -4.1400   52.8200 H         6 CUB7        0.0000 
     75 DU        -20.8000   -5.4700   53.0100 H         6 CUB7        0.0000 
     76 DU        -20.0900   -5.3000   51.7000 H         6 CUB7        0.0000 
     77 DU        -18.7200   -6.4700   50.5800 H         6 CUB7        0.0000 
     78 DU        -18.2800   -5.9600   52.5900 H         6 CUB7        0.0000 
@<TRIPOS>BOND
@<TRIPOS>SUBSTRUCTURE
     1 SER1        1 GROUP   
     2 ALA2       16 GROUP   
     3 ASP3       31 GROUP   
     4 LYS4       34 GROUP   
     5 GLY6       38 GROUP   
     6 CUB7       64 GROUP   
@<TRIPOS>SET

