#    Name: 6dhq_1_NDP
#    Modification time : Fri May 22 19:35:54 2020

@<TRIPOS>MOLECULE
6dhq_1_NDP
   48    52     1     0     1
SMALL
NO_CHARGES


@<TRIPOS>ATOM
      1 PA         11.8070   26.6740   79.3080 P.3       1 NDP602      0.0000 
      2 O1A        12.7320   25.9100   78.4270 O.co2     1 NDP602      0.0000 
      3 O2A        10.3480   26.4180   79.2630 O.co2     1 NDP602      0.0000 
      4 O5B        12.3530   26.5400   80.8460 O.3       1 NDP602      0.0000 
      5 C5B        11.9560   27.7280   81.5120 C.3       1 NDP602      0.0000 
      6 C4B        12.3830   27.5590   82.9810 C.3       1 NDP602      0.0000 
      7 O4B        11.8960   28.6250   83.7970 O.3       1 NDP602      0.0000 
      8 C3B        11.8670   26.1860   83.5560 C.3       1 NDP602      0.0000 
      9 O3B        12.8840   25.5480   84.3240 O.3       1 NDP602      0.0000 
     10 C2B        10.6910   26.6200   84.5110 C.3       1 NDP602      0.0000 
     11 O2B        10.5930   25.8660   85.6130 O.3       1 NDP602      0.0000 
     12 C1B        11.2280   28.0140   84.9520 C.3       1 NDP602      0.0000 
     13 N9A        10.2230   28.9700   85.3210 N.pl3     1 NDP602      0.0000 
     14 C8A         9.0950   29.3620   84.5950 C.2       1 NDP602      0.0000 
     15 N7A         8.3910   30.3410   85.1900 N.2       1 NDP602      0.0000 
     16 C5A         9.1210   30.6020   86.3590 C.ar      1 NDP602      0.0000 
     17 C6A         8.9200   31.5080   87.3970 C.ar      1 NDP602      0.0000 
     18 N6A         7.8200   32.3510   87.3700 N.pl3     1 NDP602      0.0000 
     19 N1A         9.7890   31.5810   88.4400 N.ar      1 NDP602      0.0000 
     20 C2A        10.8600   30.7090   88.3960 C.ar      1 NDP602      0.0000 
     21 N3A        11.1960   29.7920   87.4710 N.ar      1 NDP602      0.0000 
     22 C4A        10.2810   29.7590   86.4400 C.ar      1 NDP602      0.0000 
     23 O3         12.0200   28.2430   78.8050 O.3       1 NDP602      0.0000 
     24 PN         13.3960   28.4450   77.9560 P.3       1 NDP602      0.0000 
     25 O1N        13.2130   27.9440   76.5840 O.co2     1 NDP602      0.0000 
     26 O2N        14.6840   28.2870   78.7310 O.co2     1 NDP602      0.0000 
     27 O5D        13.4430   30.1600   77.6440 O.3       1 NDP602      0.0000 
     28 C5D        13.3680   30.7430   78.8800 C.3       1 NDP602      0.0000 
     29 C4D        13.3920   32.2700   78.7380 C.3       1 NDP602      0.0000 
     30 O4D        14.4200   32.7060   77.8160 O.3       1 NDP602      0.0000 
     31 C3D        12.0610   32.7890   78.1420 C.3       1 NDP602      0.0000 
     32 O3D        11.9380   34.1110   78.5260 O.3       1 NDP602      0.0000 
     33 C2D        12.3100   32.7660   76.6710 C.3       1 NDP602      0.0000 
     34 O2D        11.4970   33.7040   75.9850 O.3       1 NDP602      0.0000 
     35 C1D        13.8070   33.2590   76.6590 C.3       1 NDP602      0.0000 
     36 N1N        14.5920   32.8160   75.4660 N.pl3     1 NDP602      0.0000 
     37 C2N        14.5350   31.4940   74.9880 C.2       1 NDP602      0.0000 
     38 C3N        15.2630   31.1460   73.8690 C.2       1 NDP602      0.0000 
     39 C7N        15.2110   29.7580   73.4040 C.2       1 NDP602      0.0000 
     40 O7N        16.0540   29.2710   72.6370 O.2       1 NDP602      0.0000 
     41 N7N        14.1610   28.9510   73.8390 N.am      1 NDP602      0.0000 
     42 C4N        16.1050   32.1290   73.1070 C.3       1 NDP602      0.0000 
     43 C5N        16.1820   33.4680   73.7660 C.2       1 NDP602      0.0000 
     44 C6N        15.4690   33.7610   74.8520 C.2       1 NDP602      0.0000 
     45 P2B         9.1510   24.7360   85.7010 P.3       1 NDP602      0.0000 
     46 O1X         8.9230   24.5120   84.2360 O.co2     1 NDP602      0.0000 
     47 O2X         9.6800   23.5570   86.5230 O.co2     1 NDP602      0.0000 
     48 O3X         8.2460   25.7020   86.3970 O.co2     1 NDP602      0.0000 
@<TRIPOS>BOND
     1    1    2 ar   
     2    1    3 ar   
     3    1    4 1    
     4    1   23 1    
     5    4    5 1    
     6    5    6 1    
     7    6    7 1    
     8    6    8 1    
     9    7   12 1    
    10    8    9 1    
    11    8   10 1    
    12   10   11 1    
    13   10   12 1    
    14   11   45 1    
    15   12   13 1    
    16   13   14 1    
    17   13   22 1    
    18   14   15 2    
    19   15   16 1    
    20   16   17 ar   
    21   16   22 ar   
    22   17   18 1    
    23   17   19 ar   
    24   19   20 ar   
    25   20   21 ar   
    26   21   22 ar   
    27   23   24 1    
    28   24   25 ar   
    29   24   26 ar   
    30   24   27 1    
    31   27   28 1    
    32   28   29 1    
    33   29   30 1    
    34   29   31 1    
    35   30   35 1    
    36   31   32 1    
    37   31   33 1    
    38   33   34 1    
    39   33   35 1    
    40   35   36 1    
    41   36   37 1    
    42   36   44 1    
    43   37   38 2    
    44   38   39 1    
    45   38   42 1    
    46   39   40 2    
    47   39   41 am   
    48   42   43 1    
    49   43   44 2    
    50   45   46 ar   
    51   45   47 ar   
    52   45   48 ar   
@<TRIPOS>SUBSTRUCTURE
     1 NDP602      1 GROUP   
@<TRIPOS>SET
ATOM$ORANGE STATIC     ATOMS   COLORGROUP SYSTEM 
42 5 5 6 6 8 8 10 10 12 12 14 14 16 16 17 17 20 \
20 22 22 28 28 29 29 31 31 33 33 35 35 37 37 38 38 39 \
39 42 42 43 43 44 44 

