#    Name: 6dhq_7_NDP
#    Modification time : Fri May 22 19:36:11 2020

@<TRIPOS>MOLECULE
6dhq_7_NDP
   48    52     1     0     1
SMALL
NO_CHARGES


@<TRIPOS>ATOM
      1 PA        -24.0680   56.3060   58.9070 P.3       1 NDP602      0.0000 
      2 O1A       -24.4360   56.5750   57.5080 O.co2     1 NDP602      0.0000 
      3 O2A       -22.7420   56.7920   59.4230 O.co2     1 NDP602      0.0000 
      4 O5B       -25.2620   56.7530   59.9290 O.3       1 NDP602      0.0000 
      5 C5B       -24.7320   57.7830   60.6640 C.3       1 NDP602      0.0000 
      6 C4B       -25.8890   58.5480   61.2300 C.3       1 NDP602      0.0000 
      7 O4B       -25.8780   58.3710   62.6110 O.3       1 NDP602      0.0000 
      8 C3B       -25.6190   60.0020   60.9140 C.3       1 NDP602      0.0000 
      9 O3B       -26.8150   60.6770   60.9840 O.3       1 NDP602      0.0000 
     10 C2B       -24.7720   60.4150   62.1210 C.3       1 NDP602      0.0000 
     11 O2B       -24.8890   61.6920   62.4010 O.3       1 NDP602      0.0000 
     12 C1B       -25.5640   59.6200   63.1780 C.3       1 NDP602      0.0000 
     13 N9A       -24.9080   59.3520   64.4630 N.pl3     1 NDP602      0.0000 
     14 C8A       -23.7060   58.6920   64.7700 C.2       1 NDP602      0.0000 
     15 N7A       -23.4700   58.6180   66.0980 N.2       1 NDP602      0.0000 
     16 C5A       -24.6060   59.2480   66.6630 C.ar      1 NDP602      0.0000 
     17 C6A       -25.0050   59.5070   67.9960 C.ar      1 NDP602      0.0000 
     18 N6A       -24.2290   59.1200   69.0720 N.pl3     1 NDP602      0.0000 
     19 N1A       -26.1740   60.1530   68.2670 N.ar      1 NDP602      0.0000 
     20 C2A       -26.9260   60.5200   67.1760 C.ar      1 NDP602      0.0000 
     21 N3A       -26.6960   60.3430   65.8760 N.ar      1 NDP602      0.0000 
     22 C4A       -25.4960   59.6960   65.6440 C.ar      1 NDP602      0.0000 
     23 O3        -24.0050   54.6780   58.9310 O.3       1 NDP602      0.0000 
     24 PN        -25.4180   53.9920   58.7500 P.3       1 NDP602      0.0000 
     25 O1N       -25.2250   52.5770   58.3780 O.co2     1 NDP602      0.0000 
     26 O2N       -26.5120   54.8470   58.1500 O.co2     1 NDP602      0.0000 
     27 O5D       -26.0860   53.6710   60.3160 O.3       1 NDP602      0.0000 
     28 C5D       -25.1430   52.8980   60.8950 C.3       1 NDP602      0.0000 
     29 C4D       -25.7990   52.0750   61.9900 C.3       1 NDP602      0.0000 
     30 O4D       -26.7060   51.1020   61.4020 O.3       1 NDP602      0.0000 
     31 C3D       -24.6800   51.2320   62.6730 C.3       1 NDP602      0.0000 
     32 O3D       -25.2290   50.6670   63.8420 O.3       1 NDP602      0.0000 
     33 C2D       -24.5210   50.1790   61.6120 C.3       1 NDP602      0.0000 
     34 O2D       -23.8470   49.0360   62.0640 O.3       1 NDP602      0.0000 
     35 C1D       -26.0620   49.8360   61.4560 C.3       1 NDP602      0.0000 
     36 N1N       -26.2930   49.1180   60.2180 N.pl3     1 NDP602      0.0000 
     37 C2N       -25.8210   49.6220   59.0270 C.2       1 NDP602      0.0000 
     38 C3N       -26.0610   48.9740   57.8490 C.2       1 NDP602      0.0000 
     39 C7N       -25.5180   49.5730   56.6610 C.2       1 NDP602      0.0000 
     40 O7N       -25.6540   49.1010   55.5170 O.2       1 NDP602      0.0000 
     41 N7N       -24.7980   50.7390   56.8490 N.am      1 NDP602      0.0000 
     42 C4N       -26.8290   47.7020   57.7600 C.3       1 NDP602      0.0000 
     43 C5N       -27.2520   47.2130   59.1030 C.2       1 NDP602      0.0000 
     44 C6N       -26.9840   47.8950   60.2270 C.2       1 NDP602      0.0000 
     45 P2B       -23.3580   62.5970   62.1590 P.3       1 NDP602      0.0000 
     46 O1X       -22.6290   61.9300   63.2880 O.co2     1 NDP602      0.0000 
     47 O2X       -22.9560   62.2290   60.7290 O.co2     1 NDP602      0.0000 
     48 O3X       -23.9090   63.9830   62.3930 O.co2     1 NDP602      0.0000 
@<TRIPOS>BOND
     1    1    2 ar   
     2    1    3 ar   
     3    1    4 1    
     4    1   23 1    
     5    4    5 1    
     6    5    6 1    
     7    6    7 1    
     8    6    8 1    
     9    7   12 1    
    10    8    9 1    
    11    8   10 1    
    12   10   11 1    
    13   10   12 1    
    14   11   45 1    
    15   12   13 1    
    16   13   14 1    
    17   13   22 1    
    18   14   15 2    
    19   15   16 1    
    20   16   17 ar   
    21   16   22 ar   
    22   17   18 1    
    23   17   19 ar   
    24   19   20 ar   
    25   20   21 ar   
    26   21   22 ar   
    27   23   24 1    
    28   24   25 ar   
    29   24   26 ar   
    30   24   27 1    
    31   27   28 1    
    32   28   29 1    
    33   29   30 1    
    34   29   31 1    
    35   30   35 1    
    36   31   32 1    
    37   31   33 1    
    38   33   34 1    
    39   33   35 1    
    40   35   36 1    
    41   36   37 1    
    42   36   44 1    
    43   37   38 2    
    44   38   39 1    
    45   38   42 1    
    46   39   40 2    
    47   39   41 am   
    48   42   43 1    
    49   43   44 2    
    50   45   46 ar   
    51   45   47 ar   
    52   45   48 ar   
@<TRIPOS>SUBSTRUCTURE
     1 NDP602      1 GROUP   
@<TRIPOS>SET
ATOM$ORANGE STATIC     ATOMS   COLORGROUP SYSTEM 
42 5 5 6 6 8 8 10 10 12 12 14 14 16 16 17 17 20 \
20 22 22 28 28 29 29 31 31 33 33 35 35 37 37 38 38 39 \
39 42 42 43 43 44 44 

