#    Name: 5wxu_1_IAC
#    Modification time : Fri May 22 19:16:12 2020

@<TRIPOS>MOLECULE
5wxu_1_IAC
   13    14     1     0     0
SMALL
NO_CHARGES


@<TRIPOS>ATOM
      1 C         -44.6520   12.6380   58.4810 C.ar      1 IAC507      0.0000 
      2 C1        -45.5160   13.1800   57.4260 C.ar      1 IAC507      0.0000 
      3 C2        -45.8350   12.3880   56.3230 C.ar      1 IAC507      0.0000 
      4 C3        -45.3230   11.0870   56.2140 C.ar      1 IAC507      0.0000 
      5 C4        -44.5200   10.5700   57.2330 C.ar      1 IAC507      0.0000 
      6 C5        -44.2070   11.3480   58.3640 C.ar      1 IAC507      0.0000 
      7 C7        -45.8240   14.5540   57.8870 C.2       1 IAC507      0.0000 
      8 C8        -45.1680   14.6880   59.1090 C.2       1 IAC507      0.0000 
      9 C17       -46.6660   15.6460   57.2740 C.3       1 IAC507      0.0000 
     10 C18       -47.8500   16.0310   58.1630 C.2       1 IAC507      0.0000 
     11 N         -44.5190   13.5470   59.4350 N.pl3     1 IAC507      0.0000 
     12 O2        -48.8990   16.4670   57.6290 O.co2     1 IAC507      0.0000 
     13 O3        -47.7590   15.9560   59.4280 O.co2     1 IAC507      0.0000 
@<TRIPOS>BOND
     1    1    2 ar   
     2    1    6 ar   
     3    1   11 1    
     4    2    3 ar   
     5    2    7 1    
     6    3    4 ar   
     7    4    5 ar   
     8    5    6 ar   
     9    7    8 2    
    10    7    9 1    
    11    8   11 1    
    12    9   10 1    
    13   10   12 ar   
    14   10   13 ar   
@<TRIPOS>SUBSTRUCTURE
     1 IAC507      1 GROUP   
@<TRIPOS>SET

