#    Name: 5wxu_1_IAC_CAVITY_N1_4
#    Modification time : Fri May 22 19:16:13 2020

@<TRIPOS>MOLECULE
5wxu_1_IAC_CAVITY_N1_4
   51     0     6     0     0
SMALL
NO_CHARGES


@<TRIPOS>ATOM
      1 N         -46.9100   12.0900   52.6200 N.am      1 ALA2        0.0000 
      2 N         -46.3900   10.6100   55.9400 N.am      1 ALA2        0.0000 
      3 N         -45.7100   11.1700   54.7300 N.am      1 ALA2        0.0000 
      4 N         -46.6700   12.3200   54.7100 N.am      1 ALA2        0.0000 
      5 N         -51.1900   16.3800   55.8700 N.am      1 ALA2        0.0000 
      6 N         -44.5100   10.2400   56.8400 N.am      1 ALA2        0.0000 
      7 N         -43.8200   10.8000   55.6200 N.am      1 ALA2        0.0000 
      8 N         -43.5800   11.0200   57.7200 N.am      1 ALA2        0.0000 
      9 O         -44.5400   12.1800   57.7000 O.2       1 ALA2        0.0000 
     10 N         -47.4100   15.6400   57.6600 N.am      1 ALA2        0.0000 
     11 O         -45.2500   13.5600   59.7800 O.2       1 ALA2        0.0000 
     12 N         -45.5300   15.2700   58.5500 N.am      1 ALA2        0.0000 
     13 OD1       -48.3100   12.9200   55.9100 O.co2     2 ASP3        0.0000 
     14 OD1       -47.6300   13.4700   54.7000 O.co2     2 ASP3        0.0000 
     15 OD1       -46.9400   14.0300   53.4800 O.co2     2 ASP3        0.0000 
     16 OD1       -49.2700   14.0700   55.9000 O.co2     2 ASP3        0.0000 
     17 OD1       -50.2300   15.2300   55.8800 O.co2     2 ASP3        0.0000 
     18 OD1       -46.0100   14.8100   54.3600 O.co2     2 ASP3        0.0000 
     19 OD1       -47.6600   15.4100   55.5600 O.co2     2 ASP3        0.0000 
     20 OD1       -49.5700   17.7200   55.5300 O.co2     2 ASP3        0.0000 
     21 OD1       -45.0800   15.5900   55.2500 O.co2     2 ASP3        0.0000 
     22 NZ        -45.9800   12.8700   53.5000 N.4       3 LYS4        0.0000 
     23 NZ        -49.3000   16.0100   56.7600 N.4       3 LYS4        0.0000 
     24 CZ        -52.1500   17.5300   55.8500 C.ar      4 PHE5        0.0000 
     25 CA        -48.5500   12.6900   53.8200 C.3       5 GLY6        0.0000 
     26 CA        -45.4400    9.4600   55.9600 C.3       5 GLY6        0.0000 
     27 CA        -47.0800   10.0600   57.1600 C.3       5 GLY6        0.0000 
     28 CA        -47.3500   11.7700   55.9300 C.3       5 GLY6        0.0000 
     29 CA        -49.5400   15.7800   54.6700 C.3       5 GLY6        0.0000 
     30 CA        -45.1900    9.6900   58.0500 C.3       5 GLY6        0.0000 
     31 CA        -46.1500   10.8400   58.0400 C.3       5 GLY6        0.0000 
     32 CA        -45.4700   11.4000   56.8200 C.3       5 GLY6        0.0000 
     33 CA        -44.7800   11.9500   55.6100 C.3       5 GLY6        0.0000 
     34 CA        -46.4200   12.5500   56.8100 C.3       5 GLY6        0.0000 
     35 CA        -45.0500   13.6600   54.3800 C.3       5 GLY6        0.0000 
     36 CA        -47.3800   13.7000   56.7900 C.3       5 GLY6        0.0000 
     37 CA        -48.6200   16.5600   55.5500 C.3       5 GLY6        0.0000 
     38 CA        -45.2200   11.6200   58.9200 C.3       5 GLY6        0.0000 
     39 CA        -43.8500   12.7300   56.4900 C.3       5 GLY6        0.0000 
     40 CA        -45.5000   13.3300   57.6900 C.3       5 GLY6        0.0000 
     41 CA        -44.8100   13.8900   56.4700 C.3       5 GLY6        0.0000 
     42 CA        -45.7700   15.0400   56.4600 C.3       5 GLY6        0.0000 
     43 CA        -46.7300   16.1900   56.4400 C.3       5 GLY6        0.0000 
     44 CA        -43.6100   12.9600   58.5800 C.3       5 GLY6        0.0000 
     45 CA        -44.5700   14.1100   58.5700 C.3       5 GLY6        0.0000 
     46 CA        -46.2100   14.7100   59.7700 C.3       5 GLY6        0.0000 
     47 CA        -44.8400   15.8200   57.3400 C.3       5 GLY6        0.0000 
     48 DU        -50.5000   16.9300   54.6500 H         6 CUB7        0.0000 
     49 DU        -45.7400   13.1000   55.5900 H         6 CUB7        0.0000 
     50 DU        -46.7000   14.2600   55.5800 H         6 CUB7        0.0000 
     51 DU        -46.4600   14.4900   57.6700 H         6 CUB7        0.0000 
@<TRIPOS>BOND
@<TRIPOS>SUBSTRUCTURE
     1 ALA2        1 GROUP   
     2 ASP3       13 GROUP   
     3 LYS4       22 GROUP   
     4 PHE5       24 GROUP   
     5 GLY6       25 GROUP   
     6 CUB7       48 GROUP   
@<TRIPOS>SET

