#    Name: 6a0g_3_FMN
#    Modification time : Fri May 22 19:24:48 2020

@<TRIPOS>MOLECULE
6a0g_3_FMN
   31    33     1     0     1
SMALL
NO_CHARGES


@<TRIPOS>ATOM
      1 N1         29.6450   -9.0190   22.1370 N.2       1 FMN401      0.0000 
      2 C2         30.8340   -9.0440   21.5340 C.2       1 FMN401      0.0000 
      3 O2         30.9510   -9.0510   20.3000 O.2       1 FMN401      0.0000 
      4 N3         31.9900   -9.1040   22.2870 N.am      1 FMN401      0.0000 
      5 C4         32.0270   -9.0290   23.6370 C.2       1 FMN401      0.0000 
      6 O4         33.1170   -9.0790   24.3080 O.2       1 FMN401      0.0000 
      7 C4A        30.7520   -8.9610   24.3610 C.2       1 FMN401      0.0000 
      8 N5         30.6430   -8.9060   25.7410 N.2       1 FMN401      0.0000 
      9 C5A        29.4640   -8.8510   26.3360 C.ar      1 FMN401      0.0000 
     10 C6         29.3210   -8.7820   27.7060 C.ar      1 FMN401      0.0000 
     11 C7         28.0890   -8.7870   28.3300 C.ar      1 FMN401      0.0000 
     12 C7M        27.9810   -8.7630   29.8360 C.3       1 FMN401      0.0000 
     13 C8         26.8850   -8.8550   27.5300 C.ar      1 FMN401      0.0000 
     14 C8M        25.5460   -8.8660   28.2170 C.3       1 FMN401      0.0000 
     15 C9         27.0140   -8.9420   26.1250 C.ar      1 FMN401      0.0000 
     16 C9A        28.2340   -8.9030   25.5140 C.ar      1 FMN401      0.0000 
     17 N10        28.3550   -8.9280   24.1050 N.pl3     1 FMN401      0.0000 
     18 C10        29.5620   -8.9520   23.4870 C.2       1 FMN401      0.0000 
     19 C1'        27.0760   -8.9540   23.2980 C.3       1 FMN401      0.0000 
     20 C2'        26.6080  -10.4110   23.1020 C.3       1 FMN401      0.0000 
     21 O2'        27.5290  -11.1060   22.2420 O.3       1 FMN401      0.0000 
     22 C3'        25.2160  -10.4660   22.4440 C.3       1 FMN401      0.0000 
     23 O3'        25.2320   -9.7010   21.2170 O.3       1 FMN401      0.0000 
     24 C4'        24.1470   -9.8350   23.2610 C.3       1 FMN401      0.0000 
     25 O4'        24.2960  -10.1190   24.6670 O.3       1 FMN401      0.0000 
     26 C5'        23.0180  -10.6940   22.6780 C.3       1 FMN401      0.0000 
     27 O5'        21.9530  -10.7030   23.3580 O.3       1 FMN401      0.0000 
     28 P          21.3150  -11.4930   24.5860 P.3       1 FMN401      0.0000 
     29 O1P        22.2410  -11.2690   25.7590 O.co2     1 FMN401      0.0000 
     30 O2P        20.0800  -10.7140   24.6560 O.co2     1 FMN401      0.0000 
     31 O3P        21.0570  -12.9370   24.2530 O.co2     1 FMN401      0.0000 
@<TRIPOS>BOND
     1    1    2 1    
     2    1   18 2    
     3    2    3 2    
     4    2    4 am   
     5    4    5 am   
     6    5    6 2    
     7    5    7 1    
     8    7    8 2    
     9    7   18 1    
    10    8    9 1    
    11    9   10 ar   
    12    9   16 ar   
    13   10   11 ar   
    14   11   12 1    
    15   11   13 ar   
    16   13   14 1    
    17   13   15 ar   
    18   15   16 ar   
    19   16   17 1    
    20   17   18 1    
    21   17   19 1    
    22   19   20 1    
    23   20   21 1    
    24   20   22 1    
    25   22   23 1    
    26   22   24 1    
    27   24   25 1    
    28   24   26 1    
    29   26   27 1    
    30   27   28 1    
    31   28   29 ar   
    32   28   30 ar   
    33   28   31 ar   
@<TRIPOS>SUBSTRUCTURE
     1 FMN401      1 GROUP   
@<TRIPOS>SET
ATOM$ORANGE STATIC     ATOMS   COLORGROUP SYSTEM 
34 2 2 5 5 7 7 9 9 10 10 11 11 12 12 13 13 14 \
14 15 15 16 16 18 18 19 19 20 20 22 22 24 24 26 26 

