#    Name: 6c75_1_ATR
#    Modification time : Fri May 22 19:42:09 2020

@<TRIPOS>MOLECULE
6c75_1_ATR
   42    44     1     0     0
SMALL
NO_CHARGES


@<TRIPOS>ATOM
      1 PB         -6.1380   86.6810   35.5520 P.3       1 ATR1800     0.0000 
      2 O1B        -7.4190   86.6790   34.7900 O.co2     1 ATR1800     0.0000 
      3 O2B        -5.4420   85.3650   35.5050 O.co2     1 ATR1800     0.0000 
      4 O3B        -5.2580   87.8290   35.1890 O.co2     1 ATR1800     0.0000 
      5 PA         -5.5690   87.7620   38.1640 P.3       1 ATR1800     0.0000 
      6 O1A        -4.1430   87.3740   37.9740 O.co2     1 ATR1800     0.0000 
      7 O2A        -5.9440   89.2050   38.1590 O.co2     1 ATR1800     0.0000 
      8 O3A        -6.4790   86.9930   37.0880 O.3       1 ATR1800     0.0000 
      9 O5'        -6.0760   87.1240   39.5420 O.3       1 ATR1800     0.0000 
     10 C5'        -7.5000   87.0230   39.7360 C.3       1 ATR1800     0.0000 
     11 C4'        -7.8330   86.9120   41.2230 C.3       1 ATR1800     0.0000 
     12 O4'        -8.2690   85.5740   41.5210 O.3       1 ATR1800     0.0000 
     13 C3'        -6.6670   87.2580   42.1460 C.3       1 ATR1800     0.0000 
     14 O3'        -6.9690   88.4180   42.9320 O.3       1 ATR1800     0.0000 
     15 C2'        -6.4590   86.0140   43.0400 C.3       1 ATR1800     0.0000 
     16 O2'        -6.4300   86.3260   44.4170 O.3       1 ATR1800     0.0000 
     17 P2'        -5.1010   86.1060   45.2850 P.3       1 ATR1800     0.0000 
     18 O1P        -4.0320   86.7790   44.4940 O.co2     1 ATR1800     0.0000 
     19 O2P        -4.9480   84.6280   45.3880 O.co2     1 ATR1800     0.0000 
     20 O3P        -5.3740   86.7560   46.5960 O.co2     1 ATR1800     0.0000 
     21 C1'        -7.6270   85.0690   42.6730 C.3       1 ATR1800     0.0000 
     22 N9         -7.1650   83.7020   42.4080 N.pl3     1 ATR1800     0.0000 
     23 C8         -6.2560   83.3200   41.4590 C.2       1 ATR1800     0.0000 
     24 N7         -6.0370   82.0300   41.4680 N.2       1 ATR1800     0.0000 
     25 C5         -6.8630   81.5240   42.4490 C.ar      1 ATR1800     0.0000 
     26 C6         -7.0730   80.2430   42.9660 C.ar      1 ATR1800     0.0000 
     27 N6         -6.4490   79.2040   42.4450 N.pl3     1 ATR1800     0.0000 
     28 N1         -7.9280   80.1060   44.0160 N.ar      1 ATR1800     0.0000 
     29 C2         -8.5700   81.1950   44.5350 C.ar      1 ATR1800     0.0000 
     30 N3         -8.4230   82.4410   44.1110 N.ar      1 ATR1800     0.0000 
     31 C4         -7.5650   82.5680   43.0590 C.ar      1 ATR1800     0.0000 
     32 H5'1       -7.9900   87.9060   39.3180 H         1 ATR1800     0.0000 
     33 H5'2       -7.8800   86.1460   39.2090 H         1 ATR1800     0.0000 
     34 H4'        -8.6460   87.6070   41.4360 H         1 ATR1800     0.0000 
     35 H3'        -5.7680   87.4260   41.5530 H         1 ATR1800     0.0000 
     36 HO3'       -6.4630   89.1730   42.6000 H         1 ATR1800     0.0000 
     37 H2'        -5.5220   85.5360   42.7520 H         1 ATR1800     0.0000 
     38 H1'        -8.3320   85.0590   43.5040 H         1 ATR1800     0.0000 
     39 H8         -5.7850   84.0050   40.7650 H         1 ATR1800     0.0000 
     40 HN61       -5.8300   79.3300   41.7130 H         1 ATR1800     0.0000 
     41 HN62       -6.6070   78.3170   42.7950 H         1 ATR1800     0.0000 
     42 H2         -9.2630   81.0250   45.3500 H         1 ATR1800     0.0000 
@<TRIPOS>BOND
     1    1    2 ar   
     2    1    3 ar   
     3    1    4 ar   
     4    1    8 1    
     5    5    6 ar   
     6    5    7 ar   
     7    5    8 1    
     8    5    9 1    
     9    9   10 1    
    10   10   11 1    
    11   10   32 1    
    12   10   33 1    
    13   11   12 1    
    14   11   13 1    
    15   11   34 1    
    16   12   21 1    
    17   13   14 1    
    18   13   15 1    
    19   13   35 1    
    20   14   36 1    
    21   15   16 1    
    22   15   21 1    
    23   15   37 1    
    24   16   17 1    
    25   17   18 ar   
    26   17   19 ar   
    27   17   20 ar   
    28   21   22 1    
    29   21   38 1    
    30   22   23 1    
    31   22   31 1    
    32   23   24 2    
    33   23   39 1    
    34   24   25 1    
    35   25   26 ar   
    36   25   31 ar   
    37   26   27 1    
    38   26   28 ar   
    39   27   40 1    
    40   27   41 1    
    41   28   29 ar   
    42   29   30 ar   
    43   29   42 1    
    44   30   31 ar   
@<TRIPOS>SUBSTRUCTURE
     1 ATR1800     1 GROUP   
@<TRIPOS>SET

