#    Name: 6gwd_4_GDP
#    Modification time : Fri May 22 19:28:24 2020

@<TRIPOS>MOLECULE
6gwd_4_GDP
   40    42     1     0     1
SMALL
NO_CHARGES


@<TRIPOS>ATOM
      1 PB       -155.6910   -2.4290  191.2770 P.3       1 GDP600      0.0000 
      2 O1B      -154.6490   -2.7860  190.1820 O.co2     1 GDP600      0.0000 
      3 O2B      -155.1980   -1.5440  192.3490 O.co2     1 GDP600      0.0000 
      4 O3B      -156.9440   -1.8600  190.6490 O.co2     1 GDP600      0.0000 
      5 O3A      -156.1100   -3.8730  191.7840 O.3       1 GDP600      0.0000 
      6 PA       -155.2420   -5.0500  192.4030 P.3       1 GDP600      0.0000 
      7 O1A      -153.8220   -4.6350  192.4580 O.co2     1 GDP600      0.0000 
      8 O2A      -155.7950   -5.2040  193.8300 O.co2     1 GDP600      0.0000 
      9 O5'      -155.5170   -6.4270  191.5850 O.3       1 GDP600      0.0000 
     10 C5'      -156.1930   -7.6060  192.0950 C.3       1 GDP600      0.0000 
     11 C4'      -155.4420   -8.8430  191.6620 C.3       1 GDP600      0.0000 
     12 O4'      -154.0880   -8.7720  192.1540 O.3       1 GDP600      0.0000 
     13 C3'      -155.9790  -10.1670  192.1980 C.3       1 GDP600      0.0000 
     14 O3'      -155.6020  -11.2730  191.3760 O.3       1 GDP600      0.0000 
     15 C2'      -155.2830  -10.2640  193.5500 C.3       1 GDP600      0.0000 
     16 O2'      -155.1630  -11.6300  193.9240 O.3       1 GDP600      0.0000 
     17 C1'      -153.9050   -9.7060  193.2030 C.3       1 GDP600      0.0000 
     18 N9       -153.2320   -9.0320  194.3250 N.pl3     1 GDP600      0.0000 
     19 C8       -153.6020   -7.8870  194.9740 C.2       1 GDP600      0.0000 
     20 N7       -152.7400   -7.4990  195.8850 N.2       1 GDP600      0.0000 
     21 C5       -151.7480   -8.4620  195.8430 C.2       1 GDP600      0.0000 
     22 C6       -150.5620   -8.6300  196.6230 C.2       1 GDP600      0.0000 
     23 O6       -150.1570   -7.8780  197.5040 O.2       1 GDP600      0.0000 
     24 N1       -149.8820   -9.7930  196.3100 N.am      1 GDP600      0.0000 
     25 C2       -150.2860  -10.7030  195.3700 C.2       1 GDP600      0.0000 
     26 N2       -149.6100  -11.8490  195.3010 N.pl3     1 GDP600      0.0000 
     27 N3       -151.3640  -10.5400  194.6090 N.2       1 GDP600      0.0000 
     28 C4       -152.0450   -9.4170  194.8970 C.2       1 GDP600      0.0000 
     29 H5'      -156.3140   -7.5680  193.1760 H         1 GDP600      0.0000 
     30 H5''     -157.1890   -7.5490  191.6600 H         1 GDP600      0.0000 
     31 H4'      -155.3230   -8.8570  190.5800 H         1 GDP600      0.0000 
     32 H3'      -157.0590  -10.1590  192.3250 H         1 GDP600      0.0000 
     33 HO3'     -156.0840  -12.0690  191.7230 H         1 GDP600      0.0000 
     34 H2'      -155.7810   -9.6660  194.3110 H         1 GDP600      0.0000 
     35 HO2'     -156.0920  -11.9210  194.1180 H         1 GDP600      0.0000 
     36 H1'      -153.2430  -10.4790  192.8170 H         1 GDP600      0.0000 
     37 H8       -154.5300   -7.3580  194.7650 H         1 GDP600      0.0000 
     38 HN1      -149.0400   -9.9670  196.8480 H         1 GDP600      0.0000 
     39 HN21     -149.8700  -12.5500  194.6140 H         1 GDP600      0.0000 
     40 HN22     -148.8040  -12.0670  195.8770 H         1 GDP600      0.0000 
@<TRIPOS>BOND
     1    1    2 ar   
     2    1    3 ar   
     3    1    4 ar   
     4    1    5 1    
     5    5    6 1    
     6    6    7 ar   
     7    6    8 ar   
     8    6    9 1    
     9    9   10 1    
    10   10   11 1    
    11   10   29 1    
    12   10   30 1    
    13   11   12 1    
    14   11   13 1    
    15   11   31 1    
    16   12   17 1    
    17   13   14 1    
    18   13   15 1    
    19   13   32 1    
    20   14   33 1    
    21   15   16 1    
    22   15   17 1    
    23   15   34 1    
    24   16   35 1    
    25   17   18 1    
    26   17   36 1    
    27   18   19 1    
    28   18   28 1    
    29   19   20 2    
    30   19   37 1    
    31   20   21 1    
    32   21   22 1    
    33   21   28 2    
    34   22   23 2    
    35   22   24 am   
    36   24   25 1    
    37   24   38 1    
    38   25   26 1    
    39   25   27 2    
    40   26   39 1    
    41   26   40 1    
    42   27   28 1    
@<TRIPOS>SUBSTRUCTURE
     1 GDP600      1 GROUP   
@<TRIPOS>SET
ATOM$ORANGE STATIC     ATOMS   COLORGROUP SYSTEM 
20 10 10 11 11 13 13 15 15 17 17 19 19 21 21 22 22 25 \
25 28 28 

