#    Name: 6gwd_1_GTP_CAVITY_N1_8
#    Modification time : Fri May 22 19:27:53 2020

@<TRIPOS>MOLECULE
6gwd_1_GTP_CAVITY_N1_8
   96     0     7     0     0
SMALL
NO_CHARGES


@<TRIPOS>ATOM
      1 OG        -81.4100  -20.5600   92.4500 O.3       1 SER1        0.0000 
      2 OG        -81.6000  -17.5700   92.4200 O.3       1 SER1        0.0000 
      3 OG        -79.9700  -23.4700   93.3000 O.3       1 SER1        0.0000 
      4 OG        -80.0700  -21.9700   93.2900 O.3       1 SER1        0.0000 
      5 OG        -80.1600  -20.4800   93.2700 O.3       1 SER1        0.0000 
      6 OG        -80.2500  -18.9800   93.2600 O.3       1 SER1        0.0000 
      7 OG        -80.8000  -23.5100   94.5600 O.3       1 SER1        0.0000 
      8 OG        -80.8900  -22.0100   94.5400 O.3       1 SER1        0.0000 
      9 OG        -80.9800  -20.5100   94.5300 O.3       1 SER1        0.0000 
     10 OG        -78.7200  -23.3800   94.1300 O.3       1 SER1        0.0000 
     11 OG        -78.8200  -21.8900   94.1100 O.3       1 SER1        0.0000 
     12 OG        -79.7300  -20.4300   95.3500 O.3       1 SER1        0.0000 
     13 OG        -80.5600  -20.4700   96.6000 O.3       1 SER1        0.0000 
     14 OG        -77.5700  -21.8000   94.9400 O.3       1 SER1        0.0000 
     15 OG        -78.4800  -20.3400   96.1700 O.3       1 SER1        0.0000 
     16 OG        -79.3100  -20.3800   97.4300 O.3       1 SER1        0.0000 
     17 OG        -80.1300  -20.4200   98.6800 O.3       1 SER1        0.0000 
     18 OG        -76.0200  -12.6400   99.8300 O.3       1 SER1        0.0000 
     19 OG        -76.9400  -11.1800  101.0700 O.3       1 SER1        0.0000 
     20 O         -80.3100  -25.0100   91.2400 O.2       2 ALA2        0.0000 
     21 O         -82.1400  -22.1000   93.7200 O.2       2 ALA2        0.0000 
     22 O         -78.3300  -23.3900   90.8000 O.2       2 ALA2        0.0000 
     23 O         -79.0600  -24.9300   92.0600 O.2       2 ALA2        0.0000 
     24 O         -79.1500  -23.4300   92.0500 O.2       2 ALA2        0.0000 
     25 O         -79.4300  -18.9400   92.0100 O.2       2 ALA2        0.0000 
     26 N         -79.8800  -24.9700   93.3200 N.am      2 ALA2        0.0000 
     27 O         -80.3500  -17.4800   93.2400 O.2       2 ALA2        0.0000 
     28 O         -78.0900  -20.3500   92.8400 O.2       2 ALA2        0.0000 
     29 N         -78.6300  -24.8800   94.1400 N.am      2 ALA2        0.0000 
     30 O         -78.9100  -20.3900   94.1000 O.2       2 ALA2        0.0000 
     31 N         -80.6500  -18.9700   96.5900 N.am      2 ALA2        0.0000 
     32 O         -78.5800  -18.8500   96.1600 O.2       2 ALA2        0.0000 
     33 N         -77.3200  -18.7600   96.9800 N.am      2 ALA2        0.0000 
     34 N         -78.1500  -18.8000   98.2400 N.am      2 ALA2        0.0000 
     35 N         -78.8800  -20.3300   99.5100 N.am      2 ALA2        0.0000 
     36 N         -78.9700  -18.8400   99.4900 N.am      2 ALA2        0.0000 
     37 N         -76.2600  -15.6800   97.7800 N.am      2 ALA2        0.0000 
     38 N         -76.9000  -18.7100   99.0600 N.am      2 ALA2        0.0000 
     39 N         -76.9900  -17.2200   99.0500 N.am      2 ALA2        0.0000 
     40 N         -77.8100  -17.2500  100.3000 N.am      2 ALA2        0.0000 
     41 N         -79.1000   -9.8100  101.4800 N.am      2 ALA2        0.0000 
     42 N         -72.4500  -16.9700   94.8600 N.am      2 ALA2        0.0000 
     43 N         -73.3600  -15.5200   96.1000 N.am      2 ALA2        0.0000 
     44 N         -74.1900  -15.5500   97.3500 N.am      2 ALA2        0.0000 
     45 O         -74.9200  -17.0900   98.6200 O.2       2 ALA2        0.0000 
     46 N         -75.0100  -15.5900   98.6000 N.am      2 ALA2        0.0000 
     47 N         -75.7400  -17.1300   99.8700 N.am      2 ALA2        0.0000 
     48 N         -75.8300  -15.6300   99.8600 N.am      2 ALA2        0.0000 
     49 O         -71.1000  -18.3800   95.7000 O.2       2 ALA2        0.0000 
     50 O         -71.2000  -16.8900   95.6800 O.2       2 ALA2        0.0000 
     51 O         -72.0200  -16.9300   96.9300 O.2       2 ALA2        0.0000 
     52 O         -72.8400  -16.9700   98.1900 O.2       2 ALA2        0.0000 
     53 OD1       -81.1700  -17.5200   94.5000 O.co2     3 ASP3        0.0000 
     54 OD1       -79.8300  -18.9300   95.3400 O.co2     3 ASP3        0.0000 
     55 OD1       -80.7400  -17.4700   96.5700 O.co2     3 ASP3        0.0000 
     56 OD1       -78.6700  -17.3500   96.1500 O.co2     3 ASP3        0.0000 
     57 OD1       -79.4000  -18.8800   97.4100 O.co2     3 ASP3        0.0000 
     58 OD1       -79.4900  -17.3900   97.4000 O.co2     3 ASP3        0.0000 
     59 OD1       -78.2400  -17.3000   98.2200 O.co2     3 ASP3        0.0000 
     60 OD1       -78.3300  -15.8000   98.2100 O.co2     3 ASP3        0.0000 
     61 OD1       -77.0800  -15.7200   99.0300 O.co2     3 ASP3        0.0000 
     62 OD1       -77.9100  -15.7600  100.2900 O.co2     3 ASP3        0.0000 
     63 NZ        -81.1300  -25.0500   92.4900 N.4       4 LYS4        0.0000 
     64 NZ        -81.2200  -23.5600   92.4800 N.4       4 LYS4        0.0000 
     65 NZ        -77.5100  -15.7700   96.9500 N.4       4 LYS4        0.0000 
     66 NZ        -78.4300  -14.3100   98.1900 N.4       4 LYS4        0.0000 
     67 NZ        -77.1800  -14.2200   99.0200 N.4       4 LYS4        0.0000 
     68 NZ        -77.2700  -12.7200   99.0000 N.4       4 LYS4        0.0000 
     69 NZ        -78.0000  -14.2600  100.2700 N.4       4 LYS4        0.0000 
     70 NZ        -78.0900  -12.7600  100.2600 N.4       4 LYS4        0.0000 
     71 NZ        -78.1900  -11.2700  100.2400 N.4       4 LYS4        0.0000 
     72 NZ        -78.8200  -14.3000  101.5200 N.4       4 LYS4        0.0000 
     73 NZ        -78.9200  -12.8000  101.5100 N.4       4 LYS4        0.0000 
     74 NZ        -79.0100  -11.3100  101.4900 N.4       4 LYS4        0.0000 
     75 NZ        -79.8300  -11.3400  102.7500 N.4       4 LYS4        0.0000 
     76 NZ        -75.1000  -14.1000   98.5900 N.4       4 LYS4        0.0000 
     77 NZ        -75.9300  -14.1400   99.8400 N.4       4 LYS4        0.0000 
     78 NZ        -77.6700  -12.7200  102.3300 N.4       4 LYS4        0.0000 
     79 CZ        -77.0800  -23.3100   91.6200 C.ar      5 PHE5        0.0000 
     80 CZ        -77.8100  -24.8400   92.8900 C.ar      5 PHE5        0.0000 
     81 CZ        -77.9000  -23.3400   92.8700 C.ar      5 PHE5        0.0000 
     82 CZ        -77.9900  -21.8500   92.8600 C.ar      5 PHE5        0.0000 
     83 CZ        -76.7400  -21.7600   93.6800 C.ar      5 PHE5        0.0000 
     84 CA        -80.4000  -23.5200   91.2300 C.3       6 GLY6        0.0000 
     85 CA        -80.4900  -22.0200   91.2100 C.3       6 GLY6        0.0000 
     86 CA        -81.3200  -22.0600   92.4600 C.3       6 GLY6        0.0000 
     87 CA        -82.4200  -17.6100   93.6700 C.3       6 GLY6        0.0000 
     88 CA        -79.2400  -21.9300   92.0300 C.3       6 GLY6        0.0000 
     89 CA        -79.3400  -20.4400   92.0200 C.3       6 GLY6        0.0000 
     90 CA        -81.0800  -19.0200   94.5100 C.3       6 GLY6        0.0000 
     91 CA        -79.0000  -18.8900   94.0800 C.3       6 GLY6        0.0000 
     92 CA        -80.2200  -18.9200   98.6700 C.3       6 GLY6        0.0000 
     93 CA        -78.0500  -20.3000   98.2500 C.3       6 GLY6        0.0000 
     94 CA        -76.7500  -14.1700  101.0900 C.3       6 GLY6        0.0000 
     95 CA        -77.5700  -14.2100  102.3500 C.3       6 GLY6        0.0000 
     96 DU        -76.8400  -12.6800  101.0800 H         7 CUB7        0.0000 
@<TRIPOS>BOND
@<TRIPOS>SUBSTRUCTURE
     1 SER1        1 GROUP   
     2 ALA2       20 GROUP   
     3 ASP3       53 GROUP   
     4 LYS4       63 GROUP   
     5 PHE5       79 GROUP   
     6 GLY6       84 GROUP   
     7 CUB7       96 GROUP   
@<TRIPOS>SET

