#    Name: 6gwd_3_GTP
#    Modification time : Fri May 22 19:28:16 2020

@<TRIPOS>MOLECULE
6gwd_3_GTP
   44    46     1     0     1
SMALL
NO_CHARGES


@<TRIPOS>ATOM
      1 PG       -119.8110   -5.9000  174.5020 P.3       1 GTP600      0.0000 
      2 O1G      -120.8310   -5.5270  173.5680 O.co2     1 GTP600      0.0000 
      3 O2G      -120.2420   -7.0610  175.4410 O.co2     1 GTP600      0.0000 
      4 O3G      -119.2420   -4.6980  175.3030 O.co2     1 GTP600      0.0000 
      5 O3B      -118.5700   -6.4480  173.6720 O.3       1 GTP600      0.0000 
      6 PB       -117.1200   -6.8590  174.1790 P.3       1 GTP600      0.0000 
      7 O1B      -116.1210   -6.7570  173.0980 O.co2     1 GTP600      0.0000 
      8 O2B      -116.7600   -5.9660  175.3770 O.co2     1 GTP600      0.0000 
      9 O3A      -117.2730   -8.3770  174.6320 O.3       1 GTP600      0.0000 
     10 PA       -116.2680   -9.5180  175.1000 P.3       1 GTP600      0.0000 
     11 O1A      -114.8880   -9.1380  174.7270 O.co2     1 GTP600      0.0000 
     12 O2A      -116.4360   -9.5570  176.6320 O.co2     1 GTP600      0.0000 
     13 O5'      -116.6790  -10.9170  174.4160 O.3       1 GTP600      0.0000 
     14 C5'      -117.1580  -12.0770  175.1300 C.3       1 GTP600      0.0000 
     15 C4'      -116.3570  -13.2760  174.6810 C.3       1 GTP600      0.0000 
     16 O4'      -114.9580  -13.0300  174.9460 O.3       1 GTP600      0.0000 
     17 C3'      -116.6550  -14.5830  175.4010 C.3       1 GTP600      0.0000 
     18 O3'      -116.2320  -15.6810  174.5940 O.3       1 GTP600      0.0000 
     19 C2'      -115.7960  -14.4380  176.6510 C.3       1 GTP600      0.0000 
     20 O2'      -115.5370  -15.7160  177.2160 O.3       1 GTP600      0.0000 
     21 C1'      -114.5310  -13.8260  176.0400 C.3       1 GTP600      0.0000 
     22 N9       -113.7330  -12.9760  176.9510 N.pl3     1 GTP600      0.0000 
     23 C8       -114.1400  -11.8150  177.5410 C.2       1 GTP600      0.0000 
     24 N7       -113.1920  -11.2030  178.2090 N.2       1 GTP600      0.0000 
     25 C5       -112.0950  -12.0350  178.0760 C.2       1 GTP600      0.0000 
     26 C6       -110.7660  -11.9490  178.6300 C.2       1 GTP600      0.0000 
     27 O6       -110.2820  -11.0320  179.2900 O.2       1 GTP600      0.0000 
     28 N1       -110.0010  -13.0460  178.3030 N.am      1 GTP600      0.0000 
     29 C2       -110.4150  -14.0920  177.5350 C.2       1 GTP600      0.0000 
     30 N2       -109.5460  -15.0820  177.3490 N.pl3     1 GTP600      0.0000 
     31 N3       -111.6300  -14.1740  176.9980 N.2       1 GTP600      0.0000 
     32 C4       -112.4130  -13.1300  177.3090 C.2       1 GTP600      0.0000 
     33 H5'      -117.1420  -11.9220  176.2080 H         1 GTP600      0.0000 
     34 H5''     -118.2050  -12.1400  174.8360 H         1 GTP600      0.0000 
     35 H4'      -116.3790  -13.3950  173.5980 H         1 GTP600      0.0000 
     36 H3'      -117.7070  -14.7150  175.6450 H         1 GTP600      0.0000 
     37 HO3'     -116.3330  -16.4910  175.1600 H         1 GTP600      0.0000 
     38 H2'      -116.2710  -13.7520  177.3500 H         1 GTP600      0.0000 
     39 HO2'     -115.9420  -15.6850  178.1220 H         1 GTP600      0.0000 
     40 H1'      -113.8680  -14.5890  175.6350 H         1 GTP600      0.0000 
     41 H8       -115.1680  -11.4640  177.4850 H         1 GTP600      0.0000 
     42 HN1      -109.0420  -13.0160  178.6250 H         1 GTP600      0.0000 
     43 HN21     -109.7990  -15.8640  176.7560 H         1 GTP600      0.0000 
     44 HN22     -108.6360  -15.1080  177.7930 H         1 GTP600      0.0000 
@<TRIPOS>BOND
     1    1    2 ar   
     2    1    3 ar   
     3    1    4 ar   
     4    1    5 1    
     5    5    6 1    
     6    6    7 ar   
     7    6    8 ar   
     8    6    9 1    
     9    9   10 1    
    10   10   11 ar   
    11   10   12 ar   
    12   10   13 1    
    13   13   14 1    
    14   14   15 1    
    15   14   33 1    
    16   14   34 1    
    17   15   16 1    
    18   15   17 1    
    19   15   35 1    
    20   16   21 1    
    21   17   18 1    
    22   17   19 1    
    23   17   36 1    
    24   18   37 1    
    25   19   20 1    
    26   19   21 1    
    27   19   38 1    
    28   20   39 1    
    29   21   22 1    
    30   21   40 1    
    31   22   23 1    
    32   22   32 1    
    33   23   24 2    
    34   23   41 1    
    35   24   25 1    
    36   25   26 1    
    37   25   32 2    
    38   26   27 2    
    39   26   28 am   
    40   28   29 1    
    41   28   42 1    
    42   29   30 1    
    43   29   31 2    
    44   30   43 1    
    45   30   44 1    
    46   31   32 1    
@<TRIPOS>SUBSTRUCTURE
     1 GTP600      1 GROUP   
@<TRIPOS>SET
ATOM$ORANGE STATIC     ATOMS   COLORGROUP SYSTEM 
20 14 14 15 15 17 17 19 19 21 21 23 23 25 25 26 26 29 \
29 32 32 

