#    Name: 6gwd_5_GTP_CAVITY_N1_8
#    Modification time : Fri May 22 19:28:41 2020

@<TRIPOS>MOLECULE
6gwd_5_GTP_CAVITY_N1_8
   37     0     5     0     0
SMALL
NO_CHARGES


@<TRIPOS>ATOM
      1 OG       -212.0200   -8.2300  188.3700 O.3       1 SER1        0.0000 
      2 OG       -212.1200   -6.7300  188.3600 O.3       1 SER1        0.0000 
      3 N        -213.7300   -8.4100  180.0600 N.am      2 ALA2        0.0000 
      4 N        -212.3000  -11.3200  180.9100 N.am      2 ALA2        0.0000 
      5 N        -212.3900   -9.8200  180.9000 N.am      2 ALA2        0.0000 
      6 N        -212.4800   -8.3300  180.8800 N.am      2 ALA2        0.0000 
      7 N        -213.2100   -9.8600  182.1500 N.am      2 ALA2        0.0000 
      8 O        -211.1400   -9.7400  181.7200 O.2       2 ALA2        0.0000 
      9 O        -211.2300   -8.2400  181.7100 O.2       2 ALA2        0.0000 
     10 N        -211.9600   -9.7800  182.9800 N.am      2 ALA2        0.0000 
     11 N        -212.6900  -11.3100  184.2400 N.am      2 ALA2        0.0000 
     12 N        -212.7900   -9.8200  184.2300 N.am      2 ALA2        0.0000 
     13 N        -213.0700   -5.3300  184.1900 N.am      2 ALA2        0.0000 
     14 N        -211.4400  -11.2300  185.0700 N.am      2 ALA2        0.0000 
     15 N        -211.0100  -11.1800  187.1500 N.am      2 ALA2        0.0000 
     16 CZ       -211.7200   -6.7400  185.0200 C.ar      3 PHE5        0.0000 
     17 CZ       -212.5400   -6.7800  186.2800 C.ar      3 PHE5        0.0000 
     18 CZ       -211.2900   -6.6900  187.1000 C.ar      3 PHE5        0.0000 
     19 CA       -212.5800   -6.8300  180.8700 C.3       4 GLY6        0.0000 
     20 CA       -213.4000   -6.8700  182.1200 C.3       4 GLY6        0.0000 
     21 CA       -213.4900   -5.3700  182.1100 C.3       4 GLY6        0.0000 
     22 CA       -212.1500   -6.7800  182.9500 C.3       4 GLY6        0.0000 
     23 CA       -213.7000   -8.3600  185.4700 C.3       4 GLY6        0.0000 
     24 CA       -210.8100   -8.1900  183.7900 C.3       4 GLY6        0.0000 
     25 CA       -211.5400   -9.7300  185.0500 C.3       4 GLY6        0.0000 
     26 CA       -211.6300   -8.2300  185.0400 C.3       4 GLY6        0.0000 
     27 CA       -212.3600   -9.7700  186.3100 C.3       4 GLY6        0.0000 
     28 CA       -212.4500   -8.2700  186.2900 C.3       4 GLY6        0.0000 
     29 CA       -211.1100   -9.6800  187.1300 C.3       4 GLY6        0.0000 
     30 CA       -211.2000   -8.1900  187.1200 C.3       4 GLY6        0.0000 
     31 DU       -213.3100   -8.3700  182.1400 H         5 CUB7        0.0000 
     32 DU       -214.1300   -8.4100  183.3900 H         5 CUB7        0.0000 
     33 DU       -214.2200   -6.9100  183.3800 H         5 CUB7        0.0000 
     34 DU       -212.0600   -8.2800  182.9600 H         5 CUB7        0.0000 
     35 DU       -212.8800   -8.3200  184.2200 H         5 CUB7        0.0000 
     36 DU       -212.9700   -6.8200  184.2000 H         5 CUB7        0.0000 
     37 DU       -213.8000   -6.8600  185.4500 H         5 CUB7        0.0000 
@<TRIPOS>BOND
@<TRIPOS>SUBSTRUCTURE
     1 SER1        1 GROUP   
     2 ALA2        3 GROUP   
     3 PHE5       16 GROUP   
     4 GLY6       19 GROUP   
     5 CUB7       31 GROUP   
@<TRIPOS>SET

