#    Name: 6gwd_5_GTP
#    Modification time : Fri May 22 19:28:39 2020

@<TRIPOS>MOLECULE
6gwd_5_GTP
   44    46     1     0     1
SMALL
NO_CHARGES


@<TRIPOS>ATOM
      1 PG       -205.9210    2.5500  177.7220 P.3       1 GTP600      0.0000 
      2 O1G      -205.6670    2.5670  176.2460 O.co2     1 GTP600      0.0000 
      3 O2G      -206.9150    1.4550  178.1100 O.co2     1 GTP600      0.0000 
      4 O3G      -206.4110    3.8810  178.2840 O.co2     1 GTP600      0.0000 
      5 O3B      -204.5840    2.2270  178.5290 O.3       1 GTP600      0.0000 
      6 PB       -204.2740    1.7620  180.0230 P.3       1 GTP600      0.0000 
      7 O1B      -202.8270    1.8460  180.3350 O.co2     1 GTP600      0.0000 
      8 O2B      -205.1160    2.5890  180.9930 O.co2     1 GTP600      0.0000 
      9 O3A      -204.7250    0.2370  180.0500 O.3       1 GTP600      0.0000 
     10 PA       -204.6190   -0.9470  181.1110 P.3       1 GTP600      0.0000 
     11 O1A      -205.9980   -1.0080  181.7630 O.co2     1 GTP600      0.0000 
     12 O2A      -203.6190   -0.5980  182.1470 O.co2     1 GTP600      0.0000 
     13 O5'      -204.3650   -2.3030  180.2970 O.3       1 GTP600      0.0000 
     14 C5'      -205.2470   -3.4390  180.3350 C.3       1 GTP600      0.0000 
     15 C4'      -204.4810   -4.6110  180.8950 C.3       1 GTP600      0.0000 
     16 O4'      -204.0690   -4.3280  182.2530 O.3       1 GTP600      0.0000 
     17 C3'      -205.2950   -5.8890  181.0040 C.3       1 GTP600      0.0000 
     18 O3'      -204.3860   -6.9800  181.0140 O.3       1 GTP600      0.0000 
     19 C2'      -205.9720   -5.6950  182.3540 C.3       1 GTP600      0.0000 
     20 O2'      -206.4240   -6.9000  182.9460 O.3       1 GTP600      0.0000 
     21 C1'      -204.8000   -5.1450  183.1540 C.3       1 GTP600      0.0000 
     22 N9       -205.2040   -4.3420  184.3370 N.pl3     1 GTP600      0.0000 
     23 C8       -205.9450   -3.1930  184.3390 C.2       1 GTP600      0.0000 
     24 N7       -206.0800   -2.6550  185.5290 N.2       1 GTP600      0.0000 
     25 C5       -205.3890   -3.5130  186.3700 C.2       1 GTP600      0.0000 
     26 C6       -205.1050   -3.4470  187.7960 C.2       1 GTP600      0.0000 
     27 O6       -205.4210   -2.5600  188.5920 O.2       1 GTP600      0.0000 
     28 N1       -204.3320   -4.5070  188.2180 N.am      1 GTP600      0.0000 
     29 C2       -203.8870   -5.5260  187.4220 C.2       1 GTP600      0.0000 
     30 N2       -203.3360   -6.5770  188.0360 N.pl3     1 GTP600      0.0000 
     31 N3       -204.1040   -5.5810  186.1090 N.2       1 GTP600      0.0000 
     32 C4       -204.8550   -4.5610  185.6520 C.2       1 GTP600      0.0000 
     33 H5'      -206.1720   -3.2280  180.8680 H         1 GTP600      0.0000 
     34 H5''     -205.5190   -3.5820  179.2900 H         1 GTP600      0.0000 
     35 H4'      -203.5300   -4.7620  180.3860 H         1 GTP600      0.0000 
     36 H3'      -206.0070   -6.0210  180.1900 H         1 GTP600      0.0000 
     37 HO3'     -204.9430   -7.7970  181.1070 H         1 GTP600      0.0000 
     38 H2'      -206.7730   -4.9610  182.2690 H         1 GTP600      0.0000 
     39 HO2'     -207.4120   -6.8130  183.0030 H         1 GTP600      0.0000 
     40 H1'      -204.1230   -5.9260  183.4950 H         1 GTP600      0.0000 
     41 H8       -206.3860   -2.7890  183.4310 H         1 GTP600      0.0000 
     42 HN1      -204.0420   -4.4690  189.1890 H         1 GTP600      0.0000 
     43 HN21     -202.9630   -7.3430  187.4840 H         1 GTP600      0.0000 
     44 HN22     -203.3440   -6.6720  189.0440 H         1 GTP600      0.0000 
@<TRIPOS>BOND
     1    1    2 ar   
     2    1    3 ar   
     3    1    4 ar   
     4    1    5 1    
     5    5    6 1    
     6    6    7 ar   
     7    6    8 ar   
     8    6    9 1    
     9    9   10 1    
    10   10   11 ar   
    11   10   12 ar   
    12   10   13 1    
    13   13   14 1    
    14   14   15 1    
    15   14   33 1    
    16   14   34 1    
    17   15   16 1    
    18   15   17 1    
    19   15   35 1    
    20   16   21 1    
    21   17   18 1    
    22   17   19 1    
    23   17   36 1    
    24   18   37 1    
    25   19   20 1    
    26   19   21 1    
    27   19   38 1    
    28   20   39 1    
    29   21   22 1    
    30   21   40 1    
    31   22   23 1    
    32   22   32 1    
    33   23   24 2    
    34   23   41 1    
    35   24   25 1    
    36   25   26 1    
    37   25   32 2    
    38   26   27 2    
    39   26   28 am   
    40   28   29 1    
    41   28   42 1    
    42   29   30 1    
    43   29   31 2    
    44   30   43 1    
    45   30   44 1    
    46   31   32 1    
@<TRIPOS>SUBSTRUCTURE
     1 GTP600      1 GROUP   
@<TRIPOS>SET
ATOM$ORANGE STATIC     ATOMS   COLORGROUP SYSTEM 
20 14 14 15 15 17 17 19 19 21 21 23 23 25 25 26 26 29 \
29 32 32 

