#    Name: 6gwd_6_GDP_CAVITY_N1_ALL
#    Modification time : Fri May 22 19:28:49 2020

@<TRIPOS>MOLECULE
6gwd_6_GDP_CAVITY_N1_ALL
   82     0     6     0     0
SMALL
NO_CHARGES


@<TRIPOS>ATOM
      1 OG       -242.3600    0.0700  154.3500 O.3       1 SER1        0.0000 
      2 OG       -243.0900   -1.4600  155.6200 O.3       1 SER1        0.0000 
      3 OG       -243.1800    0.0300  155.6000 O.3       1 SER1        0.0000 
      4 OG       -241.1100    0.1600  155.1700 O.3       1 SER1        0.0000 
      5 OG       -241.9300    0.1200  156.4300 O.3       1 SER1        0.0000 
      6 OG       -242.7500    0.0800  157.6800 O.3       1 SER1        0.0000 
      7 OG       -240.5900   -1.2900  157.2600 O.3       1 SER1        0.0000 
      8 OG       -240.6800    0.2100  157.2500 O.3       1 SER1        0.0000 
      9 OG       -241.5000    0.1700  158.5000 O.3       1 SER1        0.0000 
     10 OG       -237.9700    3.3600  155.5400 O.3       1 SER1        0.0000 
     11 OG       -238.0600    4.8600  155.5200 O.3       1 SER1        0.0000 
     12 OG       -238.7000    1.8300  156.8100 O.3       1 SER1        0.0000 
     13 OG       -238.7900    3.3300  156.7900 O.3       1 SER1        0.0000 
     14 N        -241.5300    0.1100  153.0900 N.am      2 ALA2        0.0000 
     15 N        -242.0000    7.6000  153.0200 N.am      2 ALA2        0.0000 
     16 O        -242.0900    9.0900  153.0100 O.2       2 ALA2        0.0000 
     17 O        -239.9300    7.7200  152.5900 O.2       2 ALA2        0.0000 
     18 O        -240.6600    6.1900  153.8600 O.2       2 ALA2        0.0000 
     19 N        -240.7500    7.6800  153.8500 N.am      2 ALA2        0.0000 
     20 N        -241.2000    1.6600  155.1600 N.am      2 ALA2        0.0000 
     21 O        -241.2900    3.1500  155.1400 O.2       2 ALA2        0.0000 
     22 O        -241.3900    4.6500  155.1300 O.2       2 ALA2        0.0000 
     23 O        -242.1200    3.1100  156.4000 O.2       2 ALA2        0.0000 
     24 O        -238.5800    6.3100  153.4300 O.2       2 ALA2        0.0000 
     25 N        -239.4100    6.2700  154.6800 N.am      2 ALA2        0.0000 
     26 O        -237.7800    0.3700  155.5700 O.2       2 ALA2        0.0000 
     27 O        -237.8800    1.8700  155.5500 O.2       2 ALA2        0.0000 
     28 O        -238.4200   -2.6600  156.8500 O.2       2 ALA2        0.0000 
     29 O        -238.5100   -1.1700  156.8300 O.2       2 ALA2        0.0000 
     30 O        -238.8900    4.8200  156.7800 O.2       2 ALA2        0.0000 
     31 O        -239.3400   -1.2000  158.0900 O.2       2 ALA2        0.0000 
     32 O        -239.6200    3.2900  158.0400 O.2       2 ALA2        0.0000 
     33 O        -241.2600    3.2100  160.5500 O.2       2 ALA2        0.0000 
     34 N        -238.9100   -1.1600  160.1700 N.am      2 ALA2        0.0000 
     35 O        -241.4700    0.2200  163.9100 O.2       2 ALA2        0.0000 
     36 N        -238.3900   -2.6100  162.2600 N.am      2 ALA2        0.0000 
     37 N        -238.4800   -1.1100  162.2400 N.am      2 ALA2        0.0000 
     38 NZ       -240.2800    0.2000  153.9200 N.4       3 LYS4        0.0000 
     39 NZ       -239.0300    0.2800  154.7400 N.4       3 LYS4        0.0000 
     40 NZ       -239.7600   -1.2500  156.0100 N.4       3 LYS4        0.0000 
     41 NZ       -237.6900   -1.1300  155.5800 N.4       3 LYS4        0.0000 
     42 CZ       -242.8500    1.5800  157.6600 C.ar      4 PHE5        0.0000 
     43 CZ       -242.4200    1.6300  159.7400 C.ar      4 PHE5        0.0000 
     44 CZ       -243.2400    1.5900  160.9900 C.ar      4 PHE5        0.0000 
     45 CZ       -244.0700    1.5500  162.2500 C.ar      4 PHE5        0.0000 
     46 CZ       -240.1600   -1.2400  159.3400 C.ar      4 PHE5        0.0000 
     47 CZ       -241.0800    0.2100  160.5800 C.ar      4 PHE5        0.0000 
     48 CZ       -241.9000    0.1800  161.8300 C.ar      4 PHE5        0.0000 
     49 CZ       -239.7300   -1.2000  161.4200 C.ar      4 PHE5        0.0000 
     50 CZ       -240.5500   -1.2400  162.6700 C.ar      4 PHE5        0.0000 
     51 CA       -241.0100   -1.3400  155.1900 C.3       5 GLY6        0.0000 
     52 CA       -239.1300    1.7800  154.7300 C.3       5 GLY6        0.0000 
     53 CA       -239.2200    3.2800  154.7100 C.3       5 GLY6        0.0000 
     54 CA       -239.3100    4.7800  154.7000 C.3       5 GLY6        0.0000 
     55 CA       -239.6700   -2.7500  156.0300 C.3       5 GLY6        0.0000 
     56 CA       -240.0400    3.2400  155.9700 C.3       5 GLY6        0.0000 
     57 CA       -240.1400    4.7400  155.9500 C.3       5 GLY6        0.0000 
     58 CA       -240.8700    3.2000  157.2200 C.3       5 GLY6        0.0000 
     59 CA       -241.6900    3.1600  158.4700 C.3       5 GLY6        0.0000 
     60 CA       -242.5100    3.1200  159.7300 C.3       5 GLY6        0.0000 
     61 CA       -243.3400    3.0800  160.9800 C.3       5 GLY6        0.0000 
     62 CA       -244.1600    3.0400  162.2300 C.3       5 GLY6        0.0000 
     63 CA       -237.6000   -2.6200  155.6000 C.3       5 GLY6        0.0000 
     64 CA       -238.1600    6.3600  155.5100 C.3       5 GLY6        0.0000 
     65 CA       -238.6100    0.3300  156.8200 C.3       5 GLY6        0.0000 
     66 CA       -239.4300    0.2900  158.0700 C.3       5 GLY6        0.0000 
     67 CA       -239.5200    1.7900  158.0600 C.3       5 GLY6        0.0000 
     68 CA       -240.2500    0.2500  159.3300 C.3       5 GLY6        0.0000 
     69 CA       -240.3500    1.7500  159.3100 C.3       5 GLY6        0.0000 
     70 CA       -241.1700    1.7100  160.5700 C.3       5 GLY6        0.0000 
     71 CA       -241.9900    1.6700  161.8200 C.3       5 GLY6        0.0000 
     72 CA       -242.0900    3.1700  161.8000 C.3       5 GLY6        0.0000 
     73 CA       -242.8100    1.6300  163.0700 C.3       5 GLY6        0.0000 
     74 CA       -237.2600   -1.0800  157.6600 C.3       5 GLY6        0.0000 
     75 CA       -238.0900   -1.1200  158.9100 C.3       5 GLY6        0.0000 
     76 CA       -239.8300    0.3000  161.4000 C.3       5 GLY6        0.0000 
     77 CA       -240.7400    1.7600  162.6400 C.3       5 GLY6        0.0000 
     78 DU       -242.0200    1.6200  156.4100 H         6 CUB7        0.0000 
     79 DU       -239.8600    0.2500  156.0000 H         6 CUB7        0.0000 
     80 DU       -239.9500    1.7400  155.9800 H         6 CUB7        0.0000 
     81 DU       -240.7700    1.7000  157.2300 H         6 CUB7        0.0000 
     82 DU       -241.6000    1.6600  158.4900 H         6 CUB7        0.0000 
@<TRIPOS>BOND
@<TRIPOS>SUBSTRUCTURE
     1 SER1        1 GROUP   
     2 ALA2       14 GROUP   
     3 LYS4       38 GROUP   
     4 PHE5       42 GROUP   
     5 GLY6       51 GROUP   
     6 CUB7       78 GROUP   
@<TRIPOS>SET

