#    Name: 6gwd_3_GTP_CAVITY_N1_12
#    Modification time : Fri May 22 19:28:18 2020

@<TRIPOS>MOLECULE
6gwd_3_GTP_CAVITY_N1_12
   80     0     7     0     0
SMALL
NO_CHARGES


@<TRIPOS>ATOM
      1 OG       -120.6800  -10.1500  178.2800 O.3       1 SER1        0.0000 
      2 OG       -116.0500  -11.4000  174.1100 O.3       1 SER1        0.0000 
      3 OG       -116.2300   -8.4100  174.0800 O.3       1 SER1        0.0000 
      4 OG       -117.6000  -12.9800  176.6300 O.3       1 SER1        0.0000 
      5 OG       -117.6900  -11.4800  176.6100 O.3       1 SER1        0.0000 
      6 OG       -117.7900   -9.9800  176.6000 O.3       1 SER1        0.0000 
      7 OG       -118.6100  -10.0200  177.8500 O.3       1 SER1        0.0000 
      8 OG       -114.8900   -9.8200  174.9200 O.3       1 SER1        0.0000 
      9 OG       -115.4300  -14.3500  176.2100 O.3       1 SER1        0.0000 
     10 OG       -115.5300  -12.8500  176.2000 O.3       1 SER1        0.0000 
     11 OG       -116.3500  -12.8900  177.4500 O.3       1 SER1        0.0000 
     12 OG       -114.1800  -14.2600  177.0400 O.3       1 SER1        0.0000 
     13 OG       -114.2800  -12.7700  177.0200 O.3       1 SER1        0.0000 
     14 O        -119.6500   -7.1200  173.6700 O.2       2 ALA2        0.0000 
     15 O        -120.4700   -7.1600  174.9200 O.2       2 ALA2        0.0000 
     16 O        -117.2000  -12.9900  173.3000 O.2       2 ALA2        0.0000 
     17 O        -117.5800   -7.0000  173.2400 O.2       2 ALA2        0.0000 
     18 O        -118.1200  -11.5300  174.5400 O.2       2 ALA2        0.0000 
     19 N        -119.0400  -10.0700  175.7800 N.am      2 ALA2        0.0000 
     20 N        -119.1300   -8.5700  175.7600 N.am      2 ALA2        0.0000 
     21 N        -119.8600  -10.1100  177.0300 N.am      2 ALA2        0.0000 
     22 N        -119.9500   -8.6100  177.0100 N.am      2 ALA2        0.0000 
     23 O        -116.3300   -6.9100  174.0600 O.2       2 ALA2        0.0000 
     24 O        -116.8700  -11.4400  175.3600 O.2       2 ALA2        0.0000 
     25 O        -114.5200  -15.8100  174.9700 O.2       2 ALA2        0.0000 
     26 O        -114.9800   -8.3200  174.9000 O.2       2 ALA2        0.0000 
     27 O        -115.3400  -15.8500  176.2300 O.2       2 ALA2        0.0000 
     28 O        -116.4400  -11.3900  177.4400 O.2       2 ALA2        0.0000 
     29 O        -116.5400   -9.9000  177.4200 O.2       2 ALA2        0.0000 
     30 O        -117.3600   -9.9400  178.6800 O.2       2 ALA2        0.0000 
     31 O        -113.3600  -14.2200  175.7800 O.2       2 ALA2        0.0000 
     32 O        -114.3700  -11.2700  177.0100 O.2       2 ALA2        0.0000 
     33 O        -115.1900  -11.3100  178.2600 O.2       2 ALA2        0.0000 
     34 O        -112.1100  -14.1400  176.6100 O.2       2 ALA2        0.0000 
     35 O        -113.1200  -11.1800  177.8300 O.2       2 ALA2        0.0000 
     36 O        -110.8600  -14.0500  177.4300 O.2       2 ALA2        0.0000 
     37 O        -112.6900  -11.1400  179.9100 O.2       2 ALA2        0.0000 
     38 N        -109.7000  -12.4700  178.2400 N.am      2 ALA2        0.0000 
     39 O        -110.5200  -12.5100  179.4900 O.2       2 ALA2        0.0000 
     40 O        -110.6200  -11.0100  179.4800 O.2       2 ALA2        0.0000 
     41 OD1      -118.4000   -7.0400  174.4900 O.co2     3 ASP3        0.0000 
     42 OD1      -119.2200   -7.0800  175.7500 O.co2     3 ASP3        0.0000 
     43 OD1      -120.0500   -7.1100  177.0000 O.co2     3 ASP3        0.0000 
     44 OD1      -117.0600   -8.4500  175.3300 O.co2     3 ASP3        0.0000 
     45 OD1      -117.1500   -6.9500  175.3200 O.co2     3 ASP3        0.0000 
     46 OD1      -117.8800   -8.4900  176.5800 O.co2     3 ASP3        0.0000 
     47 OD1      -118.7000   -8.5300  177.8400 O.co2     3 ASP3        0.0000 
     48 OD1      -119.5300   -8.5600  179.0900 O.co2     3 ASP3        0.0000 
     49 NZ       -117.1100  -14.4800  173.3100 N.4       4 LYS4        0.0000 
     50 NZ       -115.7700  -15.8900  174.1500 N.4       4 LYS4        0.0000 
     51 NZ       -115.8600  -14.4000  174.1400 N.4       4 LYS4        0.0000 
     52 NZ       -116.5900  -15.9300  175.4000 N.4       4 LYS4        0.0000 
     53 NZ       -116.6800  -14.4400  175.3900 N.4       4 LYS4        0.0000 
     54 NZ       -116.7800  -12.9400  175.3800 N.4       4 LYS4        0.0000 
     55 CZ       -112.9300  -14.1800  177.8600 C.ar      5 PHE5        0.0000 
     56 CZ       -113.0200  -12.6800  177.8500 C.ar      5 PHE5        0.0000 
     57 CZ       -111.6800  -14.0900  178.6900 C.ar      5 PHE5        0.0000 
     58 CZ       -111.7700  -12.5900  178.6700 C.ar      5 PHE5        0.0000 
     59 CZ       -111.4400  -11.0500  180.7300 C.ar      5 PHE5        0.0000 
     60 CA       -118.3100   -8.5300  174.5100 C.3       6 GLY6        0.0000 
     61 CA       -115.0400  -14.3600  172.8800 C.3       6 GLY6        0.0000 
     62 CA       -115.9500  -12.9000  174.1200 C.3       6 GLY6        0.0000 
     63 CA       -116.9600   -9.9400  175.3500 C.3       6 GLY6        0.0000 
     64 CA       -119.4300  -10.0600  179.1100 C.3       6 GLY6        0.0000 
     65 CA       -113.7900  -14.2700  173.7100 C.3       6 GLY6        0.0000 
     66 CA       -114.6100  -14.3100  174.9600 C.3       6 GLY6        0.0000 
     67 CA       -114.7000  -12.8100  174.9500 C.3       6 GLY6        0.0000 
     68 CA       -114.8000  -11.3200  174.9300 C.3       6 GLY6        0.0000 
     69 CA       -115.7100   -9.8600  176.1700 C.3       6 GLY6        0.0000 
     70 CA       -115.8100   -8.3600  176.1600 C.3       6 GLY6        0.0000 
     71 CA       -116.6300   -8.4000  177.4100 C.3       6 GLY6        0.0000 
     72 CA       -117.2600  -11.4300  178.6900 C.3       6 GLY6        0.0000 
     73 CA       -113.4500  -12.7300  175.7700 C.3       6 GLY6        0.0000 
     74 CA       -114.4600   -9.7700  176.9900 C.3       6 GLY6        0.0000 
     75 CA       -112.2000  -12.6400  176.5900 C.3       6 GLY6        0.0000 
     76 CA       -110.0300  -14.0100  176.1800 C.3       6 GLY6        0.0000 
     77 CA       -110.1300  -12.5200  176.1600 C.3       6 GLY6        0.0000 
     78 CA       -110.9500  -12.5600  177.4200 C.3       6 GLY6        0.0000 
     79 CA       -111.8700  -11.1000  178.6600 C.3       6 GLY6        0.0000 
     80 DU       -115.6200  -11.3600  176.1800 H         7 CUB7        0.0000 
@<TRIPOS>BOND
@<TRIPOS>SUBSTRUCTURE
     1 SER1        1 GROUP   
     2 ALA2       14 GROUP   
     3 ASP3       41 GROUP   
     4 LYS4       49 GROUP   
     5 PHE5       55 GROUP   
     6 GLY6       60 GROUP   
     7 CUB7       80 GROUP   
@<TRIPOS>SET

