#    Name: 6gwd_1_GTP
#    Modification time : Fri May 22 19:27:51 2020

@<TRIPOS>MOLECULE
6gwd_1_GTP
   44    46     1     0     1
SMALL
NO_CHARGES


@<TRIPOS>ATOM
      1 PG        -82.7270  -15.4490   95.9760 P.3       1 GTP600      0.0000 
      2 O1G       -81.8580  -14.2100   95.9330 O.co2     1 GTP600      0.0000 
      3 O2G       -81.9080  -16.5070   96.6780 O.co2     1 GTP600      0.0000 
      4 O3G       -84.0310  -15.2630   96.5970 O.co2     1 GTP600      0.0000 
      5 O3B       -82.8500  -15.9120   94.4560 O.3       1 GTP600      0.0000 
      6 PB        -81.7370  -16.4560   93.4540 P.3       1 GTP600      0.0000 
      7 O1B       -82.2290  -16.4430   92.0550 O.co2     1 GTP600      0.0000 
      8 O2B       -80.4900  -15.5980   93.6250 O.co2     1 GTP600      0.0000 
      9 O3A       -81.3910  -17.9420   93.9190 O.3       1 GTP600      0.0000 
     10 PA        -80.4900  -19.1280   93.3570 P.3       1 GTP600      0.0000 
     11 O1A       -80.1890  -18.8410   91.9340 O.co2     1 GTP600      0.0000 
     12 O2A       -79.2170  -19.1290   94.2160 O.co2     1 GTP600      0.0000 
     13 O5'       -81.2940  -20.5460   93.4960 O.3       1 GTP600      0.0000 
     14 C5'       -80.8410  -21.7100   94.2220 C.3       1 GTP600      0.0000 
     15 C4'       -80.8670  -22.9210   93.3180 C.3       1 GTP600      0.0000 
     16 O4'       -80.0570  -22.6700   92.1440 O.3       1 GTP600      0.0000 
     17 C3'       -80.2740  -24.1890   93.9230 C.3       1 GTP600      0.0000 
     18 O3'       -80.7860  -25.3450   93.2630 O.3       1 GTP600      0.0000 
     19 C2'       -78.7910  -23.9890   93.6310 C.3       1 GTP600      0.0000 
     20 O2'       -78.0350  -25.1870   93.6990 O.3       1 GTP600      0.0000 
     21 C1'       -78.8770  -23.4610   92.1970 C.3       1 GTP600      0.0000 
     22 N9        -77.7260  -22.6230   91.7990 N.pl3     1 GTP600      0.0000 
     23 C8        -77.2790  -21.5130   92.4730 C.2       1 GTP600      0.0000 
     24 N7        -76.2130  -20.9610   91.9440 N.2       1 GTP600      0.0000 
     25 C5        -75.9290  -21.7590   90.8490 C.2       1 GTP600      0.0000 
     26 C6        -74.8540  -21.7080   89.9130 C.2       1 GTP600      0.0000 
     27 O6        -73.9310  -20.8920   89.8780 O.2       1 GTP600      0.0000 
     28 N1        -74.9200  -22.7370   88.9930 N.am      1 GTP600      0.0000 
     29 C2        -75.8830  -23.7130   88.9570 C.2       1 GTP600      0.0000 
     30 N2        -75.7120  -24.6860   88.0660 N.pl3     1 GTP600      0.0000 
     31 N3        -76.9020  -23.7740   89.8160 N.2       1 GTP600      0.0000 
     32 C4        -76.8630  -22.7860   90.7370 C.2       1 GTP600      0.0000 
     33 H5'       -79.8720  -21.5330   94.6840 H         1 GTP600      0.0000 
     34 H5''      -81.5620  -21.7880   95.0350 H         1 GTP600      0.0000 
     35 H4'       -81.8560  -23.0950   92.8970 H         1 GTP600      0.0000 
     36 H3'       -80.5020  -24.3010   94.9800 H         1 GTP600      0.0000 
     37 HO3'      -80.2690  -26.1150   93.6150 H         1 GTP600      0.0000 
     38 H2'       -78.3910  -23.2370   94.3090 H         1 GTP600      0.0000 
     39 HO2'      -77.6970  -25.2290   94.6320 H         1 GTP600      0.0000 
     40 H1'       -78.9810  -24.2600   91.4640 H         1 GTP600      0.0000 
     41 H8        -77.7640  -21.1330   93.3700 H         1 GTP600      0.0000 
     42 HN1       -74.1980  -22.7210   88.2810 H         1 GTP600      0.0000 
     43 HN21      -76.4110  -25.4140   87.9650 H         1 GTP600      0.0000 
     44 HN22      -74.8510  -24.7730   87.5370 H         1 GTP600      0.0000 
@<TRIPOS>BOND
     1    1    2 ar   
     2    1    3 ar   
     3    1    4 ar   
     4    1    5 1    
     5    5    6 1    
     6    6    7 ar   
     7    6    8 ar   
     8    6    9 1    
     9    9   10 1    
    10   10   11 ar   
    11   10   12 ar   
    12   10   13 1    
    13   13   14 1    
    14   14   15 1    
    15   14   33 1    
    16   14   34 1    
    17   15   16 1    
    18   15   17 1    
    19   15   35 1    
    20   16   21 1    
    21   17   18 1    
    22   17   19 1    
    23   17   36 1    
    24   18   37 1    
    25   19   20 1    
    26   19   21 1    
    27   19   38 1    
    28   20   39 1    
    29   21   22 1    
    30   21   40 1    
    31   22   23 1    
    32   22   32 1    
    33   23   24 2    
    34   23   41 1    
    35   24   25 1    
    36   25   26 1    
    37   25   32 2    
    38   26   27 2    
    39   26   28 am   
    40   28   29 1    
    41   28   42 1    
    42   29   30 1    
    43   29   31 2    
    44   30   43 1    
    45   30   44 1    
    46   31   32 1    
@<TRIPOS>SUBSTRUCTURE
     1 GTP600      1 GROUP   
@<TRIPOS>SET
ATOM$ORANGE STATIC     ATOMS   COLORGROUP SYSTEM 
20 14 14 15 15 17 17 19 19 21 21 23 23 25 25 26 26 29 \
29 32 32 

