#    Name: 6gwd_4_GDP_CAVITY_N1_12
#    Modification time : Fri May 22 19:28:26 2020

@<TRIPOS>MOLECULE
6gwd_4_GDP_CAVITY_N1_12
   89     0     6     0     0
SMALL
NO_CHARGES


@<TRIPOS>ATOM
      1 OG       -159.9000   -7.9300  193.8800 O.3       1 SER1        0.0000 
      2 OG       -157.7300   -9.3000  193.4700 O.3       1 SER1        0.0000 
      3 OG       -158.5600   -9.3400  194.7200 O.3       1 SER1        0.0000 
      4 OG       -158.6500   -7.8400  194.7100 O.3       1 SER1        0.0000 
      5 OG       -154.9300   -7.6400  191.7700 O.3       1 SER1        0.0000 
      6 OG       -155.0200   -6.1400  191.7600 O.3       1 SER1        0.0000 
      7 OG       -156.3900  -10.7100  194.3100 O.3       1 SER1        0.0000 
      8 OG       -156.4800   -9.2200  194.2900 O.3       1 SER1        0.0000 
      9 OG       -157.3100   -9.2600  195.5500 O.3       1 SER1        0.0000 
     10 OG       -153.7700   -6.0600  192.5800 O.3       1 SER1        0.0000 
     11 OG       -155.2300   -9.1300  195.1200 O.3       1 SER1        0.0000 
     12 N        -158.2600   -7.8500  191.3800 N.am      2 ALA2        0.0000 
     13 N        -159.0800   -7.8900  192.6300 N.am      2 ALA2        0.0000 
     14 N        -159.9900   -6.4300  193.8700 N.am      2 ALA2        0.0000 
     15 N        -157.1000   -6.2700  192.1900 N.am      2 ALA2        0.0000 
     16 N        -157.8300   -7.8100  193.4600 N.am      2 ALA2        0.0000 
     17 N        -157.9200   -6.3100  193.4400 N.am      2 ALA2        0.0000 
     18 N        -158.7400   -6.3500  194.6900 N.am      2 ALA2        0.0000 
     19 O        -154.6500  -12.1300  191.8200 O.2       2 ALA2        0.0000 
     20 O        -154.7400  -10.6400  191.8000 O.2       2 ALA2        0.0000 
     21 O        -155.4700  -12.1700  193.0700 O.2       2 ALA2        0.0000 
     22 O        -155.5700  -10.6700  193.0500 O.2       2 ALA2        0.0000 
     23 O        -155.8500   -6.1800  193.0100 O.2       2 ALA2        0.0000 
     24 O        -156.6700   -6.2200  194.2600 O.2       2 ALA2        0.0000 
     25 O        -157.4000   -7.7600  195.5300 O.2       2 ALA2        0.0000 
     26 O        -157.4900   -6.2600  195.5200 O.2       2 ALA2        0.0000 
     27 O        -153.4900  -10.5500  192.6300 O.2       2 ALA2        0.0000 
     28 O        -154.3200  -10.5900  193.8800 O.2       2 ALA2        0.0000 
     29 O        -155.3300   -7.6300  195.1000 O.2       2 ALA2        0.0000 
     30 O        -155.4200   -6.1400  195.0900 O.2       2 ALA2        0.0000 
     31 O        -156.1500   -7.6700  196.3600 O.2       2 ALA2        0.0000 
     32 O        -152.2400  -10.4600  193.4500 O.2       2 ALA2        0.0000 
     33 N        -152.3400   -8.9700  193.4300 N.am      2 ALA2        0.0000 
     34 O        -153.3500   -6.0100  194.6600 O.2       2 ALA2        0.0000 
     35 O        -154.9900   -6.0900  197.1700 O.2       2 ALA2        0.0000 
     36 N        -150.9900  -10.3800  194.2700 N.am      2 ALA2        0.0000 
     37 N        -151.9100   -8.9200  195.5100 N.am      2 ALA2        0.0000 
     38 O        -153.7400   -6.0000  197.9900 O.2       2 ALA2        0.0000 
     39 N        -151.6700   -5.8800  197.5600 N.am      2 ALA2        0.0000 
     40 O        -152.0600   -5.8700  200.8900 O.2       2 ALA2        0.0000 
     41 O        -149.9000   -7.2400  200.4800 O.2       2 ALA2        0.0000 
     42 NZ       -156.0000  -10.7200  190.9800 N.4       3 LYS4        0.0000 
     43 NZ       -156.0900   -9.2200  190.9600 N.4       3 LYS4        0.0000 
     44 NZ       -156.8200  -10.7600  192.2300 N.4       3 LYS4        0.0000 
     45 NZ       -156.9100   -9.2600  192.2200 N.4       3 LYS4        0.0000 
     46 NZ       -157.0000   -7.7700  192.2000 N.4       3 LYS4        0.0000 
     47 CZ       -153.0700  -10.5000  194.7000 C.ar      4 PHE5        0.0000 
     48 CZ       -153.1600   -9.0100  194.6900 C.ar      4 PHE5        0.0000 
     49 CZ       -153.9800   -9.0400  195.9400 C.ar      4 PHE5        0.0000 
     50 CZ       -154.9000   -7.5900  197.1800 C.ar      4 PHE5        0.0000 
     51 CZ       -151.8200  -10.4200  195.5300 C.ar      4 PHE5        0.0000 
     52 CZ       -152.7300   -8.9600  196.7700 C.ar      4 PHE5        0.0000 
     53 CZ       -153.6500   -7.5000  198.0000 C.ar      4 PHE5        0.0000 
     54 CZ       -154.4700   -7.5400  199.2600 C.ar      4 PHE5        0.0000 
     55 CZ       -150.6600   -8.8300  196.3400 C.ar      4 PHE5        0.0000 
     56 CZ       -151.4800   -8.8700  197.5900 C.ar      4 PHE5        0.0000 
     57 CZ       -152.4000   -7.4100  198.8300 C.ar      4 PHE5        0.0000 
     58 CZ       -153.2200   -7.4500  200.0800 C.ar      4 PHE5        0.0000 
     59 CA       -155.9000  -12.2200  190.9900 C.3       5 GLY6        0.0000 
     60 CA       -156.7300  -12.2600  192.2500 C.3       5 GLY6        0.0000 
     61 CA       -153.9200  -10.6000  190.5500 C.3       5 GLY6        0.0000 
     62 CA       -154.0100   -9.1000  190.5300 C.3       5 GLY6        0.0000 
     63 CA       -154.8400   -9.1400  191.7900 C.3       5 GLY6        0.0000 
     64 CA       -152.6700  -10.5100  191.3700 C.3       5 GLY6        0.0000 
     65 CA       -153.5900   -9.0500  192.6100 C.3       5 GLY6        0.0000 
     66 CA       -153.6800   -7.5600  192.6000 C.3       5 GLY6        0.0000 
     67 CA       -154.5000   -7.5900  193.8500 C.3       5 GLY6        0.0000 
     68 CA       -154.6000   -6.1000  193.8400 C.3       5 GLY6        0.0000 
     69 CA       -153.2500   -7.5100  194.6700 C.3       5 GLY6        0.0000 
     70 CA       -154.1700   -6.0500  195.9100 C.3       5 GLY6        0.0000 
     71 CA       -152.0000   -7.4200  195.5000 C.3       5 GLY6        0.0000 
     72 CA       -152.9200   -5.9600  196.7400 C.3       5 GLY6        0.0000 
     73 CA       -153.8400   -4.5100  197.9800 C.3       5 GLY6        0.0000 
     74 CA       -150.7500   -7.3400  196.3200 C.3       5 GLY6        0.0000 
     75 CA       -152.4900   -5.9200  198.8100 C.3       5 GLY6        0.0000 
     76 CA       -152.5800   -4.4200  198.8000 C.3       5 GLY6        0.0000 
     77 CA       -150.3200   -7.2900  198.4000 C.3       5 GLY6        0.0000 
     78 CA       -151.1500   -7.3300  199.6500 C.3       5 GLY6        0.0000 
     79 CA       -151.2400   -5.8300  199.6400 C.3       5 GLY6        0.0000 
     80 CA       -151.9700   -7.3700  200.9100 C.3       5 GLY6        0.0000 
     81 CA       -150.7200   -7.2800  201.7300 C.3       5 GLY6        0.0000 
     82 DU       -155.6600   -9.1800  193.0400 H         6 CUB7        0.0000 
     83 DU       -155.7500   -7.6800  193.0300 H         6 CUB7        0.0000 
     84 DU       -156.5800   -7.7200  194.2800 H         6 CUB7        0.0000 
     85 DU       -154.4100   -9.0900  193.8600 H         6 CUB7        0.0000 
     86 DU       -154.0800   -7.5500  195.9300 H         6 CUB7        0.0000 
     87 DU       -152.8300   -7.4600  196.7500 H         6 CUB7        0.0000 
     88 DU       -151.5800   -7.3800  197.5700 H         6 CUB7        0.0000 
     89 DU       -153.3100   -5.9600  200.0700 H         6 CUB7        0.0000 
@<TRIPOS>BOND
@<TRIPOS>SUBSTRUCTURE
     1 SER1        1 GROUP   
     2 ALA2       12 GROUP   
     3 LYS4       42 GROUP   
     4 PHE5       47 GROUP   
     5 GLY6       59 GROUP   
     6 CUB7       82 GROUP   
@<TRIPOS>SET

