#    Name: 6gwd_2_GDP
#    Modification time : Fri May 22 19:28:00 2020

@<TRIPOS>MOLECULE
6gwd_2_GDP
   40    42     1     0     1
SMALL
NO_CHARGES


@<TRIPOS>ATOM
      1 PB        -85.1740  -12.1420  135.1110 P.3       1 GDP600      0.0000 
      2 O1B       -85.5600  -12.4700  133.6520 O.co2     1 GDP600      0.0000 
      3 O2B       -84.0150  -11.2680  135.2070 O.co2     1 GDP600      0.0000 
      4 O3B       -86.3550  -11.5460  135.8700 O.co2     1 GDP600      0.0000 
      5 O3A       -84.9230  -13.5410  135.8290 O.3       1 GDP600      0.0000 
      6 PA        -83.9110  -14.7430  135.5860 P.3       1 GDP600      0.0000 
      7 O1A       -83.0410  -14.4300  134.4340 O.co2     1 GDP600      0.0000 
      8 O2A       -83.0670  -14.8680  136.8550 O.co2     1 GDP600      0.0000 
      9 O5'       -84.7910  -16.0640  135.3390 O.3       1 GDP600      0.0000 
     10 C5'       -84.7570  -17.2560  136.1510 C.3       1 GDP600      0.0000 
     11 C4'       -84.7260  -18.4540  135.2350 C.3       1 GDP600      0.0000 
     12 O4'       -83.5960  -18.3450  134.3420 O.3       1 GDP600      0.0000 
     13 C3'       -84.5450  -19.7960  135.9330 C.3       1 GDP600      0.0000 
     14 O3'       -85.1080  -20.8430  135.1490 O.3       1 GDP600      0.0000 
     15 C2'       -83.0260  -19.9020  136.0310 C.3       1 GDP600      0.0000 
     16 O2'       -82.6170  -21.2600  136.1710 O.3       1 GDP600      0.0000 
     17 C1'       -82.6160  -19.3110  134.6790 C.3       1 GDP600      0.0000 
     18 N9        -81.2890  -18.6580  134.6620 N.pl3     1 GDP600      0.0000 
     19 C8        -80.8650  -17.5680  135.3810 C.2       1 GDP600      0.0000 
     20 N7        -79.6280  -17.2120  135.1170 N.2       1 GDP600      0.0000 
     21 C5        -79.2110  -18.1240  134.1620 C.2       1 GDP600      0.0000 
     22 C6        -77.9540  -18.2760  133.4670 C.2       1 GDP600      0.0000 
     23 O6        -76.9480  -17.5770  133.5800 O.2       1 GDP600      0.0000 
     24 N1        -77.9660  -19.3570  132.6040 N.am      1 GDP600      0.0000 
     25 C2        -79.0240  -20.2050  132.4130 C.2       1 GDP600      0.0000 
     26 N2        -78.8070  -21.2880  131.6640 N.pl3     1 GDP600      0.0000 
     27 N3        -80.1990  -20.0590  133.0190 N.2       1 GDP600      0.0000 
     28 C4        -80.2250  -19.0220  133.8760 C.2       1 GDP600      0.0000 
     29 H5'       -83.9190  -17.2500  136.8450 H         1 GDP600      0.0000 
     30 H5''      -85.6680  -17.2040  136.7460 H         1 GDP600      0.0000 
     31 H4'       -85.5880  -18.4480  134.5700 H         1 GDP600      0.0000 
     32 H3'       -85.0060  -19.8030  136.9180 H         1 GDP600      0.0000 
     33 HO3'      -84.8740  -21.6990  135.5950 H         1 GDP600      0.0000 
     34 H2'       -82.6470  -19.2900  136.8490 H         1 GDP600      0.0000 
     35 HO2'      -82.2100  -21.3170  137.0750 H         1 GDP600      0.0000 
     36 H1'       -82.6380  -20.0650  133.8940 H         1 GDP600      0.0000 
     37 H8        -81.4920  -17.0300  136.0900 H         1 GDP600      0.0000 
     38 HN1       -77.1020  -19.5110  132.0950 H         1 GDP600      0.0000 
     39 HN21      -79.5570  -21.9510  131.4940 H         1 GDP600      0.0000 
     40 HN22      -77.9040  -21.5330  131.2740 H         1 GDP600      0.0000 
@<TRIPOS>BOND
     1    1    2 ar   
     2    1    3 ar   
     3    1    4 ar   
     4    1    5 1    
     5    5    6 1    
     6    6    7 ar   
     7    6    8 ar   
     8    6    9 1    
     9    9   10 1    
    10   10   11 1    
    11   10   29 1    
    12   10   30 1    
    13   11   12 1    
    14   11   13 1    
    15   11   31 1    
    16   12   17 1    
    17   13   14 1    
    18   13   15 1    
    19   13   32 1    
    20   14   33 1    
    21   15   16 1    
    22   15   17 1    
    23   15   34 1    
    24   16   35 1    
    25   17   18 1    
    26   17   36 1    
    27   18   19 1    
    28   18   28 1    
    29   19   20 2    
    30   19   37 1    
    31   20   21 1    
    32   21   22 1    
    33   21   28 2    
    34   22   23 2    
    35   22   24 am   
    36   24   25 1    
    37   24   38 1    
    38   25   26 1    
    39   25   27 2    
    40   26   39 1    
    41   26   40 1    
    42   27   28 1    
@<TRIPOS>SUBSTRUCTURE
     1 GDP600      1 GROUP   
@<TRIPOS>SET
ATOM$ORANGE STATIC     ATOMS   COLORGROUP SYSTEM 
20 10 10 11 11 13 13 15 15 17 17 19 19 21 21 22 22 25 \
25 28 28 

