#    Name: 6gwd_6_GDP
#    Modification time : Fri May 22 19:28:47 2020

@<TRIPOS>MOLECULE
6gwd_6_GDP
   40    42     1     0     1
SMALL
NO_CHARGES


@<TRIPOS>ATOM
      1 PB       -238.3640    6.0670  155.3860 P.3       1 GDP600      0.0000 
      2 O1B      -238.3040    6.5990  153.9520 O.co2     1 GDP600      0.0000 
      3 O2B      -236.9700    5.9580  156.0200 O.co2     1 GDP600      0.0000 
      4 O3B      -239.3060    6.8740  156.2190 O.co2     1 GDP600      0.0000 
      5 O3A      -238.8290    4.5550  155.2370 O.3       1 GDP600      0.0000 
      6 PA       -239.0680    3.4070  156.3090 P.3       1 GDP600      0.0000 
      7 O1A      -240.5880    3.2070  156.3600 O.co2     1 GDP600      0.0000 
      8 O2A      -238.5550    3.8100  157.6370 O.co2     1 GDP600      0.0000 
      9 O5'      -238.3650    2.0950  155.7480 O.3       1 GDP600      0.0000 
     10 C5'      -239.0840    0.9380  155.2740 C.3       1 GDP600      0.0000 
     11 C4'      -238.4480   -0.3000  155.8500 C.3       1 GDP600      0.0000 
     12 O4'      -238.3290   -0.1670  157.2820 O.3       1 GDP600      0.0000 
     13 C3'      -239.2350   -1.5810  155.6120 C.3       1 GDP600      0.0000 
     14 O3'      -238.3400   -2.6610  155.3910 O.3       1 GDP600      0.0000 
     15 C2'      -240.0610   -1.7140  156.8900 C.3       1 GDP600      0.0000 
     16 O2'      -240.3430   -3.0740  157.1910 O.3       1 GDP600      0.0000 
     17 C1'      -239.1120   -1.1430  157.9350 C.3       1 GDP600      0.0000 
     18 N9       -239.8050   -0.5050  159.0730 N.pl3     1 GDP600      0.0000 
     19 C8       -240.5820    0.6270  159.0720 C.2       1 GDP600      0.0000 
     20 N7       -240.9960    0.9840  160.2670 N.2       1 GDP600      0.0000 
     21 C5       -240.4700    0.0170  161.1070 C.2       1 GDP600      0.0000 
     22 C6       -240.5550   -0.1630  162.5380 C.2       1 GDP600      0.0000 
     23 O6       -241.1050    0.5890  163.3450 O.2       1 GDP600      0.0000 
     24 N1       -239.8990   -1.3090  162.9660 N.am      1 GDP600      0.0000 
     25 C2       -239.2420   -2.1930  162.1480 C.2       1 GDP600      0.0000 
     26 N2       -238.7550   -3.3020  162.7130 N.pl3     1 GDP600      0.0000 
     27 N3       -239.1200   -2.0220  160.8320 N.2       1 GDP600      0.0000 
     28 C4       -239.7480   -0.9150  160.3800 C.2       1 GDP600      0.0000 
     29 H5'      -240.1480    0.9860  155.4990 H         1 GDP600      0.0000 
     30 H5''     -238.9870    0.9880  154.1900 H         1 GDP600      0.0000 
     31 H4'      -237.4180   -0.3870  155.5090 H         1 GDP600      0.0000 
     32 H3'      -239.8960   -1.4830  154.7540 H         1 GDP600      0.0000 
     33 HO3'     -238.8170   -3.3250  154.8280 H         1 GDP600      0.0000 
     34 H2'      -240.9730   -1.1230  156.8300 H         1 GDP600      0.0000 
     35 HO2'     -241.2840   -3.2080  156.9040 H         1 GDP600      0.0000 
     36 H1'      -238.4250   -1.8950  158.3200 H         1 GDP600      0.0000 
     37 H8       -240.8560    1.1630  158.1650 H         1 GDP600      0.0000 
     38 HN1      -239.8970   -1.4650  163.9680 H         1 GDP600      0.0000 
     39 HN21     -238.2600   -3.9790  162.1390 H         1 GDP600      0.0000 
     40 HN22     -238.8330   -3.5260  163.6980 H         1 GDP600      0.0000 
@<TRIPOS>BOND
     1    1    2 ar   
     2    1    3 ar   
     3    1    4 ar   
     4    1    5 1    
     5    5    6 1    
     6    6    7 ar   
     7    6    8 ar   
     8    6    9 1    
     9    9   10 1    
    10   10   11 1    
    11   10   29 1    
    12   10   30 1    
    13   11   12 1    
    14   11   13 1    
    15   11   31 1    
    16   12   17 1    
    17   13   14 1    
    18   13   15 1    
    19   13   32 1    
    20   14   33 1    
    21   15   16 1    
    22   15   17 1    
    23   15   34 1    
    24   16   35 1    
    25   17   18 1    
    26   17   36 1    
    27   18   19 1    
    28   18   28 1    
    29   19   20 2    
    30   19   37 1    
    31   20   21 1    
    32   21   22 1    
    33   21   28 2    
    34   22   23 2    
    35   22   24 am   
    36   24   25 1    
    37   24   38 1    
    38   25   26 1    
    39   25   27 2    
    40   26   39 1    
    41   26   40 1    
    42   27   28 1    
@<TRIPOS>SUBSTRUCTURE
     1 GDP600      1 GROUP   
@<TRIPOS>SET
ATOM$ORANGE STATIC     ATOMS   COLORGROUP SYSTEM 
20 10 10 11 11 13 13 15 15 17 17 19 19 21 21 22 22 25 \
25 28 28 

