#    Name: 6pjw_5_AMP
#    Modification time : Fri May 22 19:25:28 2020

@<TRIPOS>MOLECULE
6pjw_5_AMP
   37    39     1     0     1
SMALL
NO_CHARGES


@<TRIPOS>ATOM
      1 P          36.4170   24.1310   47.6900 P.3       1 AMP301      0.0000 
      2 O1P        34.9750   23.9860   48.1770 O.co2     1 AMP301      0.0000 
      3 O2P        37.4120   23.1780   48.2440 O.co2     1 AMP301      0.0000 
      4 O3P        36.9850   25.5150   47.9870 O.co2     1 AMP301      0.0000 
      5 O5'        36.3650   23.9420   46.1140 O.3       1 AMP301      0.0000 
      6 C5'        35.8590   24.9690   45.2820 C.3       1 AMP301      0.0000 
      7 C4'        35.3950   24.4390   43.9350 C.3       1 AMP301      0.0000 
      8 O4'        36.5240   23.8340   43.2480 O.3       1 AMP301      0.0000 
      9 C3'        34.3840   23.2930   43.9740 C.3       1 AMP301      0.0000 
     10 O3'        33.0530   23.6590   44.2620 O.3       1 AMP301      0.0000 
     11 C2'        34.5550   22.6530   42.6020 C.3       1 AMP301      0.0000 
     12 O2'        33.8700   23.3780   41.5990 O.3       1 AMP301      0.0000 
     13 C1'        36.0740   22.7930   42.3990 C.3       1 AMP301      0.0000 
     14 N9         36.7540   21.5100   42.7300 N.pl3     1 AMP301      0.0000 
     15 C8         37.4290   21.2020   43.8810 C.2       1 AMP301      0.0000 
     16 N7         37.8880   19.9720   43.9200 N.2       1 AMP301      0.0000 
     17 C5         37.4970   19.4440   42.7060 C.ar      1 AMP301      0.0000 
     18 C6         37.7300   18.1940   42.0990 C.ar      1 AMP301      0.0000 
     19 N6         38.4450   17.2330   42.6590 N.pl3     1 AMP301      0.0000 
     20 N1         37.2410   17.9930   40.8610 N.ar      1 AMP301      0.0000 
     21 C2         36.5670   18.9860   40.2710 C.ar      1 AMP301      0.0000 
     22 N3         36.2880   20.2000   40.7400 N.ar      1 AMP301      0.0000 
     23 C4         36.7870   20.3670   41.9580 C.ar      1 AMP301      0.0000 
     24 HOP2       38.2360   22.9220   47.7520 H         1 AMP301      0.0000 
     25 HOP3       36.6920   26.1480   48.6930 H         1 AMP301      0.0000 
     26 H5'1       36.6600   25.7010   45.1820 H         1 AMP301      0.0000 
     27 H5'2       35.0510   25.4400   45.8390 H         1 AMP301      0.0000 
     28 H4'        35.0660   25.2540   43.2920 H         1 AMP301      0.0000 
     29 H3'        34.6870   22.6060   44.7630 H         1 AMP301      0.0000 
     30 HO3'       32.6330   22.8950   44.7380 H         1 AMP301      0.0000 
     31 H2'        34.2230   21.6160   42.6110 H         1 AMP301      0.0000 
     32 HO2'       33.2620   24.0040   42.0730 H         1 AMP301      0.0000 
     33 H1'        36.3640   23.0830   41.3900 H         1 AMP301      0.0000 
     34 H8         37.5690   21.9170   44.6900 H         1 AMP301      0.0000 
     35 HN61       38.8630   17.3700   43.5740 H         1 AMP301      0.0000 
     36 HN62       38.5830   16.3490   42.1800 H         1 AMP301      0.0000 
     37 H2         36.2010   18.7620   39.2700 H         1 AMP301      0.0000 
@<TRIPOS>BOND
     1    1    2 ar   
     2    1    3 ar   
     3    1    4 ar   
     4    1    5 1    
     5    3   24 1    
     6    4   25 1    
     7    5    6 1    
     8    6    7 1    
     9    6   26 1    
    10    6   27 1    
    11    7    8 1    
    12    7    9 1    
    13    7   28 1    
    14    8   13 1    
    15    9   10 1    
    16    9   11 1    
    17    9   29 1    
    18   10   30 1    
    19   11   12 1    
    20   11   13 1    
    21   11   31 1    
    22   12   32 1    
    23   13   14 1    
    24   13   33 1    
    25   14   15 1    
    26   14   23 1    
    27   15   16 2    
    28   15   34 1    
    29   16   17 1    
    30   17   18 ar   
    31   17   23 ar   
    32   18   19 1    
    33   18   20 ar   
    34   19   35 1    
    35   19   36 1    
    36   20   21 ar   
    37   21   22 ar   
    38   21   37 1    
    39   22   23 ar   
@<TRIPOS>SUBSTRUCTURE
     1 AMP301      1 GROUP   
@<TRIPOS>SET
ATOM$ORANGE STATIC     ATOMS   COLORGROUP SYSTEM 
20 6 6 7 7 9 9 11 11 13 13 15 15 17 17 18 18 21 \
21 23 23 

