#    Name: 6pjw_11_AMP
#    Modification time : Fri May 22 19:25:33 2020

@<TRIPOS>MOLECULE
6pjw_11_AMP
   37    39     1     0     1
SMALL
NO_CHARGES


@<TRIPOS>ATOM
      1 P          61.7850   23.5500  103.3000 P.3       1 AMP301      0.0000 
      2 O1P        60.3940   23.2420  103.8700 O.co2     1 AMP301      0.0000 
      3 O2P        62.9950   22.9260  103.8550 O.co2     1 AMP301      0.0000 
      4 O3P        62.0350   25.0230  103.3750 O.co2     1 AMP301      0.0000 
      5 O5'        61.6640   23.3320  101.7450 O.3       1 AMP301      0.0000 
      6 C5'        60.8490   24.1930  100.9750 C.3       1 AMP301      0.0000 
      7 C4'        60.3170   23.4500   99.7570 C.3       1 AMP301      0.0000 
      8 O4'        61.4380   22.9660   98.9560 O.3       1 AMP301      0.0000 
      9 C3'        59.5270   22.1550  100.0310 C.3       1 AMP301      0.0000 
     10 O3'        58.1860   22.3450  100.4580 O.3       1 AMP301      0.0000 
     11 C2'        59.6550   21.3980   98.7140 C.3       1 AMP301      0.0000 
     12 O2'        58.7160   21.8650   97.7720 O.3       1 AMP301      0.0000 
     13 C1'        61.0720   21.7810   98.2730 C.3       1 AMP301      0.0000 
     14 N9         62.0300   20.7020   98.5950 N.pl3     1 AMP301      0.0000 
     15 C8         62.8920   20.6710   99.6600 C.2       1 AMP301      0.0000 
     16 N7         63.6200   19.5860   99.7260 N.2       1 AMP301      0.0000 
     17 C5         63.2170   18.8520   98.6200 C.ar      1 AMP301      0.0000 
     18 C6         63.6630   17.6250   98.0760 C.ar      1 AMP301      0.0000 
     19 N6         64.5660   16.8500   98.6570 N.pl3     1 AMP301      0.0000 
     20 N1         63.1130   17.2070   96.9150 N.ar      1 AMP301      0.0000 
     21 C2         62.1690   17.9630   96.3440 C.ar      1 AMP301      0.0000 
     22 N3         61.6610   19.1220   96.7700 N.ar      1 AMP301      0.0000 
     23 C4         62.2350   19.5230   97.9150 C.ar      1 AMP301      0.0000 
     24 HOP2       63.6860   22.5030  103.2820 H         1 AMP301      0.0000 
     25 HOP3       61.3960   25.7540  103.1670 H         1 AMP301      0.0000 
     26 H5'1       61.4620   25.0530  100.7060 H         1 AMP301      0.0000 
     27 H5'2       60.0550   24.5470  101.6300 H         1 AMP301      0.0000 
     28 H4'        59.7690   24.1320   99.1080 H         1 AMP301      0.0000 
     29 H3'        60.0280   21.6090  100.8280 H         1 AMP301      0.0000 
     30 HO3'       57.6090   22.2970   99.6520 H         1 AMP301      0.0000 
     31 H2'        59.5490   20.3250   98.8640 H         1 AMP301      0.0000 
     32 HO2'       58.8700   21.3420   96.9420 H         1 AMP301      0.0000 
     33 H1'        61.1440   22.0050   97.2100 H         1 AMP301      0.0000 
     34 H8         62.9600   21.4810  100.3860 H         1 AMP301      0.0000 
     35 HN61       64.9830   17.1200   99.5420 H         1 AMP301      0.0000 
     36 HN62       64.8500   15.9780   98.2220 H         1 AMP301      0.0000 
     37 H2         61.7680   17.5740   95.4100 H         1 AMP301      0.0000 
@<TRIPOS>BOND
     1    1    2 ar   
     2    1    3 ar   
     3    1    4 ar   
     4    1    5 1    
     5    3   24 1    
     6    4   25 1    
     7    5    6 1    
     8    6    7 1    
     9    6   26 1    
    10    6   27 1    
    11    7    8 1    
    12    7    9 1    
    13    7   28 1    
    14    8   13 1    
    15    9   10 1    
    16    9   11 1    
    17    9   29 1    
    18   10   30 1    
    19   11   12 1    
    20   11   13 1    
    21   11   31 1    
    22   12   32 1    
    23   13   14 1    
    24   13   33 1    
    25   14   15 1    
    26   14   23 1    
    27   15   16 2    
    28   15   34 1    
    29   16   17 1    
    30   17   18 ar   
    31   17   23 ar   
    32   18   19 1    
    33   18   20 ar   
    34   19   35 1    
    35   19   36 1    
    36   20   21 ar   
    37   21   22 ar   
    38   21   37 1    
    39   22   23 ar   
@<TRIPOS>SUBSTRUCTURE
     1 AMP301      1 GROUP   
@<TRIPOS>SET
ATOM$ORANGE STATIC     ATOMS   COLORGROUP SYSTEM 
20 6 6 7 7 9 9 11 11 13 13 15 15 17 17 18 18 21 \
21 23 23 

