#    Name: 6pjw_17_AMP
#    Modification time : Fri May 22 19:25:39 2020

@<TRIPOS>MOLECULE
6pjw_17_AMP
   37    39     1     0     1
SMALL
NO_CHARGES


@<TRIPOS>ATOM
      1 P          51.2070  -12.6490   11.1540 P.3       1 AMP301      0.0000 
      2 O1P        52.2620  -12.3750   12.1390 O.co2     1 AMP301      0.0000 
      3 O2P        50.6310  -14.0350   11.1130 O.co2     1 AMP301      0.0000 
      4 O3P        51.6070  -12.2970    9.7430 O.co2     1 AMP301      0.0000 
      5 O5'        49.9640  -11.7320   11.4940 O.3       1 AMP301      0.0000 
      6 C5'        48.8310  -11.7790   10.6520 C.3       1 AMP301      0.0000 
      7 C4'        47.9890  -10.5250   10.7640 C.3       1 AMP301      0.0000 
      8 O4'        47.6640  -10.3090   12.1530 O.3       1 AMP301      0.0000 
      9 C3'        48.6040   -9.2140   10.3180 C.3       1 AMP301      0.0000 
     10 O3'        48.4640   -9.0010    8.9240 O.3       1 AMP301      0.0000 
     11 C2'        47.8240   -8.1810   11.1230 C.3       1 AMP301      0.0000 
     12 O2'        46.5820   -7.8580   10.5050 O.3       1 AMP301      0.0000 
     13 C1'        47.5280   -8.9340   12.4160 C.3       1 AMP301      0.0000 
     14 N9         48.4250   -8.5620   13.5510 N.pl3     1 AMP301      0.0000 
     15 C8         49.4320   -9.2860   14.1070 C.2       1 AMP301      0.0000 
     16 N7         49.9770   -8.7140   15.1690 N.2       1 AMP301      0.0000 
     17 C5         49.2740   -7.5530   15.2910 C.ar      1 AMP301      0.0000 
     18 C6         49.3570   -6.4730   16.2200 C.ar      1 AMP301      0.0000 
     19 N6         50.1990   -6.4370   17.2470 N.pl3     1 AMP301      0.0000 
     20 N1         48.5310   -5.4310   16.0480 N.ar      1 AMP301      0.0000 
     21 C2         47.6790   -5.4480   15.0270 C.ar      1 AMP301      0.0000 
     22 N3         47.4970   -6.3900   14.1030 N.ar      1 AMP301      0.0000 
     23 C4         48.3160   -7.4030   14.3060 C.ar      1 AMP301      0.0000 
     24 HOP2       50.4180  -14.4980   10.2610 H         1 AMP301      0.0000 
     25 HOP3       52.1780  -11.5390    9.4490 H         1 AMP301      0.0000 
     26 H5'1       48.2770  -12.6730   10.9370 H         1 AMP301      0.0000 
     27 H5'2       49.2080  -11.9330    9.6420 H         1 AMP301      0.0000 
     28 H4'        47.0290  -10.6680   10.2700 H         1 AMP301      0.0000 
     29 H3'        49.6590   -9.1970   10.5880 H         1 AMP301      0.0000 
     30 HO3'       49.3580   -8.7540    8.5710 H         1 AMP301      0.0000 
     31 H2'        48.4370   -7.2940   11.2720 H         1 AMP301      0.0000 
     32 HO2'       46.7060   -8.0120    9.5320 H         1 AMP301      0.0000 
     33 H1'        46.5070   -8.7530   12.7500 H         1 AMP301      0.0000 
     34 H8         49.7570  -10.2470   13.7120 H         1 AMP301      0.0000 
     35 HN61       50.8380   -7.2080   17.4150 H         1 AMP301      0.0000 
     36 HN62       50.2110   -5.6390   17.8740 H         1 AMP301      0.0000 
     37 H2         47.0460   -4.5660   14.9430 H         1 AMP301      0.0000 
@<TRIPOS>BOND
     1    1    2 ar   
     2    1    3 ar   
     3    1    4 ar   
     4    1    5 1    
     5    3   24 1    
     6    4   25 1    
     7    5    6 1    
     8    6    7 1    
     9    6   26 1    
    10    6   27 1    
    11    7    8 1    
    12    7    9 1    
    13    7   28 1    
    14    8   13 1    
    15    9   10 1    
    16    9   11 1    
    17    9   29 1    
    18   10   30 1    
    19   11   12 1    
    20   11   13 1    
    21   11   31 1    
    22   12   32 1    
    23   13   14 1    
    24   13   33 1    
    25   14   15 1    
    26   14   23 1    
    27   15   16 2    
    28   15   34 1    
    29   16   17 1    
    30   17   18 ar   
    31   17   23 ar   
    32   18   19 1    
    33   18   20 ar   
    34   19   35 1    
    35   19   36 1    
    36   20   21 ar   
    37   21   22 ar   
    38   21   37 1    
    39   22   23 ar   
@<TRIPOS>SUBSTRUCTURE
     1 AMP301      1 GROUP   
@<TRIPOS>SET
ATOM$ORANGE STATIC     ATOMS   COLORGROUP SYSTEM 
20 6 6 7 7 9 9 11 11 13 13 15 15 17 17 18 18 21 \
21 23 23 

