#    Name: 6pjw_1_AMP
#    Modification time : Fri May 22 19:25:23 2020

@<TRIPOS>MOLECULE
6pjw_1_AMP
   37    39     1     0     1
SMALL
NO_CHARGES


@<TRIPOS>ATOM
      1 P          14.0060   -3.5580   31.2570 P.3       1 AMP301      0.0000 
      2 O1P        13.3550   -3.9360   32.5570 O.co2     1 AMP301      0.0000 
      3 O2P        14.7380   -2.2600   31.0240 O.co2     1 AMP301      0.0000 
      4 O3P        13.0420   -3.6010   30.0890 O.co2     1 AMP301      0.0000 
      5 O5'        15.1220   -4.6560   30.9450 O.3       1 AMP301      0.0000 
      6 C5'        14.7140   -5.9700   30.6070 C.3       1 AMP301      0.0000 
      7 C4'        15.7630   -6.9930   30.9840 C.3       1 AMP301      0.0000 
      8 O4'        16.9780   -6.7430   30.2450 O.3       1 AMP301      0.0000 
      9 C3'        16.2090   -6.9360   32.4330 C.3       1 AMP301      0.0000 
     10 O3'        15.3310   -7.6170   33.2970 O.3       1 AMP301      0.0000 
     11 C2'        17.5930   -7.5600   32.3940 C.3       1 AMP301      0.0000 
     12 O2'        17.4880   -8.9750   32.4060 O.3       1 AMP301      0.0000 
     13 C1'        18.1060   -7.1130   31.0210 C.3       1 AMP301      0.0000 
     14 N9         19.0520   -5.9660   31.0700 N.pl3     1 AMP301      0.0000 
     15 C8         18.7580   -4.6630   30.7670 C.2       1 AMP301      0.0000 
     16 N7         19.7950   -3.8610   30.7750 N.2       1 AMP301      0.0000 
     17 C5         20.8480   -4.6960   31.1050 C.ar      1 AMP301      0.0000 
     18 C6         22.2230   -4.4610   31.2810 C.ar      1 AMP301      0.0000 
     19 N6         22.7980   -3.2800   31.0610 N.pl3     1 AMP301      0.0000 
     20 N1         22.9960   -5.5040   31.6500 N.ar      1 AMP301      0.0000 
     21 C2         22.4270   -6.6980   31.8230 C.ar      1 AMP301      0.0000 
     22 N3         21.1490   -7.0420   31.6730 N.ar      1 AMP301      0.0000 
     23 C4         20.4050   -5.9940   31.3050 C.ar      1 AMP301      0.0000 
     24 HOP2       15.7240   -2.1820   31.1110 H         1 AMP301      0.0000 
     25 HOP3       12.2060   -3.0770   29.9770 H         1 AMP301      0.0000 
     26 H5'1       14.5120   -5.9630   29.5370 H         1 AMP301      0.0000 
     27 H5'2       13.7690   -6.1400   31.1200 H         1 AMP301      0.0000 
     28 H4'        15.4760   -7.9960   30.6720 H         1 AMP301      0.0000 
     29 H3'        16.2810   -5.8960   32.7500 H         1 AMP301      0.0000 
     30 HO3'       15.7090   -7.5530   34.2130 H         1 AMP301      0.0000 
     31 H2'        18.2150   -7.1910   33.2080 H         1 AMP301      0.0000 
     32 HO2'       16.5250   -9.1820   32.5320 H         1 AMP301      0.0000 
     33 H1'        18.6250   -7.9250   30.5140 H         1 AMP301      0.0000 
     34 H8         17.7480   -4.3270   30.5390 H         1 AMP301      0.0000 
     35 HN61       22.2430   -2.4890   30.7490 H         1 AMP301      0.0000 
     36 HN62       23.7950   -3.1610   31.2020 H         1 AMP301      0.0000 
     37 H2         23.1070   -7.4920   32.1270 H         1 AMP301      0.0000 
@<TRIPOS>BOND
     1    1    2 ar   
     2    1    3 ar   
     3    1    4 ar   
     4    1    5 1    
     5    3   24 1    
     6    4   25 1    
     7    5    6 1    
     8    6    7 1    
     9    6   26 1    
    10    6   27 1    
    11    7    8 1    
    12    7    9 1    
    13    7   28 1    
    14    8   13 1    
    15    9   10 1    
    16    9   11 1    
    17    9   29 1    
    18   10   30 1    
    19   11   12 1    
    20   11   13 1    
    21   11   31 1    
    22   12   32 1    
    23   13   14 1    
    24   13   33 1    
    25   14   15 1    
    26   14   23 1    
    27   15   16 2    
    28   15   34 1    
    29   16   17 1    
    30   17   18 ar   
    31   17   23 ar   
    32   18   19 1    
    33   18   20 ar   
    34   19   35 1    
    35   19   36 1    
    36   20   21 ar   
    37   21   22 ar   
    38   21   37 1    
    39   22   23 ar   
@<TRIPOS>SUBSTRUCTURE
     1 AMP301      1 GROUP   
@<TRIPOS>SET
ATOM$ORANGE STATIC     ATOMS   COLORGROUP SYSTEM 
20 6 6 7 7 9 9 11 11 13 13 15 15 17 17 18 18 21 \
21 23 23 

