#    Name: 6j1o_3_SAM
#    Modification time : Fri May 22 19:33:46 2020

@<TRIPOS>MOLECULE
6j1o_3_SAM
   27    29     1     0     0
SMALL
NO_CHARGES


@<TRIPOS>ATOM
      1 N          58.5570  -14.5920  -33.9730 N.4       1 SAM401      0.0000 
      2 CA         58.2280  -15.9280  -33.5050 C.3       1 SAM401      0.0000 
      3 C          57.4630  -16.6990  -34.5780 C.2       1 SAM401      0.0000 
      4 O          56.6380  -16.1360  -35.2990 O.co2     1 SAM401      0.0000 
      5 OXT        57.6440  -17.9040  -34.7450 O.co2     1 SAM401      0.0000 
      6 CB         57.4130  -15.8380  -32.2170 C.3       1 SAM401      0.0000 
      7 CG         57.5940  -17.0460  -31.3180 C.3       1 SAM401      0.0000 
      8 SD         56.7860  -16.8650  -29.7110 S.3       1 SAM401      0.0000 
      9 CE         55.2260  -16.0130  -30.0610 C.3       1 SAM401      0.0000 
     10 C5'        57.7330  -15.6030  -28.8300 C.3       1 SAM401      0.0000 
     11 C4'        59.2380  -15.8030  -28.9680 C.3       1 SAM401      0.0000 
     12 O4'        59.8690  -14.7950  -28.2040 O.3       1 SAM401      0.0000 
     13 C3'        59.7040  -17.1360  -28.3980 C.3       1 SAM401      0.0000 
     14 O3'        60.6020  -17.7450  -29.3000 O.3       1 SAM401      0.0000 
     15 C2'        60.4320  -16.7850  -27.1210 C.3       1 SAM401      0.0000 
     16 O2'        61.5270  -17.6350  -26.8800 O.3       1 SAM401      0.0000 
     17 C1'        60.9060  -15.3850  -27.4360 C.3       1 SAM401      0.0000 
     18 N9         61.1710  -14.5660  -26.2500 N.pl3     1 SAM401      0.0000 
     19 C8         60.4470  -14.4470  -25.0950 C.2       1 SAM401      0.0000 
     20 N7         61.0700  -13.5520  -24.2900 N.2       1 SAM401      0.0000 
     21 C5         62.1770  -13.1020  -24.9340 C.ar      1 SAM401      0.0000 
     22 C6         63.1650  -12.1870  -24.5900 C.ar      1 SAM401      0.0000 
     23 N6         63.1280  -11.5550  -23.4240 N.pl3     1 SAM401      0.0000 
     24 N1         64.1720  -11.9340  -25.4920 N.ar      1 SAM401      0.0000 
     25 C2         64.2250  -12.5790  -26.7070 C.ar      1 SAM401      0.0000 
     26 N3         63.2460  -13.4910  -27.0460 N.ar      1 SAM401      0.0000 
     27 C4         62.2500  -13.7320  -26.1640 C.ar      1 SAM401      0.0000 
@<TRIPOS>BOND
     1    1    2 1    
     2    2    3 1    
     3    2    6 1    
     4    3    4 ar   
     5    3    5 ar   
     6    6    7 1    
     7    7    8 1    
     8    8    9 1    
     9    8   10 1    
    10   10   11 1    
    11   11   12 1    
    12   11   13 1    
    13   12   17 1    
    14   13   14 1    
    15   13   15 1    
    16   15   16 1    
    17   15   17 1    
    18   17   18 1    
    19   18   19 1    
    20   18   27 1    
    21   19   20 2    
    22   20   21 1    
    23   21   22 ar   
    24   21   27 ar   
    25   22   23 1    
    26   22   24 ar   
    27   24   25 ar   
    28   25   26 ar   
    29   26   27 ar   
@<TRIPOS>SUBSTRUCTURE
     1 SAM401      1 GROUP   
@<TRIPOS>SET

