#    Name: 6j1o_4_MTA
#    Modification time : Fri May 22 19:33:54 2020

@<TRIPOS>MOLECULE
6j1o_4_MTA
   20    22     1     0     0
SMALL
NO_CHARGES


@<TRIPOS>ATOM
      1 CS         47.9590  -21.6120  -31.1540 C.3       1 MTA402      0.0000 
      2 S5'        48.5910  -20.9460  -29.6490 S.3       1 MTA402      0.0000 
      3 C5'        47.8470  -19.3470  -29.6660 C.3       1 MTA402      0.0000 
      4 C4'        47.2640  -19.0730  -28.2840 C.3       1 MTA402      0.0000 
      5 O4'        48.2870  -18.8830  -27.3060 O.3       1 MTA402      0.0000 
      6 C2'        46.7560  -17.1450  -26.9100 C.3       1 MTA402      0.0000 
      7 O2'        45.5840  -16.9740  -26.1190 O.3       1 MTA402      0.0000 
      8 C3'        46.3960  -17.8220  -28.2210 C.3       1 MTA402      0.0000 
      9 O3'        45.0240  -18.2190  -28.2020 O.3       1 MTA402      0.0000 
     10 C1'        47.6600  -18.1600  -26.2420 C.3       1 MTA402      0.0000 
     11 N9         48.5990  -17.6500  -25.2010 N.pl3     1 MTA402      0.0000 
     12 C8         48.2420  -16.9330  -24.1160 C.2       1 MTA402      0.0000 
     13 N7         49.3170  -16.6600  -23.3320 N.2       1 MTA402      0.0000 
     14 C5         50.3960  -17.2210  -23.9100 C.ar      1 MTA402      0.0000 
     15 C6         51.8440  -17.3120  -23.6050 C.ar      1 MTA402      0.0000 
     16 N6         52.3630  -16.7290  -22.4970 N.pl3     1 MTA402      0.0000 
     17 N1         52.6300  -17.9940  -24.4670 N.ar      1 MTA402      0.0000 
     18 C2         52.1270  -18.5780  -25.5700 C.ar      1 MTA402      0.0000 
     19 N3         50.8240  -18.5340  -25.9060 N.ar      1 MTA402      0.0000 
     20 C4         49.9190  -17.8830  -25.1330 C.ar      1 MTA402      0.0000 
@<TRIPOS>BOND
     1    1    2 1    
     2    2    3 1    
     3    3    4 1    
     4    4    5 1    
     5    4    8 1    
     6    5   10 1    
     7    6    7 1    
     8    6    8 1    
     9    6   10 1    
    10    8    9 1    
    11   10   11 1    
    12   11   12 1    
    13   11   20 1    
    14   12   13 2    
    15   13   14 1    
    16   14   15 ar   
    17   14   20 ar   
    18   15   16 1    
    19   15   17 ar   
    20   17   18 ar   
    21   18   19 ar   
    22   19   20 ar   
@<TRIPOS>SUBSTRUCTURE
     1 MTA402      1 GROUP   
@<TRIPOS>SET

