#    Name: 6j1o_1_SAM
#    Modification time : Fri May 22 19:33:34 2020

@<TRIPOS>MOLECULE
6j1o_1_SAM
   27    29     1     0     0
SMALL
NO_CHARGES


@<TRIPOS>ATOM
      1 N          11.9600  -34.7600  -13.0350 N.4       1 SAM401      0.0000 
      2 CA         12.4740  -33.4010  -13.1370 C.3       1 SAM401      0.0000 
      3 C          12.0600  -32.7660  -14.4630 C.2       1 SAM401      0.0000 
      4 O          11.4250  -31.7110  -14.4970 O.co2     1 SAM401      0.0000 
      5 OXT        12.3290  -33.3000  -15.5380 O.co2     1 SAM401      0.0000 
      6 CB         13.9980  -33.4130  -12.9910 C.3       1 SAM401      0.0000 
      7 CG         14.4860  -32.3750  -11.9960 C.3       1 SAM401      0.0000 
      8 SD         16.2220  -32.5670  -11.5250 S.3       1 SAM401      0.0000 
      9 CE         17.0050  -33.3660  -12.9500 C.3       1 SAM401      0.0000 
     10 C5'        16.2090  -33.9070  -10.3090 C.3       1 SAM401      0.0000 
     11 C4'        15.1490  -33.7530   -9.2240 C.3       1 SAM401      0.0000 
     12 O4'        15.3280  -34.8110   -8.3000 O.3       1 SAM401      0.0000 
     13 C3'        15.2710  -32.4530   -8.4330 C.3       1 SAM401      0.0000 
     14 O3'        14.0120  -31.8000   -8.3870 O.3       1 SAM401      0.0000 
     15 C2'        15.7150  -32.9030   -7.0500 C.3       1 SAM401      0.0000 
     16 O2'        15.2540  -32.1230   -5.9700 O.3       1 SAM401      0.0000 
     17 C1'        15.1430  -34.2990   -6.9990 C.3       1 SAM401      0.0000 
     18 N9         15.8110  -35.1660   -6.0300 N.pl3     1 SAM401      0.0000 
     19 C8         17.1570  -35.2820   -5.7820 C.2       1 SAM401      0.0000 
     20 N7         17.3300  -36.2090   -4.8130 N.2       1 SAM401      0.0000 
     21 C5         16.1000  -36.6800   -4.4560 C.ar      1 SAM401      0.0000 
     22 C6         15.6810  -37.6280   -3.5340 C.ar      1 SAM401      0.0000 
     23 N6         16.5620  -38.2850   -2.7880 N.pl3     1 SAM401      0.0000 
     24 N1         14.3330  -37.8970   -3.3980 N.ar      1 SAM401      0.0000 
     25 C2         13.4100  -37.2310   -4.1700 C.ar      1 SAM401      0.0000 
     26 N3         13.8160  -36.2840   -5.0790 N.ar      1 SAM401      0.0000 
     27 C4         15.1480  -36.0280   -5.2140 C.ar      1 SAM401      0.0000 
@<TRIPOS>BOND
     1    1    2 1    
     2    2    3 1    
     3    2    6 1    
     4    3    4 ar   
     5    3    5 ar   
     6    6    7 1    
     7    7    8 1    
     8    8    9 1    
     9    8   10 1    
    10   10   11 1    
    11   11   12 1    
    12   11   13 1    
    13   12   17 1    
    14   13   14 1    
    15   13   15 1    
    16   15   16 1    
    17   15   17 1    
    18   17   18 1    
    19   18   19 1    
    20   18   27 1    
    21   19   20 2    
    22   20   21 1    
    23   21   22 ar   
    24   21   27 ar   
    25   22   23 1    
    26   22   24 ar   
    27   24   25 ar   
    28   25   26 ar   
    29   26   27 ar   
@<TRIPOS>SUBSTRUCTURE
     1 SAM401      1 GROUP   
@<TRIPOS>SET

