#    Name: 6j1o_2_MTA
#    Modification time : Fri May 22 19:33:42 2020

@<TRIPOS>MOLECULE
6j1o_2_MTA
   20    22     1     0     0
SMALL
NO_CHARGES


@<TRIPOS>ATOM
      1 CS         21.6460  -27.6790  -19.8310 C.3       1 MTA402      0.0000 
      2 S5'        21.6970  -27.7630  -18.0730 S.3       1 MTA402      0.0000 
      3 C5'        22.2740  -29.4160  -17.8750 C.3       1 MTA402      0.0000 
      4 C4'        23.7400  -29.5150  -18.2900 C.3       1 MTA402      0.0000 
      5 O4'        24.6030  -29.6020  -17.1560 O.3       1 MTA402      0.0000 
      6 C2'        24.6030  -31.7620  -18.1120 C.3       1 MTA402      0.0000 
      7 O2'        25.6660  -32.4490  -18.7760 O.3       1 MTA402      0.0000 
      8 C3'        23.9740  -30.7810  -19.0820 C.3       1 MTA402      0.0000 
      9 O3'        24.8910  -30.4610  -20.1300 O.3       1 MTA402      0.0000 
     10 C1'        25.1490  -30.9140  -16.9780 C.3       1 MTA402      0.0000 
     11 N9         24.6560  -31.2740  -15.6250 N.pl3     1 MTA402      0.0000 
     12 C8         23.3890  -31.0590  -15.2200 C.2       1 MTA402      0.0000 
     13 N7         23.2000  -31.4330  -13.9340 N.2       1 MTA402      0.0000 
     14 C5         24.3760  -31.8880  -13.4790 C.ar      1 MTA402      0.0000 
     15 C6         24.8600  -32.4350  -12.1940 C.ar      1 MTA402      0.0000 
     16 N6         24.0220  -32.5630  -11.1370 N.pl3     1 MTA402      0.0000 
     17 N1         26.1580  -32.7970  -12.1150 N.ar      1 MTA402      0.0000 
     18 C2         26.9860  -32.6690  -13.1670 C.ar      1 MTA402      0.0000 
     19 N3         26.6060  -32.1870  -14.3630 N.ar      1 MTA402      0.0000 
     20 C4         25.3370  -31.7780  -14.5890 C.ar      1 MTA402      0.0000 
@<TRIPOS>BOND
     1    1    2 1    
     2    2    3 1    
     3    3    4 1    
     4    4    5 1    
     5    4    8 1    
     6    5   10 1    
     7    6    7 1    
     8    6    8 1    
     9    6   10 1    
    10    8    9 1    
    11   10   11 1    
    12   11   12 1    
    13   11   20 1    
    14   12   13 2    
    15   13   14 1    
    16   14   15 ar   
    17   14   20 ar   
    18   15   16 1    
    19   15   17 ar   
    20   17   18 ar   
    21   18   19 ar   
    22   19   20 ar   
@<TRIPOS>SUBSTRUCTURE
     1 MTA402      1 GROUP   
@<TRIPOS>SET

