#    Name: 6ac4_2_FAD
#    Modification time : Fri May 22 19:26:49 2020

@<TRIPOS>MOLECULE
6ac4_2_FAD
   53    58     1     0     1
SMALL
NO_CHARGES


@<TRIPOS>ATOM
      1 PA         22.6450  -58.6550   80.7840 P.3       1 FAD3003     0.0000 
      2 O1A        21.3760  -57.9420   81.1560 O.co2     1 FAD3003     0.0000 
      3 O2A        22.8220  -59.2550   79.4420 O.co2     1 FAD3003     0.0000 
      4 O5B        23.9090  -57.6960   81.1450 O.3       1 FAD3003     0.0000 
      5 C5B        24.0960  -57.1920   82.4710 C.3       1 FAD3003     0.0000 
      6 C4B        25.4330  -56.4650   82.6840 C.3       1 FAD3003     0.0000 
      7 O4B        26.4940  -57.3790   82.7960 O.3       1 FAD3003     0.0000 
      8 C3B        25.8300  -55.5740   81.5380 C.3       1 FAD3003     0.0000 
      9 O3B        26.4680  -54.4230   82.0750 O.3       1 FAD3003     0.0000 
     10 C2B        26.7690  -56.3740   80.6790 C.3       1 FAD3003     0.0000 
     11 O2B        27.5600  -55.5240   79.8070 O.3       1 FAD3003     0.0000 
     12 C1B        27.4720  -57.1390   81.7660 C.3       1 FAD3003     0.0000 
     13 N9A        28.0100  -58.4920   81.5060 N.pl3     1 FAD3003     0.0000 
     14 C8A        27.3240  -59.6420   81.2890 C.2       1 FAD3003     0.0000 
     15 N7A        28.1800  -60.7090   81.1810 N.2       1 FAD3003     0.0000 
     16 C5A        29.4180  -60.2320   81.3640 C.ar      1 FAD3003     0.0000 
     17 C6A        30.7790  -60.7900   81.3850 C.ar      1 FAD3003     0.0000 
     18 N6A        30.9960  -62.0930   81.1760 N.pl3     1 FAD3003     0.0000 
     19 N1A        31.7860  -59.9410   81.5950 N.ar      1 FAD3003     0.0000 
     20 C2A        31.5850  -58.6270   81.8000 C.ar      1 FAD3003     0.0000 
     21 N3A        30.3770  -58.0540   81.7750 N.ar      1 FAD3003     0.0000 
     22 C4A        29.2900  -58.7870   81.5840 C.ar      1 FAD3003     0.0000 
     23 N1         18.8590  -59.8910   90.9210 N.2       1 FAD3003     0.0000 
     24 C2         19.0420  -60.2100   92.2350 C.2       1 FAD3003     0.0000 
     25 O2         20.2210  -60.1560   92.7450 O.2       1 FAD3003     0.0000 
     26 N3         17.9900  -60.6070   93.0040 N.am      1 FAD3003     0.0000 
     27 C4         16.7390  -60.7130   92.5290 C.2       1 FAD3003     0.0000 
     28 O4         15.7930  -61.0630   93.2400 O.2       1 FAD3003     0.0000 
     29 C4X        16.4820  -60.3820   91.1330 C.2       1 FAD3003     0.0000 
     30 N5         15.2470  -60.4570   90.6220 N.2       1 FAD3003     0.0000 
     31 C5X        15.0170  -60.1360   89.3360 C.ar      1 FAD3003     0.0000 
     32 C6         13.7250  -60.2480   88.8370 C.ar      1 FAD3003     0.0000 
     33 C7         13.4420  -59.9140   87.5200 C.ar      1 FAD3003     0.0000 
     34 C7M        12.0050  -60.0070   87.0270 C.3       1 FAD3003     0.0000 
     35 C8         14.5680  -59.4750   86.6500 C.ar      1 FAD3003     0.0000 
     36 C8M        14.3410  -59.1030   85.2080 C.3       1 FAD3003     0.0000 
     37 C9         15.8660  -59.3640   87.1480 C.ar      1 FAD3003     0.0000 
     38 C9A        16.1460  -59.6850   88.4650 C.ar      1 FAD3003     0.0000 
     39 N10        17.4530  -59.5970   89.0040 N.pl3     1 FAD3003     0.0000 
     40 C10        17.6470  -59.9380   90.3390 C.2       1 FAD3003     0.0000 
     41 C1'        18.6220  -59.1970   88.2130 C.3       1 FAD3003     0.0000 
     42 C2'        19.0850  -60.4180   87.4110 C.3       1 FAD3003     0.0000 
     43 O2'        19.7790  -61.3470   88.2520 O.3       1 FAD3003     0.0000 
     44 C3'        19.9980  -59.9300   86.3140 C.3       1 FAD3003     0.0000 
     45 O3'        19.0970  -59.3070   85.4050 O.3       1 FAD3003     0.0000 
     46 C4'        20.7440  -60.9780   85.5210 C.3       1 FAD3003     0.0000 
     47 O4'        21.4710  -61.9140   86.3150 O.3       1 FAD3003     0.0000 
     48 C5'        21.6980  -60.2950   84.5640 C.3       1 FAD3003     0.0000 
     49 O5'        22.2730  -61.2880   83.7130 O.3       1 FAD3003     0.0000 
     50 P          22.0480  -61.1570   82.1350 P.3       1 FAD3003     0.0000 
     51 O1P        22.7620  -62.3290   81.5190 O.co2     1 FAD3003     0.0000 
     52 O2P        20.5450  -60.9660   81.8680 O.co2     1 FAD3003     0.0000 
     53 O3P        22.9170  -59.8430   81.8190 O.3       1 FAD3003     0.0000 
@<TRIPOS>BOND
     1    1    2 ar   
     2    1    3 ar   
     3    1    4 1    
     4    1   53 1    
     5    4    5 1    
     6    5    6 1    
     7    6    7 1    
     8    6    8 1    
     9    7   12 1    
    10    8    9 1    
    11    8   10 1    
    12   10   11 1    
    13   10   12 1    
    14   12   13 1    
    15   13   14 1    
    16   13   22 1    
    17   14   15 2    
    18   15   16 1    
    19   16   17 ar   
    20   16   22 ar   
    21   17   18 1    
    22   17   19 ar   
    23   19   20 ar   
    24   20   21 ar   
    25   21   22 ar   
    26   23   24 1    
    27   23   40 2    
    28   24   25 2    
    29   24   26 am   
    30   26   27 am   
    31   27   28 2    
    32   27   29 1    
    33   29   30 2    
    34   29   40 1    
    35   30   31 1    
    36   31   32 ar   
    37   31   38 ar   
    38   32   33 ar   
    39   33   34 1    
    40   33   35 ar   
    41   35   36 1    
    42   35   37 ar   
    43   37   38 ar   
    44   38   39 1    
    45   39   40 1    
    46   39   41 1    
    47   41   42 1    
    48   42   43 1    
    49   42   44 1    
    50   44   45 1    
    51   44   46 1    
    52   46   47 1    
    53   46   48 1    
    54   48   49 1    
    55   49   50 1    
    56   50   51 ar   
    57   50   52 ar   
    58   50   53 1    
@<TRIPOS>SUBSTRUCTURE
     1 FAD3003     1 GROUP   
@<TRIPOS>SET
ATOM$ORANGE STATIC     ATOMS   COLORGROUP SYSTEM 
54 5 5 6 6 8 8 10 10 12 12 14 14 16 16 17 17 20 \
20 22 22 24 24 27 27 29 29 31 31 32 32 33 33 34 34 35 \
35 36 36 37 37 38 38 40 40 41 41 42 42 44 44 46 46 48 \
48 

