#    Name: 6ac4_1_FAD
#    Modification time : Fri May 22 19:26:30 2020

@<TRIPOS>MOLECULE
6ac4_1_FAD
   53    58     1     0     1
SMALL
NO_CHARGES


@<TRIPOS>ATOM
      1 PA         -1.2000  -46.7420   23.0410 P.3       1 FAD1401     0.0000 
      2 O1A        -2.2630  -47.6200   23.6520 O.co2     1 FAD1401     0.0000 
      3 O2A        -0.1700  -46.0820   23.8910 O.co2     1 FAD1401     0.0000 
      4 O5B        -0.5050  -47.5390   21.8230 O.3       1 FAD1401     0.0000 
      5 C5B        -1.3540  -48.1400   20.8210 C.3       1 FAD1401     0.0000 
      6 C4B        -0.5180  -48.8770   19.7870 C.3       1 FAD1401     0.0000 
      7 O4B         0.1900  -47.9850   18.9150 O.3       1 FAD1401     0.0000 
      8 C3B         0.5500  -49.7110   20.4510 C.3       1 FAD1401     0.0000 
      9 O3B         0.7450  -50.9260   19.7340 O.3       1 FAD1401     0.0000 
     10 C2B         1.8120  -48.8830   20.3450 C.3       1 FAD1401     0.0000 
     11 O2B         3.0170  -49.6510   20.3470 O.3       1 FAD1401     0.0000 
     12 C1B         1.6060  -48.2330   19.0250 C.3       1 FAD1401     0.0000 
     13 N9A         2.1710  -46.9210   18.8000 N.pl3     1 FAD1401     0.0000 
     14 C8A         1.8120  -45.7810   19.4060 C.2       1 FAD1401     0.0000 
     15 N7A         2.4790  -44.7290   18.8930 N.2       1 FAD1401     0.0000 
     16 C5A         3.2780  -45.2200   17.9240 C.ar      1 FAD1401     0.0000 
     17 C6A         4.1840  -44.6340   16.9380 C.ar      1 FAD1401     0.0000 
     18 N6A         4.4460  -43.3010   16.9590 N.pl3     1 FAD1401     0.0000 
     19 N1A         4.7940  -45.4950   16.1140 N.ar      1 FAD1401     0.0000 
     20 C2A         4.5530  -46.8330   16.1100 C.ar      1 FAD1401     0.0000 
     21 N3A         3.7190  -47.4310   16.9580 N.ar      1 FAD1401     0.0000 
     22 C4A         3.0630  -46.6670   17.8540 C.ar      1 FAD1401     0.0000 
     23 N1        -10.8990  -45.5270   18.4350 N.2       1 FAD1401     0.0000 
     24 C2        -11.7180  -45.2110   17.4040 C.2       1 FAD1401     0.0000 
     25 O2        -11.2650  -45.2540   16.2360 O.2       1 FAD1401     0.0000 
     26 N3        -13.0180  -44.8660   17.5730 N.am      1 FAD1401     0.0000 
     27 C4        -13.5780  -44.7860   18.7840 C.2       1 FAD1401     0.0000 
     28 O4        -14.7760  -44.4730   18.9340 O.2       1 FAD1401     0.0000 
     29 C4X       -12.7650  -45.1070   19.9710 C.2       1 FAD1401     0.0000 
     30 N5        -13.2850  -45.0410   21.2190 N.2       1 FAD1401     0.0000 
     31 C5X       -12.5680  -45.3230   22.3020 C.ar      1 FAD1401     0.0000 
     32 C6        -13.1490  -45.2960   23.5760 C.ar      1 FAD1401     0.0000 
     33 C7        -12.3840  -45.5960   24.7020 C.ar      1 FAD1401     0.0000 
     34 C7M       -12.9270  -45.5730   26.0970 C.3       1 FAD1401     0.0000 
     35 C8        -10.9750  -45.9610   24.5220 C.ar      1 FAD1401     0.0000 
     36 C8M       -10.1360  -46.3100   25.7080 C.3       1 FAD1401     0.0000 
     37 C9        -10.4120  -46.0080   23.2470 C.ar      1 FAD1401     0.0000 
     38 C9A       -11.1470  -45.7280   22.1050 C.ar      1 FAD1401     0.0000 
     39 N10       -10.5760  -45.7820   20.7920 N.pl3     1 FAD1401     0.0000 
     40 C10       -11.3530  -45.4670   19.7050 C.2       1 FAD1401     0.0000 
     41 C1'        -9.1960  -46.1230   20.5530 C.3       1 FAD1401     0.0000 
     42 C2'        -8.2980  -44.8750   20.6910 C.3       1 FAD1401     0.0000 
     43 O2'        -8.4070  -43.8370   19.6280 O.3       1 FAD1401     0.0000 
     44 C3'        -6.9010  -45.4350   20.6220 C.3       1 FAD1401     0.0000 
     45 O3'        -6.7980  -46.2930   21.7580 O.3       1 FAD1401     0.0000 
     46 C4'        -5.8040  -44.4080   20.7440 C.3       1 FAD1401     0.0000 
     47 O4'        -5.8300  -43.5060   19.6400 O.3       1 FAD1401     0.0000 
     48 C5'        -4.4800  -45.1240   20.8720 C.3       1 FAD1401     0.0000 
     49 O5'        -3.5800  -44.0820   21.1520 O.3       1 FAD1401     0.0000 
     50 P          -2.6130  -44.2820   22.3740 P.3       1 FAD1401     0.0000 
     51 O1P        -1.5610  -43.2160   22.3390 O.co2     1 FAD1401     0.0000 
     52 O2P        -3.4680  -44.4190   23.6070 O.co2     1 FAD1401     0.0000 
     53 O3P        -1.8970  -45.6570   22.0340 O.3       1 FAD1401     0.0000 
@<TRIPOS>BOND
     1    1    2 ar   
     2    1    3 ar   
     3    1    4 1    
     4    1   53 1    
     5    4    5 1    
     6    5    6 1    
     7    6    7 1    
     8    6    8 1    
     9    7   12 1    
    10    8    9 1    
    11    8   10 1    
    12   10   11 1    
    13   10   12 1    
    14   12   13 1    
    15   13   14 1    
    16   13   22 1    
    17   14   15 2    
    18   15   16 1    
    19   16   17 ar   
    20   16   22 ar   
    21   17   18 1    
    22   17   19 ar   
    23   19   20 ar   
    24   20   21 ar   
    25   21   22 ar   
    26   23   24 1    
    27   23   40 2    
    28   24   25 2    
    29   24   26 am   
    30   26   27 am   
    31   27   28 2    
    32   27   29 1    
    33   29   30 2    
    34   29   40 1    
    35   30   31 1    
    36   31   32 ar   
    37   31   38 ar   
    38   32   33 ar   
    39   33   34 1    
    40   33   35 ar   
    41   35   36 1    
    42   35   37 ar   
    43   37   38 ar   
    44   38   39 1    
    45   39   40 1    
    46   39   41 1    
    47   41   42 1    
    48   42   43 1    
    49   42   44 1    
    50   44   45 1    
    51   44   46 1    
    52   46   47 1    
    53   46   48 1    
    54   48   49 1    
    55   49   50 1    
    56   50   51 ar   
    57   50   52 ar   
    58   50   53 1    
@<TRIPOS>SUBSTRUCTURE
     1 FAD1401     1 GROUP   
@<TRIPOS>SET
ATOM$ORANGE STATIC     ATOMS   COLORGROUP SYSTEM 
54 5 5 6 6 8 8 10 10 12 12 14 14 16 16 17 17 20 \
20 22 22 24 24 27 27 29 29 31 31 32 32 33 33 34 34 35 \
35 36 36 37 37 38 38 40 40 41 41 42 42 44 44 46 46 48 \
48 

