#    Name: 6p5r_1_GDP
#    Modification time : Fri May 22 19:26:22 2020

@<TRIPOS>MOLECULE
6p5r_1_GDP
   28    30     1     0     1
SMALL
NO_CHARGES


@<TRIPOS>ATOM
      1 PB        -20.3560  -16.3270   -3.3020 P.3       1 GDP801      0.0000 
      2 O1B       -19.5470  -15.4330   -4.2120 O.co2     1 GDP801      0.0000 
      3 O2B       -19.4240  -17.1240   -2.4210 O.co2     1 GDP801      0.0000 
      4 O3B       -21.2630  -15.4810   -2.4400 O.co2     1 GDP801      0.0000 
      5 O3A       -21.2410  -17.3320   -4.1930 O.3       1 GDP801      0.0000 
      6 PA        -22.6330  -17.8930   -3.6180 P.3       1 GDP801      0.0000 
      7 O1A       -23.1730  -19.0150   -4.4730 O.co2     1 GDP801      0.0000 
      8 O2A       -22.4970  -18.3230   -2.1770 O.co2     1 GDP801      0.0000 
      9 O5'       -23.5430  -16.5740   -3.7530 O.3       1 GDP801      0.0000 
     10 C5'       -24.9390  -16.6420   -4.0040 C.3       1 GDP801      0.0000 
     11 C4'       -25.4820  -15.2250   -4.0160 C.3       1 GDP801      0.0000 
     12 O4'       -24.4620  -14.3090   -4.4170 O.3       1 GDP801      0.0000 
     13 C3'       -26.6070  -15.0680   -5.0270 C.3       1 GDP801      0.0000 
     14 O3'       -27.8510  -14.8560   -4.3550 O.3       1 GDP801      0.0000 
     15 C2'       -26.2450  -13.8440   -5.8430 C.3       1 GDP801      0.0000 
     16 O2'       -27.3590  -12.9590   -5.9650 O.3       1 GDP801      0.0000 
     17 C1'       -25.1430  -13.2100   -5.0160 C.3       1 GDP801      0.0000 
     18 N9        -24.2890  -12.2950   -5.8210 N.pl3     1 GDP801      0.0000 
     19 C8        -24.7670  -11.4530   -6.7540 C.2       1 GDP801      0.0000 
     20 N7        -23.7700  -10.7250   -7.3080 N.2       1 GDP801      0.0000 
     21 C5        -22.6180  -11.1060   -6.7320 C.2       1 GDP801      0.0000 
     22 C6        -21.1930  -10.7330   -6.8650 C.2       1 GDP801      0.0000 
     23 O6        -20.8310   -9.8640   -7.6860 O.2       1 GDP801      0.0000 
     24 N1        -20.3040  -11.3520   -6.0800 N.am      1 GDP801      0.0000 
     25 C2        -20.6700  -12.2910   -5.1880 C.2       1 GDP801      0.0000 
     26 N2        -19.7050  -12.8690   -4.4330 N.pl3     1 GDP801      0.0000 
     27 N3        -21.9600  -12.6830   -5.0120 N.2       1 GDP801      0.0000 
     28 C4        -22.9630  -12.1360   -5.7420 C.2       1 GDP801      0.0000 
@<TRIPOS>BOND
     1    1    2 ar   
     2    1    3 ar   
     3    1    4 ar   
     4    1    5 1    
     5    5    6 1    
     6    6    7 ar   
     7    6    8 ar   
     8    6    9 1    
     9    9   10 1    
    10   10   11 1    
    11   11   12 1    
    12   11   13 1    
    13   12   17 1    
    14   13   14 1    
    15   13   15 1    
    16   15   16 1    
    17   15   17 1    
    18   17   18 1    
    19   18   19 1    
    20   18   28 1    
    21   19   20 2    
    22   20   21 1    
    23   21   22 1    
    24   21   28 2    
    25   22   23 2    
    26   22   24 am   
    27   24   25 1    
    28   25   26 1    
    29   25   27 2    
    30   27   28 1    
@<TRIPOS>SUBSTRUCTURE
     1 GDP801      1 GROUP   
@<TRIPOS>SET
ATOM$ORANGE STATIC     ATOMS   COLORGROUP SYSTEM 
20 10 10 11 11 13 13 15 15 17 17 19 19 21 21 22 22 25 \
25 28 28 

