#    Name: 6a46_2_DCM_CAVITY_N1_8
#    Modification time : Fri May 22 19:30:30 2020

@<TRIPOS>MOLECULE
6a46_2_DCM_CAVITY_N1_8
   70     0     7     0     0
SMALL
NO_CHARGES


@<TRIPOS>ATOM
      1 OG          6.3000  -19.3900   29.6300 O.3       1 SER1        0.0000 
      2 OG          6.8800  -18.6500   30.8000 O.3       1 SER1        0.0000 
      3 OG          6.0300  -19.4600   31.7400 O.3       1 SER1        0.0000 
      4 OG          2.7400  -16.4100   31.4100 O.3       1 SER1        0.0000 
      5 OG          3.3100  -15.6700   32.5800 O.3       1 SER1        0.0000 
      6 OG          2.2100  -14.6500   32.4700 O.3       1 SER1        0.0000 
      7 N           7.1500  -18.5800   28.7000 N.am      2 ALA2        0.0000 
      8 O           6.0500  -17.5600   28.5900 O.2       2 ALA2        0.0000 
      9 N           7.4000  -20.4100   29.7400 N.am      2 ALA2        0.0000 
     10 N           7.1300  -20.4800   31.8400 N.am      2 ALA2        0.0000 
     11 O           6.9000  -18.0500   36.1800 O.2       2 ALA2        0.0000 
     12 OD1         5.7100  -22.0400   31.6100 O.co2     3 ASP3        0.0000 
     13 OD1         4.1600  -14.8600   31.6500 O.co2     3 ASP3        0.0000 
     14 OD1         4.9800  -15.9400   33.8600 O.co2     3 ASP3        0.0000 
     15 OD1         3.8800  -14.9300   33.7500 O.co2     3 ASP3        0.0000 
     16 NZ          5.2100  -18.3800   29.5300 N.4       4 LYS4        0.0000 
     17 NZ          4.1100  -17.3600   29.4200 N.4       4 LYS4        0.0000 
     18 NZ          6.6300  -16.8200   29.7600 N.4       4 LYS4        0.0000 
     19 NZ          5.7800  -17.6300   30.7000 N.4       4 LYS4        0.0000 
     20 NZ          4.6800  -16.6200   30.5900 N.4       4 LYS4        0.0000 
     21 NZ          3.5800  -15.6000   30.4800 N.4       4 LYS4        0.0000 
     22 NZ          5.2500  -15.8700   31.7600 N.4       4 LYS4        0.0000 
     23 CZ          1.8900  -17.2300   32.3400 C.ar      5 PHE5        0.0000 
     24 CZ          7.4500  -17.9100   31.9800 C.ar      5 PHE5        0.0000 
     25 CZ          6.3500  -16.8900   31.8700 C.ar      5 PHE5        0.0000 
     26 CZ          7.7000  -19.7400   33.0200 C.ar      5 PHE5        0.0000 
     27 CZ          6.6000  -18.7200   32.9100 C.ar      5 PHE5        0.0000 
     28 CZ          2.4600  -16.4900   33.5100 C.ar      5 PHE5        0.0000 
     29 CZ          8.0200  -17.1600   33.1500 C.ar      5 PHE5        0.0000 
     30 CZ          8.2700  -18.9900   34.1900 C.ar      5 PHE5        0.0000 
     31 CZ          7.1700  -17.9800   34.0800 C.ar      5 PHE5        0.0000 
     32 CA          5.7300  -20.1300   28.4600 C.3       6 GLY6        0.0000 
     33 CA          4.6300  -19.1200   28.3500 C.3       6 GLY6        0.0000 
     34 CA          5.9800  -21.9700   29.5000 C.3       6 GLY6        0.0000 
     35 CA          4.8800  -20.9500   29.3900 C.3       6 GLY6        0.0000 
     36 CA          3.7900  -19.9300   29.2900 C.3       6 GLY6        0.0000 
     37 CA          4.0400  -21.7600   30.3300 C.3       6 GLY6        0.0000 
     38 CA          2.9400  -20.7500   30.2200 C.3       6 GLY6        0.0000 
     39 CA          3.1900  -22.5800   31.2600 C.3       6 GLY6        0.0000 
     40 CA          2.0900  -21.5600   31.1500 C.3       6 GLY6        0.0000 
     41 CA          0.1500  -21.3600   31.9700 C.3       6 GLY6        0.0000 
     42 CA          6.5500  -21.2200   30.6700 C.3       6 GLY6        0.0000 
     43 CA          4.3600  -19.1900   30.4600 C.3       6 GLY6        0.0000 
     44 CA          3.2600  -18.1700   30.3500 C.3       6 GLY6        0.0000 
     45 CA          2.4100  -18.9900   31.2800 C.3       6 GLY6        0.0000 
     46 CA          4.8600  -22.8500   32.5400 C.3       6 GLY6        0.0000 
     47 CA          3.7600  -21.8400   32.4300 C.3       6 GLY6        0.0000 
     48 CA          1.5700  -19.8000   32.2100 C.3       6 GLY6        0.0000 
     49 CA          3.8300  -17.4300   31.5200 C.3       6 GLY6        0.0000 
     50 CA          5.1800  -20.2800   32.6700 C.3       6 GLY6        0.0000 
     51 CA          2.9900  -18.2500   32.4500 C.3       6 GLY6        0.0000 
     52 CA          4.3300  -21.0900   33.6000 C.3       6 GLY6        0.0000 
     53 CA          5.7500  -19.5400   33.8400 C.3       6 GLY6        0.0000 
     54 CA          7.4200  -19.8100   35.1200 C.3       6 GLY6        0.0000 
     55 CA          6.3300  -18.7900   35.0100 C.3       6 GLY6        0.0000 
     56 DU          5.4600  -20.2100   30.5700 H         7 CUB7        0.0000 
     57 DU          4.6100  -21.0200   31.5000 H         7 CUB7        0.0000 
     58 DU          3.5100  -20.0100   31.3900 H         7 CUB7        0.0000 
     59 DU          2.6600  -20.8200   32.3200 H         7 CUB7        0.0000 
     60 DU          4.9300  -18.4500   31.6300 H         7 CUB7        0.0000 
     61 DU          4.0800  -19.2600   32.5600 H         7 CUB7        0.0000 
     62 DU          3.2400  -20.0800   33.4900 H         7 CUB7        0.0000 
     63 DU          5.5000  -17.7000   32.8000 H         7 CUB7        0.0000 
     64 DU          4.4100  -16.6900   32.6900 H         7 CUB7        0.0000 
     65 DU          4.6600  -18.5200   33.7300 H         7 CUB7        0.0000 
     66 DU          3.5600  -17.5000   33.6200 H         7 CUB7        0.0000 
     67 DU          6.0800  -16.9600   33.9700 H         7 CUB7        0.0000 
     68 DU          3.0300  -15.7400   34.6800 H         7 CUB7        0.0000 
     69 DU          5.8000  -17.0300   36.0700 H         7 CUB7        0.0000 
     70 DU          4.7000  -16.0200   35.9600 H         7 CUB7        0.0000 
@<TRIPOS>BOND
@<TRIPOS>SUBSTRUCTURE
     1 SER1        1 GROUP   
     2 ALA2        7 GROUP   
     3 ASP3       12 GROUP   
     4 LYS4       16 GROUP   
     5 PHE5       23 GROUP   
     6 GLY6       32 GROUP   
     7 CUB7       56 GROUP   
@<TRIPOS>SET

