#    Name: 6a46_2_DCM
#    Modification time : Fri May 22 19:30:29 2020

@<TRIPOS>MOLECULE
6a46_2_DCM
   32    33     1     0     0
SMALL
NO_CHARGES


@<TRIPOS>ATOM
      1 N1          5.2460  -20.6280   31.6440 N.am      1 DCM301      0.0000 
      2 C2          5.3260  -22.0660   31.9250 C.2       1 DCM301      0.0000 
      3 N3          4.3970  -22.6740   32.8880 N.2       1 DCM301      0.0000 
      4 C4          3.4300  -21.8880   33.5420 C.2       1 DCM301      0.0000 
      5 C5          3.3480  -20.4540   33.2670 C.2       1 DCM301      0.0000 
      6 C6          4.2710  -19.8370   32.3120 C.2       1 DCM301      0.0000 
      7 O2          6.1420  -22.7370   31.3710 O.2       1 DCM301      0.0000 
      8 N4          2.5270  -22.4990   34.4790 N.pl3     1 DCM301      0.0000 
      9 C1'         6.1670  -20.0390   30.7040 C.3       1 DCM301      0.0000 
     10 C2'         5.3790  -19.2770   29.5300 C.3       1 DCM301      0.0000 
     11 C3'         5.6360  -18.0120   29.6040 C.3       1 DCM301      0.0000 
     12 C4'         6.6800  -17.8170   30.7060 C.3       1 DCM301      0.0000 
     13 O4'         6.9180  -19.1900   31.3230 O.3       1 DCM301      0.0000 
     14 O3'         6.1930  -17.5400   28.2890 O.3       1 DCM301      0.0000 
     15 C5'         6.1920  -16.9120   31.7030 C.3       1 DCM301      0.0000 
     16 O5'         5.7970  -15.6870   31.0970 O.3       1 DCM301      0.0000 
     17 P           4.5850  -14.8380   31.7970 P.3       1 DCM301      0.0000 
     18 O1P         3.2400  -15.4040   31.3510 O.co2     1 DCM301      0.0000 
     19 O2P         4.7020  -14.9260   33.2930 O.co2     1 DCM301      0.0000 
     20 O3P         4.6800  -13.4110   31.3820 O.co2     1 DCM301      0.0000 
     21 H5          2.6760  -19.9060   33.7240 H         1 DCM301      0.0000 
     22 H6          4.2130  -18.8570   32.1260 H         1 DCM301      0.0000 
     23 HN41        2.5800  -23.3990   34.6500 H         1 DCM301      0.0000 
     24 HN42        1.8880  -21.9810   34.9140 H         1 DCM301      0.0000 
     25 H1'         6.7250  -20.7410   30.3150 H         1 DCM301      0.0000 
     26 H2'1        5.6720  -19.6200   28.6640 H         1 DCM301      0.0000 
     27 H2'2        4.4040  -19.4250   29.6340 H         1 DCM301      0.0000 
     28 H3'         4.8280  -17.5210   29.8200 H         1 DCM301      0.0000 
     29 H4'         7.5070  -17.4780   30.3250 H         1 DCM301      0.0000 
     30 HO3'        5.5920  -17.0460   27.8750 H         1 DCM301      0.0000 
     31 H5'1        6.8710  -16.7430   32.3520 H         1 DCM301      0.0000 
     32 H5'2        5.4360  -17.3050   32.1390 H         1 DCM301      0.0000 
@<TRIPOS>BOND
     1    1    2 am   
     2    1    6 1    
     3    1    9 1    
     4    2    3 1    
     5    2    7 2    
     6    3    4 2    
     7    4    5 1    
     8    4    8 1    
     9    5    6 2    
    10    5   21 1    
    11    6   22 1    
    12    8   23 1    
    13    8   24 1    
    14    9   10 1    
    15    9   13 1    
    16    9   25 1    
    17   10   11 1    
    18   10   26 1    
    19   10   27 1    
    20   11   28 1    
    21   11   12 1    
    22   11   14 1    
    23   12   13 1    
    24   12   15 1    
    25   12   29 1    
    26   15   16 1    
    27   14   30 1    
    28   15   31 1    
    29   15   32 1    
    30   16   17 1    
    31   17   18 ar   
    32   17   19 ar   
    33   17   20 ar   
@<TRIPOS>SUBSTRUCTURE
     1 DCM301      1 GROUP   
@<TRIPOS>SET

