#    Name: 6fwa_2_FAD
#    Modification time : Fri May 22 19:28:38 2020

@<TRIPOS>MOLECULE
6fwa_2_FAD
   53    58     1     0     1
SMALL
NO_CHARGES


@<TRIPOS>ATOM
      1 PA         34.9760   25.9110  -18.8970 P.3       1 FAD501      0.0000 
      2 O1A        35.1830   27.3850  -18.6930 O.co2     1 FAD501      0.0000 
      3 O2A        35.5990   25.0030  -17.8670 O.co2     1 FAD501      0.0000 
      4 O5B        33.4460   25.6110  -18.9790 O.3       1 FAD501      0.0000 
      5 C5B        33.1430   24.2510  -18.7740 C.3       1 FAD501      0.0000 
      6 C4B        31.7030   24.2000  -18.4800 C.3       1 FAD501      0.0000 
      7 O4B        31.2580   22.7800  -18.6330 O.3       1 FAD501      0.0000 
      8 C3B        31.5560   24.6710  -17.1050 C.3       1 FAD501      0.0000 
      9 O3B        30.3610   25.4550  -16.9360 O.3       1 FAD501      0.0000 
     10 C2B        31.3930   23.4340  -16.3480 C.3       1 FAD501      0.0000 
     11 O2B        30.6600   23.7760  -15.1530 O.3       1 FAD501      0.0000 
     12 C1B        30.6490   22.5710  -17.3100 C.3       1 FAD501      0.0000 
     13 N9A        30.5920   21.2080  -16.9680 N.pl3     1 FAD501      0.0000 
     14 C8A        31.4620   20.4570  -16.5670 C.2       1 FAD501      0.0000 
     15 N7A        31.2080   19.4390  -16.2870 N.2       1 FAD501      0.0000 
     16 C5A        30.0840   19.0110  -16.3330 C.ar      1 FAD501      0.0000 
     17 C6A        29.0400   17.8420  -16.0890 C.ar      1 FAD501      0.0000 
     18 N6A        29.4610   16.5760  -15.6300 N.pl3     1 FAD501      0.0000 
     19 N1A        27.6590   18.1420  -16.3650 N.ar      1 FAD501      0.0000 
     20 C2A        27.3550   19.2740  -16.7610 C.ar      1 FAD501      0.0000 
     21 N3A        28.0430   20.2180  -16.9630 N.ar      1 FAD501      0.0000 
     22 C4A        29.2510   20.3120  -16.8700 C.ar      1 FAD501      0.0000 
     23 N1         42.0980   32.4180  -20.2710 N.2       1 FAD501      0.0000 
     24 C2         42.4950   33.5740  -21.0900 C.2       1 FAD501      0.0000 
     25 O2         42.3950   33.4630  -22.2700 O.2       1 FAD501      0.0000 
     26 N3         43.0170   34.7720  -20.5280 N.am      1 FAD501      0.0000 
     27 C4         43.1400   34.8860  -19.1670 C.2       1 FAD501      0.0000 
     28 O4         43.5090   35.9170  -18.6240 O.2       1 FAD501      0.0000 
     29 C4X        42.7660   33.7460  -18.3370 C.2       1 FAD501      0.0000 
     30 N5         42.8800   33.8450  -17.0420 N.2       1 FAD501      0.0000 
     31 C5X        42.4650   32.7140  -16.2130 C.ar      1 FAD501      0.0000 
     32 C6         42.5930   32.8740  -14.8490 C.ar      1 FAD501      0.0000 
     33 C7         42.2060   31.8490  -13.9880 C.ar      1 FAD501      0.0000 
     34 C7M        42.3780   32.0590  -12.4860 C.3       1 FAD501      0.0000 
     35 C8         41.6920   30.6750  -14.5050 C.ar      1 FAD501      0.0000 
     36 C8M        41.2970   29.5640  -13.5320 C.3       1 FAD501      0.0000 
     37 C9         41.5540   30.4920  -15.8870 C.ar      1 FAD501      0.0000 
     38 C9A        41.9440   31.5350  -16.7610 C.ar      1 FAD501      0.0000 
     39 N10        41.8130   31.4250  -18.1750 N.pl3     1 FAD501      0.0000 
     40 C10        42.2130   32.5040  -18.9740 C.2       1 FAD501      0.0000 
     41 C1'        41.2940   30.1880  -18.8430 C.3       1 FAD501      0.0000 
     42 C2'        39.8370   30.2390  -19.2840 C.3       1 FAD501      0.0000 
     43 O2'        39.0220   30.4940  -18.2000 O.3       1 FAD501      0.0000 
     44 C3'        39.4860   28.8610  -19.8440 C.3       1 FAD501      0.0000 
     45 O3'        40.5430   28.3210  -20.5990 O.3       1 FAD501      0.0000 
     46 C4'        38.2700   28.9350  -20.7200 C.3       1 FAD501      0.0000 
     47 O4'        37.3100   29.7910  -20.1570 O.3       1 FAD501      0.0000 
     48 C5'        37.7110   27.5170  -20.8180 C.3       1 FAD501      0.0000 
     49 O5'        36.4960   27.5410  -21.5390 O.3       1 FAD501      0.0000 
     50 P          35.6010   26.2310  -21.6040 P.3       1 FAD501      0.0000 
     51 O1P        34.2340   26.7710  -21.8750 O.co2     1 FAD501      0.0000 
     52 O2P        36.0170   25.1710  -22.5780 O.co2     1 FAD501      0.0000 
     53 O3P        35.6140   25.4230  -20.2470 O.3       1 FAD501      0.0000 
@<TRIPOS>BOND
     1    1   53 1    
     2    1    2 ar   
     3    1    3 ar   
     4    1    4 1    
     5    4    5 1    
     6    5    6 1    
     7    6    7 1    
     8    6    8 1    
     9    7   12 1    
    10    8    9 1    
    11    8   10 1    
    12   10   11 1    
    13   10   12 1    
    14   12   13 1    
    15   13   14 1    
    16   13   22 1    
    17   14   15 2    
    18   15   16 1    
    19   16   17 ar   
    20   16   22 ar   
    21   17   18 1    
    22   17   19 ar   
    23   19   20 ar   
    24   20   21 ar   
    25   21   22 ar   
    26   23   24 1    
    27   23   40 2    
    28   24   25 2    
    29   24   26 am   
    30   26   27 am   
    31   27   28 2    
    32   27   29 1    
    33   29   30 2    
    34   29   40 1    
    35   30   31 1    
    36   31   32 ar   
    37   31   38 ar   
    38   32   33 ar   
    39   33   34 1    
    40   33   35 ar   
    41   35   36 1    
    42   35   37 ar   
    43   37   38 ar   
    44   38   39 1    
    45   39   40 1    
    46   39   41 1    
    47   41   42 1    
    48   42   43 1    
    49   42   44 1    
    50   44   45 1    
    51   44   46 1    
    52   46   47 1    
    53   46   48 1    
    54   48   49 1    
    55   49   50 1    
    56   50   51 ar   
    57   50   52 ar   
    58   50   53 1    
@<TRIPOS>SUBSTRUCTURE
     1 FAD501      1 GROUP   
@<TRIPOS>SET
ATOM$ORANGE STATIC     ATOMS   COLORGROUP SYSTEM 
54 5 5 6 6 8 8 10 10 12 12 14 14 16 16 17 17 20 \
20 22 22 24 24 27 27 29 29 31 31 32 32 33 33 34 34 35 \
35 36 36 37 37 38 38 40 40 41 41 42 42 44 44 46 46 48 \
48 

