#    Name: 6fwa_1_FAD
#    Modification time : Fri May 22 19:28:30 2020

@<TRIPOS>MOLECULE
6fwa_1_FAD
   53    59     1     0     1
SMALL
NO_CHARGES


@<TRIPOS>ATOM
      1 PA         17.8240   20.4420    8.4400 P.3       1 FAD501      0.0000 
      2 O1A        17.0360   21.7070    8.4730 O.co2     1 FAD501      0.0000 
      3 O2A        17.2940   19.4570    7.4410 O.co2     1 FAD501      0.0000 
      4 O5B        19.2870   20.9700    8.2070 O.3       1 FAD501      0.0000 
      5 C5B        20.2730   19.9710    8.2000 C.3       1 FAD501      0.0000 
      6 C4B        21.5340   20.6360    7.8450 C.3       1 FAD501      0.0000 
      7 O4B        22.5770   19.5820    7.7080 O.3       1 FAD501      0.0000 
      8 C3B        21.4100   21.2930    6.5400 C.3       1 FAD501      0.0000 
      9 O3B        21.9200   22.6410    6.6190 O.3       1 FAD501      0.0000 
     10 C2B        22.2060   20.4890    5.5990 C.3       1 FAD501      0.0000 
     11 O2B        22.7680   21.3210    4.5720 O.3       1 FAD501      0.0000 
     12 C1B        23.2560   19.9430    6.4440 C.3       1 FAD501      0.0000 
     13 N9A        23.7360   18.7370    5.9780 N.pl3     1 FAD501      0.0000 
     14 C8A        23.1140   17.7420    5.6830 Du        1 FAD501      0.0000 
     15 N7A        23.6330   16.8490    5.3580 N.2       1 FAD501      0.0000 
     16 C5A        24.8250   16.7820    5.3080 C.ar      1 FAD501      0.0000 
     17 C6A        26.1470   15.9650    4.9690 C.ar      1 FAD501      0.0000 
     18 N6A        26.0720   14.6310    4.5000 N.pl3     1 FAD501      0.0000 
     19 N1A        27.3940   16.6500    5.1690 N.ar      1 FAD501      0.0000 
     20 C2A        27.3470   17.8040    5.5700 C.ar      1 FAD501      0.0000 
     21 N3A        26.4220   18.5040    5.8380 N.ar      1 FAD501      0.0000 
     22 C4A        25.2490   18.2820    5.7930 C.ar      1 FAD501      0.0000 
     23 N1          8.5070   23.0580   10.1900 N.2       1 FAD501      0.0000 
     24 C2          7.6450   23.8450   11.0860 C.2       1 FAD501      0.0000 
     25 O2          7.7800   23.6600   12.2730 O.2       1 FAD501      0.0000 
     26 N3          6.6670   24.7430   10.5450 N.am      1 FAD501      0.0000 
     27 C4          6.5630   24.9270    9.1810 C.2       1 FAD501      0.0000 
     28 O4          5.8260   25.7890    8.7090 O.2       1 FAD501      0.0000 
     29 C4X         7.4210   24.1240    8.2840 C.2       1 FAD501      0.0000 
     30 N5          7.3560   24.2470    6.9680 N.2       1 FAD501      0.0000 
     31 C5X         8.2670   23.4540    6.1220 C.ar      1 FAD501      0.0000 
     32 C6          8.2000   23.5750    4.7290 C.ar      1 FAD501      0.0000 
     33 C7          9.0540   22.8430    3.8860 C.ar      1 FAD501      0.0000 
     34 C7M         8.9330   22.9950    2.3850 C.3       1 FAD501      0.0000 
     35 C8          9.9740   21.9900    4.4470 C.ar      1 FAD501      0.0000 
     36 C8M        10.9050   21.1880    3.5710 C.3       1 FAD501      0.0000 
     37 C9         10.0530   21.8480    5.8350 C.ar      1 FAD501      0.0000 
     38 C9A         9.1980   22.5850    6.6850 C.ar      1 FAD501      0.0000 
     39 N10         9.2880   22.4530    8.0940 N.pl3     1 FAD501      0.0000 
     40 C10         8.4200   23.1930    8.9010 C.2       1 FAD501      0.0000 
     41 C1'        10.2670   21.4980    8.7150 C.3       1 FAD501      0.0000 
     42 C2'        11.4040   22.1620    9.4420 C.3       1 FAD501      0.0000 
     43 O2'        11.9120   23.1460    8.6220 O.3       1 FAD501      0.0000 
     44 C3'        12.3990   21.0410    9.6600 C.3       1 FAD501      0.0000 
     45 O3'        11.7420   19.9410   10.2260 O.3       1 FAD501      0.0000 
     46 C4'        13.5250   21.5170   10.5210 C.3       1 FAD501      0.0000 
     47 O4'        13.9860   22.7510   10.0040 O.3       1 FAD501      0.0000 
     48 C5'        14.6300   20.4630   10.4710 C.3       1 FAD501      0.0000 
     49 O5'        15.8580   21.0340   10.9030 O.3       1 FAD501      0.0000 
     50 P          17.1030   20.1000   11.1900 P.3       1 FAD501      0.0000 
     51 O1P        18.0490   20.9620   12.0050 O.co2     1 FAD501      0.0000 
     52 O2P        16.6550   18.8070   11.7910 O.co2     1 FAD501      0.0000 
     53 O3P        17.8430   19.6640    9.8350 O.3       1 FAD501      0.0000 
@<TRIPOS>BOND
     1    8    9 1    
     2    8   10 1    
     3   10   11 1    
     4   10   12 1    
     5   12   13 1    
     6   13   14 du   
     7   13   22 1    
     8   14   15 du   
     9   14   16 du   
    10   15   16 1    
    11   16   17 ar   
    12   16   22 ar   
    13   17   18 1    
    14   17   19 ar   
    15   19   20 ar   
    16   20   21 ar   
    17   21   22 ar   
    18   23   24 1    
    19   23   40 2    
    20   24   25 2    
    21   24   26 am   
    22   26   27 am   
    23   27   28 2    
    24   27   29 1    
    25   29   30 2    
    26   29   40 1    
    27   30   31 1    
    28   31   32 ar   
    29   31   38 ar   
    30   32   33 ar   
    31   33   34 1    
    32   33   35 ar   
    33   35   36 1    
    34   35   37 ar   
    35   37   38 ar   
    36   38   39 1    
    37   39   40 1    
    38   39   41 1    
    39   41   42 1    
    40   42   43 1    
    41   42   44 1    
    42   44   45 1    
    43   44   46 1    
    44   46   47 1    
    45   46   48 1    
    46   48   49 1    
    47   49   50 1    
    48   50   51 ar   
    49   50   52 ar   
    50   50   53 1    
    51    1    2 ar   
    52    1    3 ar   
    53    1    4 1    
    54    1   53 1    
    55    4    5 1    
    56    5    6 1    
    57    6    7 1    
    58    6    8 1    
    59    7   12 1    
@<TRIPOS>SUBSTRUCTURE
     1 FAD501      1 GROUP   
@<TRIPOS>SET
ATOM$ORANGE STATIC     ATOMS   COLORGROUP SYSTEM 
52 5 5 6 6 8 8 10 10 12 12 16 16 17 17 20 20 22 \
22 24 24 27 27 29 29 31 31 32 32 33 33 34 34 35 35 36 \
36 37 37 38 38 40 40 41 41 42 42 44 44 46 46 48 48 

