#    Name: 5xih_3_ANP_CAVITY_N1_8
#    Modification time : Fri May 22 19:15:20 2020

@<TRIPOS>MOLECULE
5xih_3_ANP_CAVITY_N1_8
   81     0     7     0     0
SMALL
NO_CHARGES


@<TRIPOS>ATOM
      1 OG         25.4900  -20.5200   65.7700 O.3       1 SER1        0.0000 
      2 OG         26.1200  -19.6200   66.8000 O.3       1 SER1        0.0000 
      3 OG         28.0300  -19.5200   67.7200 O.3       1 SER1        0.0000 
      4 N          21.5000  -24.2300   67.1100 N.am      2 ALA2        0.0000 
      5 N          21.0200  -25.1400   68.2000 N.am      2 ALA2        0.0000 
      6 N          23.2500  -24.1200   65.9100 N.am      2 ALA2        0.0000 
      7 N          22.2800  -25.9300   68.1000 N.am      2 ALA2        0.0000 
      8 N          20.5600  -19.9400   66.1400 N.am      2 ALA2        0.0000 
      9 N          22.3100  -19.8300   64.9500 N.am      2 ALA2        0.0000 
     10 N          21.8300  -20.7300   66.0400 N.am      2 ALA2        0.0000 
     11 N          23.5800  -20.6200   64.8500 N.am      2 ALA2        0.0000 
     12 N          24.8500  -21.4100   64.7500 N.am      2 ALA2        0.0000 
     13 N          23.8900  -23.2300   66.9400 N.am      2 ALA2        0.0000 
     14 N          23.4000  -24.1300   68.0300 N.am      2 ALA2        0.0000 
     15 N          24.6700  -24.9300   67.9300 N.am      2 ALA2        0.0000 
     16 N          28.8200  -21.2200   68.7100 N.am      2 ALA2        0.0000 
     17 OD1        24.3700  -22.3200   65.8400 O.co2     3 ASP3        0.0000 
     18 OD1        25.1600  -24.0200   66.8400 O.co2     3 ASP3        0.0000 
     19 OD1        24.1900  -25.8300   69.0300 O.co2     3 ASP3        0.0000 
     20 OD1        21.5000  -21.6500   69.2500 O.co2     3 ASP3        0.0000 
     21 OD1        21.0200  -22.5600   70.3400 O.co2     3 ASP3        0.0000 
     22 OD1        22.7700  -22.4500   69.1500 O.co2     3 ASP3        0.0000 
     23 OD1        22.2900  -23.3500   70.2400 O.co2     3 ASP3        0.0000 
     24 OD1        21.8100  -24.2600   71.3400 O.co2     3 ASP3        0.0000 
     25 OD1        24.0400  -23.2400   69.0500 O.co2     3 ASP3        0.0000 
     26 OD1        23.5600  -24.1500   70.1500 O.co2     3 ASP3        0.0000 
     27 OD1        23.0800  -25.0500   71.2400 O.co2     3 ASP3        0.0000 
     28 OD1        26.7600  -21.3100   65.6700 O.co2     3 ASP3        0.0000 
     29 OD1        26.2700  -22.2200   66.7700 O.co2     3 ASP3        0.0000 
     30 OD1        25.7900  -23.1200   67.8600 O.co2     3 ASP3        0.0000 
     31 OD1        25.3100  -24.0300   68.9500 O.co2     3 ASP3        0.0000 
     32 OD1        24.8300  -24.9400   70.0500 O.co2     3 ASP3        0.0000 
     33 OD1        26.5800  -24.8200   68.8600 O.co2     3 ASP3        0.0000 
     34 OD1        23.8900  -20.6500   69.0800 O.co2     3 ASP3        0.0000 
     35 OD1        25.1600  -21.4400   68.9800 O.co2     3 ASP3        0.0000 
     36 OD1        24.6800  -22.3500   70.0700 O.co2     3 ASP3        0.0000 
     37 OD1        27.3900  -20.4200   66.7000 O.co2     3 ASP3        0.0000 
     38 OD1        26.9100  -21.3200   67.7900 O.co2     3 ASP3        0.0000 
     39 OD1        26.4300  -22.2300   68.8800 O.co2     3 ASP3        0.0000 
     40 OD1        27.7000  -23.0200   68.7900 O.co2     3 ASP3        0.0000 
     41 OD1        27.0700  -21.3400   69.9100 O.co2     3 ASP3        0.0000 
     42 OD1        28.3400  -22.1300   69.8100 O.co2     3 ASP3        0.0000 
     43 NZ         27.7000  -20.4400   70.9300 N.4       4 LYS4        0.0000 
     44 CZ         19.2600  -25.2500   69.3900 C.ar      5 PHE5        0.0000 
     45 CZ         20.6900  -26.0600   71.4100 C.ar      5 PHE5        0.0000 
     46 CZ         21.2000  -19.0500   67.1600 C.ar      5 PHE5        0.0000 
     47 CZ         20.7100  -19.9500   68.2500 C.ar      5 PHE5        0.0000 
     48 CZ         22.4700  -19.8400   67.0600 C.ar      5 PHE5        0.0000 
     49 CZ         21.9800  -20.7500   68.1600 C.ar      5 PHE5        0.0000 
     50 CZ         23.1000  -18.9500   68.0800 C.ar      5 PHE5        0.0000 
     51 CZ         22.6200  -19.8500   69.1800 C.ar      5 PHE5        0.0000 
     52 CZ         26.2800  -19.6400   68.9100 C.ar      5 PHE5        0.0000 
     53 CZ         25.8000  -20.5400   70.0000 C.ar      5 PHE5        0.0000 
     54 CZ         28.1900  -19.5400   69.8300 C.ar      5 PHE5        0.0000 
     55 CA         19.7500  -24.3500   68.3000 C.3       6 GLY6        0.0000 
     56 CA         18.7800  -26.1600   70.4800 C.3       6 GLY6        0.0000 
     57 CA         22.9400  -21.5100   63.8300 C.3       6 GLY6        0.0000 
     58 CA         22.4600  -22.4200   64.9200 C.3       6 GLY6        0.0000 
     59 CA         21.9800  -23.3300   66.0100 C.3       6 GLY6        0.0000 
     60 CA         23.7300  -23.2100   64.8200 C.3       6 GLY6        0.0000 
     61 CA         21.3500  -21.6400   67.1300 C.3       6 GLY6        0.0000 
     62 CA         20.8600  -22.5500   68.2300 C.3       6 GLY6        0.0000 
     63 CA         22.6200  -22.4300   67.0400 C.3       6 GLY6        0.0000 
     64 CA         22.9500  -18.9300   65.9700 C.3       6 GLY6        0.0000 
     65 CA         24.2200  -19.7300   65.8700 C.3       6 GLY6        0.0000 
     66 CA         23.7400  -20.6300   66.9600 C.3       6 GLY6        0.0000 
     67 CA         24.3700  -19.7400   67.9900 C.3       6 GLY6        0.0000 
     68 CA         25.6400  -20.5300   67.8900 C.3       6 GLY6        0.0000 
     69 CA         26.7600  -18.7300   67.8200 C.3       6 GLY6        0.0000 
     70 DU         20.5300  -26.0500   69.2900 H         7 CUB7        0.0000 
     71 DU         20.3800  -23.4500   69.3200 H         7 CUB7        0.0000 
     72 DU         19.9000  -24.3600   70.4100 H         7 CUB7        0.0000 
     73 DU         23.1000  -21.5300   65.9400 H         7 CUB7        0.0000 
     74 DU         22.1300  -23.3400   68.1300 H         7 CUB7        0.0000 
     75 DU         21.6500  -24.2500   69.2200 H         7 CUB7        0.0000 
     76 DU         21.1700  -25.1500   70.3200 H         7 CUB7        0.0000 
     77 DU         22.9200  -25.0400   69.1200 H         7 CUB7        0.0000 
     78 DU         23.2500  -21.5400   68.0600 H         7 CUB7        0.0000 
     79 DU         25.0000  -21.4200   66.8700 H         7 CUB7        0.0000 
     80 DU         24.5200  -22.3300   67.9600 H         7 CUB7        0.0000 
     81 DU         27.5500  -20.4300   68.8100 H         7 CUB7        0.0000 
@<TRIPOS>BOND
@<TRIPOS>SUBSTRUCTURE
     1 SER1        1 GROUP   
     2 ALA2        4 GROUP   
     3 ASP3       17 GROUP   
     4 LYS4       43 GROUP   
     5 PHE5       44 GROUP   
     6 GLY6       55 GROUP   
     7 CUB7       70 GROUP   
@<TRIPOS>SET

