#    Name: 5xih_4_ANP_CAVITY_N1_8
#    Modification time : Fri May 22 19:15:27 2020

@<TRIPOS>MOLECULE
5xih_4_ANP_CAVITY_N1_8
   77     0     6     0     0
SMALL
NO_CHARGES


@<TRIPOS>ATOM
      1 OG         22.3800    6.9200   78.9400 O.3       1 SER1        0.0000 
      2 OG         23.0100    7.8200   79.9600 O.3       1 SER1        0.0000 
      3 N          20.6300    6.8100   80.1300 N.am      2 ALA2        0.0000 
      4 N          21.2600    7.7000   81.1500 N.am      2 ALA2        0.0000 
      5 N          25.7300    9.7500   76.5800 N.am      2 ALA2        0.0000 
      6 N          23.8300   12.2300   77.8000 N.am      2 ALA2        0.0000 
      7 N          23.3500   11.3200   78.8900 N.am      2 ALA2        0.0000 
      8 N          23.9800   12.2100   79.9100 N.am      2 ALA2        0.0000 
      9 N          25.7300   12.3300   78.7200 N.am      2 ALA2        0.0000 
     10 N          25.2500   11.4200   79.8200 N.am      2 ALA2        0.0000 
     11 N          26.5200   10.6300   79.7200 N.am      2 ALA2        0.0000 
     12 N          27.1600   11.5200   80.7400 N.am      2 ALA2        0.0000 
     13 N          28.2800   13.3200   80.6700 N.am      2 ALA2        0.0000 
     14 N          27.8000   12.4100   81.7600 N.am      2 ALA2        0.0000 
     15 OD1        22.2300    9.5200   78.9600 O.co2     3 ASP3        0.0000 
     16 OD1        21.7400    8.6100   80.0600 O.co2     3 ASP3        0.0000 
     17 OD1        22.8600   10.4100   79.9900 O.co2     3 ASP3        0.0000 
     18 OD1        22.3800    9.5000   81.0800 O.co2     3 ASP3        0.0000 
     19 OD1        21.9000    8.6000   82.1700 O.co2     3 ASP3        0.0000 
     20 OD1        23.1700    7.8000   82.0700 O.co2     3 ASP3        0.0000 
     21 OD1        22.6900    6.9000   83.1700 O.co2     3 ASP3        0.0000 
     22 OD1        24.9200    7.9200   80.8800 O.co2     3 ASP3        0.0000 
     23 OD1        24.4400    7.0100   81.9800 O.co2     3 ASP3        0.0000 
     24 OD1        26.6700    8.0300   79.6900 O.co2     3 ASP3        0.0000 
     25 OD1        23.0200   10.4000   82.1000 O.co2     3 ASP3        0.0000 
     26 OD1        23.8100    8.7000   83.1000 O.co2     3 ASP3        0.0000 
     27 OD1        26.0400    9.7200   80.8100 O.co2     3 ASP3        0.0000 
     28 OD1        25.5600    8.8100   81.9000 O.co2     3 ASP3        0.0000 
     29 OD1        27.3100    8.9300   80.7100 O.co2     3 ASP3        0.0000 
     30 OD1        29.0600    9.0400   79.5200 O.co2     3 ASP3        0.0000 
     31 OD1        28.5800    8.1300   80.6100 O.co2     3 ASP3        0.0000 
     32 OD1        24.9300   10.5000   83.0300 O.co2     3 ASP3        0.0000 
     33 OD1        24.4400    9.5900   84.1200 O.co2     3 ASP3        0.0000 
     34 OD1        26.2000    9.7100   82.9300 O.co2     3 ASP3        0.0000 
     35 OD1        27.9500    9.8200   81.7400 O.co2     3 ASP3        0.0000 
     36 OD1        27.4600    8.9100   82.8300 O.co2     3 ASP3        0.0000 
     37 OD1        29.2200    9.0300   81.6400 O.co2     3 ASP3        0.0000 
     38 OD1        25.5600   11.3900   84.0500 O.co2     3 ASP3        0.0000 
     39 OD1        26.8300   10.6000   83.9500 O.co2     3 ASP3        0.0000 
     40 OD1        28.1000    9.8100   83.8500 O.co2     3 ASP3        0.0000 
     41 OD1        28.7400   10.7000   84.8700 O.co2     3 ASP3        0.0000 
     42 CZ         21.8900    6.0200   80.0300 C.ar      4 PHE5        0.0000 
     43 CZ         22.5300    6.9100   81.0500 C.ar      4 PHE5        0.0000 
     44 CZ         22.0500    6.0000   82.1400 C.ar      4 PHE5        0.0000 
     45 CZ         24.2800    7.0200   79.8600 C.ar      4 PHE5        0.0000 
     46 CZ         23.8000    6.1200   80.9500 C.ar      4 PHE5        0.0000 
     47 CZ         26.5200    8.0500   77.5800 C.ar      4 PHE5        0.0000 
     48 CZ         26.0300    7.1400   78.6700 C.ar      4 PHE5        0.0000 
     49 CZ         27.1500    8.9400   78.6000 C.ar      4 PHE5        0.0000 
     50 CZ         28.4200    8.1500   78.5000 C.ar      4 PHE5        0.0000 
     51 CA         20.7800    6.8000   82.2400 C.3       5 GLY6        0.0000 
     52 CA         23.9800    9.6300   77.7700 C.3       5 GLY6        0.0000 
     53 CA         23.5000    8.7200   78.8600 C.3       5 GLY6        0.0000 
     54 CA         25.2500    8.8400   77.6700 C.3       5 GLY6        0.0000 
     55 CA         24.7700    7.9300   78.7700 C.3       5 GLY6        0.0000 
     56 CA         27.0000    8.9500   76.4800 C.3       5 GLY6        0.0000 
     57 CA         25.1000   11.4300   77.7000 C.3       5 GLY6        0.0000 
     58 CA         26.3700   10.6400   77.6000 C.3       5 GLY6        0.0000 
     59 CA         27.6400    9.8500   77.5000 C.3       5 GLY6        0.0000 
     60 CA         27.0000   11.5300   78.6200 C.3       5 GLY6        0.0000 
     61 CA         28.2700   10.7400   78.5300 C.3       5 GLY6        0.0000 
     62 CA         28.9100   11.6300   79.5500 C.3       5 GLY6        0.0000 
     63 DU         24.6200   10.5300   78.7900 H         6 CUB7        0.0000 
     64 DU         24.1300    9.6200   79.8900 H         6 CUB7        0.0000 
     65 DU         23.6500    8.7100   80.9800 H         6 CUB7        0.0000 
     66 DU         25.8800    9.7300   78.7000 H         6 CUB7        0.0000 
     67 DU         25.4000    8.8300   79.7900 H         6 CUB7        0.0000 
     68 DU         24.7700   10.5100   80.9100 H         6 CUB7        0.0000 
     69 DU         24.2900    9.6100   82.0000 H         6 CUB7        0.0000 
     70 DU         27.7900    9.8300   79.6200 H         6 CUB7        0.0000 
     71 DU         26.6800   10.6100   81.8300 H         6 CUB7        0.0000 
     72 DU         28.4300   10.7300   80.6400 H         6 CUB7        0.0000 
     73 DU         29.7000    9.9300   80.5400 H         6 CUB7        0.0000 
     74 DU         27.3100   11.5100   82.8600 H         6 CUB7        0.0000 
     75 DU         28.5800   10.7100   82.7600 H         6 CUB7        0.0000 
     76 DU         29.8500    9.9200   82.6600 H         6 CUB7        0.0000 
     77 DU         29.2200   11.6100   83.7800 H         6 CUB7        0.0000 
@<TRIPOS>BOND
@<TRIPOS>SUBSTRUCTURE
     1 SER1        1 GROUP   
     2 ALA2        3 GROUP   
     3 ASP3       15 GROUP   
     4 PHE5       42 GROUP   
     5 GLY6       51 GROUP   
     6 CUB7       63 GROUP   
@<TRIPOS>SET

