#    Name: 5xih_3_ANP
#    Modification time : Fri May 22 19:15:18 2020

@<TRIPOS>MOLECULE
5xih_3_ANP
   31    33     1     0     1
SMALL
NO_CHARGES


@<TRIPOS>ATOM
      1 PG         25.5130  -26.2650   70.0640 P.3       1 ANP1001     0.0000 
      2 O1G        26.4700  -26.8070   69.1040 O.co2     1 ANP1001     0.0000 
      3 O2G        24.7450  -27.3990   70.8090 O.co2     1 ANP1001     0.0000 
      4 O3G        26.2240  -25.4380   71.1780 O.co2     1 ANP1001     0.0000 
      5 PB         23.2880  -24.6630   70.2050 P.3       1 ANP1001     0.0000 
      6 O1B        21.9620  -25.4800   70.1220 O.co2     1 ANP1001     0.0000 
      7 O2B        23.7190  -24.6100   71.5990 O.co2     1 ANP1001     0.0000 
      8 N3B        24.4530  -25.3110   69.2410 N.3       1 ANP1001     0.0000 
      9 PA         21.6960  -22.4450   69.2550 P.3       1 ANP1001     0.0000 
     10 O1A        20.9610  -23.2290   68.2670 O.co2     1 ANP1001     0.0000 
     11 O2A        21.0270  -21.8730   70.4200 O.co2     1 ANP1001     0.0000 
     12 O3A        23.0270  -23.1770   69.6750 O.3       1 ANP1001     0.0000 
     13 O5'        22.3130  -21.2000   68.4520 O.3       1 ANP1001     0.0000 
     14 C5'        21.9100  -20.9620   67.1070 C.3       1 ANP1001     0.0000 
     15 C4'        23.1430  -20.9010   66.2080 C.3       1 ANP1001     0.0000 
     16 O4'        24.1300  -20.0470   66.7950 O.3       1 ANP1001     0.0000 
     17 C3'        23.7840  -22.2460   66.1240 C.3       1 ANP1001     0.0000 
     18 O3'        23.1260  -23.0440   65.1220 O.3       1 ANP1001     0.0000 
     19 C2'        25.1940  -21.9140   65.7120 C.3       1 ANP1001     0.0000 
     20 O2'        25.2670  -21.6720   64.2950 O.3       1 ANP1001     0.0000 
     21 C1'        25.4270  -20.5940   66.4550 C.3       1 ANP1001     0.0000 
     22 N9         26.1820  -20.7830   67.7070 N.pl3     1 ANP1001     0.0000 
     23 C8         25.7930  -21.5150   68.7920 C.2       1 ANP1001     0.0000 
     24 N7         26.6390  -21.4400   69.8150 N.2       1 ANP1001     0.0000 
     25 C5         27.5950  -20.5370   69.3690 C.ar      1 ANP1001     0.0000 
     26 C6         28.7460  -20.0120   69.9920 C.ar      1 ANP1001     0.0000 
     27 N6         29.1190  -20.3630   71.2200 N.pl3     1 ANP1001     0.0000 
     28 N1         29.4840  -19.1370   69.3050 N.ar      1 ANP1001     0.0000 
     29 C2         29.1200  -18.7980   68.0730 C.ar      1 ANP1001     0.0000 
     30 N3         28.0570  -19.2290   67.3960 N.ar      1 ANP1001     0.0000 
     31 C4         27.3050  -20.1100   68.0830 C.ar      1 ANP1001     0.0000 
@<TRIPOS>BOND
     1    1    2 ar   
     2    1    3 ar   
     3    1    4 ar   
     4    1    8 1    
     5    5    6 ar   
     6    5    7 ar   
     7    5    8 1    
     8    5   12 1    
     9    9   10 ar   
    10    9   11 ar   
    11    9   12 1    
    12    9   13 1    
    13   13   14 1    
    14   14   15 1    
    15   15   16 1    
    16   15   17 1    
    17   16   21 1    
    18   17   18 1    
    19   17   19 1    
    20   19   20 1    
    21   19   21 1    
    22   21   22 1    
    23   22   23 1    
    24   22   31 1    
    25   23   24 2    
    26   24   25 1    
    27   25   26 ar   
    28   25   31 ar   
    29   26   27 1    
    30   26   28 ar   
    31   28   29 ar   
    32   29   30 ar   
    33   30   31 ar   
@<TRIPOS>SUBSTRUCTURE
     1 ANP1001     1 GROUP   
@<TRIPOS>SET
ATOM$ORANGE STATIC     ATOMS   COLORGROUP SYSTEM 
20 14 14 15 15 17 17 19 19 21 21 23 23 25 25 26 26 29 \
29 31 31 

