#    Name: 5xih_4_ANP
#    Modification time : Fri May 22 19:15:25 2020

@<TRIPOS>MOLECULE
5xih_4_ANP
   31    33     1     0     1
SMALL
NO_CHARGES


@<TRIPOS>ATOM
      1 PG         25.3950   11.2020   85.0110 P.3       1 ANP1001     0.0000 
      2 O1G        24.2590   12.1150   84.9520 O.co2     1 ANP1001     0.0000 
      3 O2G        26.3620   11.5650   86.1790 O.co2     1 ANP1001     0.0000 
      4 O3G        24.9390    9.7370   85.2850 O.co2     1 ANP1001     0.0000 
      5 PB         27.4810   10.2260   83.3130 P.3       1 ANP1001     0.0000 
      6 O1B        28.8500   10.9730   83.3160 O.co2     1 ANP1001     0.0000 
      7 O2B        27.5080    9.1930   84.3430 O.co2     1 ANP1001     0.0000 
      8 N3B        26.2050   11.2880   83.5450 N.3       1 ANP1001     0.0000 
      9 PA         28.0860    9.6120   80.5330 P.3       1 ANP1001     0.0000 
     10 O1A        28.5260   10.9780   80.2660 O.co2     1 ANP1001     0.0000 
     11 O2A        29.0060    8.4840   80.4290 O.co2     1 ANP1001     0.0000 
     12 O3A        27.2540    9.5400   81.8790 O.3       1 ANP1001     0.0000 
     13 O5'        26.9380    9.3240   79.4970 O.3       1 ANP1001     0.0000 
     14 C5'        26.9370    9.9390   78.2070 C.3       1 ANP1001     0.0000 
     15 C4'        25.4890   10.1110   77.7070 C.3       1 ANP1001     0.0000 
     16 O4'        24.6610    8.9910   78.1310 O.3       1 ANP1001     0.0000 
     17 C3'        24.8780   11.3480   78.3290 C.3       1 ANP1001     0.0000 
     18 O3'        23.9650   11.9420   77.3870 O.3       1 ANP1001     0.0000 
     19 C2'        24.1380   10.8170   79.5240 C.3       1 ANP1001     0.0000 
     20 O2'        23.0440   11.6820   79.8830 O.3       1 ANP1001     0.0000 
     21 C1'        23.6090    9.5180   78.9780 C.3       1 ANP1001     0.0000 
     22 N9         23.3890    8.5890   80.0980 N.pl3     1 ANP1001     0.0000 
     23 C8         24.1590    8.4780   81.2110 C.2       1 ANP1001     0.0000 
     24 N7         23.7450    7.5520   82.0640 N.2       1 ANP1001     0.0000 
     25 C5         22.6360    7.0210   81.4280 C.ar      1 ANP1001     0.0000 
     26 C6         21.7590    5.9970   81.8080 C.ar      1 ANP1001     0.0000 
     27 N6         21.8850    5.3340   82.9540 N.pl3     1 ANP1001     0.0000 
     28 N1         20.7540    5.6940   80.9800 N.ar      1 ANP1001     0.0000 
     29 C2         20.6280    6.3590   79.8320 C.ar      1 ANP1001     0.0000 
     30 N3         21.4100    7.3390   79.3700 N.ar      1 ANP1001     0.0000 
     31 C4         22.4090    7.6580   80.2120 C.ar      1 ANP1001     0.0000 
@<TRIPOS>BOND
     1    1    2 ar   
     2    1    3 ar   
     3    1    4 ar   
     4    1    8 1    
     5    5    6 ar   
     6    5    7 ar   
     7    5    8 1    
     8    5   12 1    
     9    9   10 ar   
    10    9   11 ar   
    11    9   12 1    
    12    9   13 1    
    13   13   14 1    
    14   14   15 1    
    15   15   16 1    
    16   15   17 1    
    17   16   21 1    
    18   17   18 1    
    19   17   19 1    
    20   19   20 1    
    21   19   21 1    
    22   21   22 1    
    23   22   23 1    
    24   22   31 1    
    25   23   24 2    
    26   24   25 1    
    27   25   26 ar   
    28   25   31 ar   
    29   26   27 1    
    30   26   28 ar   
    31   28   29 ar   
    32   29   30 ar   
    33   30   31 ar   
@<TRIPOS>SUBSTRUCTURE
     1 ANP1001     1 GROUP   
@<TRIPOS>SET
ATOM$ORANGE STATIC     ATOMS   COLORGROUP SYSTEM 
20 14 14 15 15 17 17 19 19 21 21 23 23 25 25 26 26 29 \
29 31 31 

