#    Name: 6dw3_1_DTP_CAVITY_N1_4
#    Modification time : Fri May 22 19:28:07 2020

@<TRIPOS>MOLECULE
6dw3_1_DTP_CAVITY_N1_4
    6     0     2     0     0
SMALL
NO_CHARGES


@<TRIPOS>ATOM
      1 OD1        24.3800   11.7100   97.2200 O.co2     1 ASP3        0.0000 
      2 OD1        25.9700   11.7400   95.8100 O.co2     1 ASP3        0.0000 
      3 OD1        27.1000   10.8200   95.4700 O.co2     1 ASP3        0.0000 
      4 OD1        26.4300   12.7000   94.7600 O.co2     1 ASP3        0.0000 
      5 CA         24.8400   12.6700   96.1600 C.3       2 GLY6        0.0000 
      6 CA         26.8400   12.4300   96.8200 C.3       2 GLY6        0.0000 
@<TRIPOS>BOND
@<TRIPOS>SUBSTRUCTURE
     1 ASP3        1 GROUP   
     2 GLY6        5 GROUP   
@<TRIPOS>SET

