#    Name: 6dw3_3_DTP
#    Modification time : Fri May 22 19:28:52 2020

@<TRIPOS>MOLECULE
6dw3_3_DTP
   30    32     1     0     0
SMALL
NO_CHARGES


@<TRIPOS>ATOM
      1 PG         27.7790  -15.9500  135.0350 P.3       1 DTP704      0.0000 
      2 O1G        28.5090  -16.7560  134.0050 O.co2     1 DTP704      0.0000 
      3 O2G        26.2730  -15.8920  134.7750 O.co2     1 DTP704      0.0000 
      4 O3G        28.3550  -16.0770  136.4150 O.co2     1 DTP704      0.0000 
      5 PB         29.1480  -13.3550  135.1920 P.3       1 DTP704      0.0000 
      6 O1B        28.4340  -12.0820  135.4240 O.co2     1 DTP704      0.0000 
      7 O2B        29.9720  -13.9710  136.2490 O.co2     1 DTP704      0.0000 
      8 O3B        28.0810  -14.3860  134.6320 O.3       1 DTP704      0.0000 
      9 PA         29.9770  -12.3250  132.5040 P.3       1 DTP704      0.0000 
     10 O1A        30.1210  -13.4560  131.5930 O.co2     1 DTP704      0.0000 
     11 O2A        28.8800  -11.3590  132.4520 O.co2     1 DTP704      0.0000 
     12 O3A        30.1160  -13.1210  133.9070 O.3       1 DTP704      0.0000 
     13 O5'        31.2720  -11.3480  132.6530 O.3       1 DTP704      0.0000 
     14 C5'        32.5840  -11.8670  132.5170 C.3       1 DTP704      0.0000 
     15 C4'        33.5230  -10.7410  132.1110 C.3       1 DTP704      0.0000 
     16 O4'        33.1520  -10.3060  130.7720 O.3       1 DTP704      0.0000 
     17 C3'        33.5390   -9.5310  133.0040 C.3       1 DTP704      0.0000 
     18 O3'        34.8850   -8.9950  133.1370 O.3       1 DTP704      0.0000 
     19 C2'        32.5760   -8.5640  132.3290 C.3       1 DTP704      0.0000 
     20 C1'        32.7930   -8.9550  130.8290 C.3       1 DTP704      0.0000 
     21 N9         31.6300   -8.9870  129.9380 N.pl3     1 DTP704      0.0000 
     22 C8         30.3590   -9.2620  130.2380 C.2       1 DTP704      0.0000 
     23 N7         29.5440   -9.2150  129.1440 N.2       1 DTP704      0.0000 
     24 C5         30.3790   -8.8420  128.1230 C.ar      1 DTP704      0.0000 
     25 C6         30.1940   -8.6970  126.6910 C.ar      1 DTP704      0.0000 
     26 N6         28.9260   -8.8450  126.1960 N.pl3     1 DTP704      0.0000 
     27 N1         31.2890   -8.3440  125.9790 N.ar      1 DTP704      0.0000 
     28 C2         32.5050   -8.2410  126.5560 C.ar      1 DTP704      0.0000 
     29 N3         32.7920   -8.3940  127.8820 N.ar      1 DTP704      0.0000 
     30 C4         31.7440   -8.7080  128.6710 C.ar      1 DTP704      0.0000 
@<TRIPOS>BOND
     1    1    2 ar   
     2    1    3 ar   
     3    1    4 ar   
     4    1    8 1    
     5    5    6 ar   
     6    5    7 ar   
     7    5    8 1    
     8    5   12 1    
     9    9   10 ar   
    10    9   11 ar   
    11    9   12 1    
    12    9   13 1    
    13   13   14 1    
    14   14   15 1    
    15   15   16 1    
    16   15   17 1    
    17   16   20 1    
    18   17   18 1    
    19   17   19 1    
    20   19   20 1    
    21   20   21 1    
    22   21   22 1    
    23   21   30 1    
    24   22   23 2    
    25   23   24 1    
    26   24   25 ar   
    27   24   30 ar   
    28   25   26 1    
    29   25   27 ar   
    30   27   28 ar   
    31   28   29 ar   
    32   29   30 ar   
@<TRIPOS>SUBSTRUCTURE
     1 DTP704      1 GROUP   
@<TRIPOS>SET

