#    Name: 6dw3_3_DTP_CAVITY_N1_8
#    Modification time : Fri May 22 19:28:54 2020

@<TRIPOS>MOLECULE
6dw3_3_DTP_CAVITY_N1_8
   56     0     6     0     0
SMALL
NO_CHARGES


@<TRIPOS>ATOM
      1 OG         29.5500  -21.5100  131.0500 O.3       1 SER1        0.0000 
      2 OG         30.6800  -22.4400  130.7000 O.3       1 SER1        0.0000 
      3 OG         30.0100  -20.5500  129.9900 O.3       1 SER1        0.0000 
      4 OG         31.1400  -21.4700  129.6500 O.3       1 SER1        0.0000 
      5 OG         29.0400  -23.7100  135.2200 O.3       1 SER1        0.0000 
      6 OG         29.5100  -22.7500  134.1700 O.3       1 SER1        0.0000 
      7 OG         30.6300  -23.6700  133.8200 O.3       1 SER1        0.0000 
      8 OG         30.3800  -22.0600  135.1800 O.3       1 SER1        0.0000 
      9 OG         31.2500  -21.3700  136.1800 O.3       1 SER1        0.0000 
     10 N          28.1700  -24.3900  134.2200 N.am      2 ALA2        0.0000 
     11 N          27.9200  -22.7800  135.5700 N.am      2 ALA2        0.0000 
     12 N          32.4800  -19.8300  129.6000 N.am      2 ALA2        0.0000 
     13 N          30.8400  -21.1000  134.1200 N.am      2 ALA2        0.0000 
     14 N          31.9700  -22.0200  133.7700 N.am      2 ALA2        0.0000 
     15 N          33.1000  -22.9400  133.4200 N.am      2 ALA2        0.0000 
     16 N          31.3000  -20.1400  133.0600 N.am      2 ALA2        0.0000 
     17 N          32.4300  -21.0600  132.7200 N.am      2 ALA2        0.0000 
     18 N          33.5600  -21.9800  132.3700 N.am      2 ALA2        0.0000 
     19 N          32.8900  -20.1000  131.6600 N.am      2 ALA2        0.0000 
     20 N          34.0200  -21.0200  131.3100 N.am      2 ALA2        0.0000 
     21 N          31.7100  -20.4100  135.1300 N.am      2 ALA2        0.0000 
     22 N          32.1700  -19.4500  134.0700 N.am      2 ALA2        0.0000 
     23 N          32.6300  -18.4900  133.0200 N.am      2 ALA2        0.0000 
     24 OD1        28.8400  -20.8600  133.4600 O.co2     3 ASP3        0.0000 
     25 OD1        29.3000  -19.9000  132.4000 O.co2     3 ASP3        0.0000 
     26 OD1        30.4300  -20.8200  132.0600 O.co2     3 ASP3        0.0000 
     27 OD1        32.6900  -22.6700  131.3600 O.co2     3 ASP3        0.0000 
     28 OD1        29.7600  -18.9400  131.3500 O.co2     3 ASP3        0.0000 
     29 OD1        33.1500  -21.7100  130.3000 O.co2     3 ASP3        0.0000 
     30 OD1        29.7100  -20.1700  134.4700 O.co2     3 ASP3        0.0000 
     31 OD1        29.0400  -18.2900  133.7600 O.co2     3 ASP3        0.0000 
     32 OD1        30.1700  -19.2100  133.4100 O.co2     3 ASP3        0.0000 
     33 OD1        28.7800  -16.6800  135.1200 O.co2     3 ASP3        0.0000 
     34 OD1        29.9100  -17.6000  134.7700 O.co2     3 ASP3        0.0000 
     35 CZ         29.0900  -22.4700  132.1000 C.ar      4 PHE5        0.0000 
     36 CZ         30.8900  -19.8600  131.0000 C.ar      4 PHE5        0.0000 
     37 CZ         31.7600  -19.1800  132.0100 C.ar      4 PHE5        0.0000 
     38 CA         27.7600  -24.1200  132.1500 C.3       5 GLY6        0.0000 
     39 CA         27.5000  -22.5100  133.5100 C.3       5 GLY6        0.0000 
     40 CA         28.6300  -23.4300  133.1600 C.3       5 GLY6        0.0000 
     41 CA         29.7600  -24.3600  132.8100 C.3       5 GLY6        0.0000 
     42 CA         27.9600  -21.5500  132.4500 C.3       5 GLY6        0.0000 
     43 CA         28.3800  -21.8200  134.5200 C.3       5 GLY6        0.0000 
     44 CA         28.7900  -22.1000  136.5800 C.3       5 GLY6        0.0000 
     45 CA         29.2500  -21.1300  135.5200 C.3       5 GLY6        0.0000 
     46 CA         28.5800  -19.2500  134.8200 C.3       5 GLY6        0.0000 
     47 CA         33.3500  -19.1400  130.6000 C.3       5 GLY6        0.0000 
     48 CA         34.4800  -20.0600  130.2600 C.3       5 GLY6        0.0000 
     49 DU         30.2200  -23.4000  131.7600 H         6 CUB7        0.0000 
     50 DU         29.9700  -21.7800  133.1100 H         6 CUB7        0.0000 
     51 DU         31.1000  -22.7100  132.7600 H         6 CUB7        0.0000 
     52 DU         32.2200  -23.6300  132.4200 H         6 CUB7        0.0000 
     53 DU         31.5600  -21.7500  131.7100 H         6 CUB7        0.0000 
     54 DU         32.0200  -20.7900  130.6500 H         6 CUB7        0.0000 
     55 DU         30.5800  -19.4900  135.4700 H         6 CUB7        0.0000 
     56 DU         31.0400  -18.5200  134.4200 H         6 CUB7        0.0000 
@<TRIPOS>BOND
@<TRIPOS>SUBSTRUCTURE
     1 SER1        1 GROUP   
     2 ALA2       10 GROUP   
     3 ASP3       24 GROUP   
     4 PHE5       35 GROUP   
     5 GLY6       38 GROUP   
     6 CUB7       49 GROUP   
@<TRIPOS>SET

