#    Name: 6dw3_4_DTP
#    Modification time : Fri May 22 19:29:16 2020

@<TRIPOS>MOLECULE
6dw3_4_DTP
   30    32     1     0     0
SMALL
NO_CHARGES


@<TRIPOS>ATOM
      1 PG         63.2570  -19.8940  110.3830 P.3       1 DTP702      0.0000 
      2 O1G        62.7420  -20.6980  109.2200 O.co2     1 DTP702      0.0000 
      3 O2G        64.7180  -19.5740  110.4570 O.co2     1 DTP702      0.0000 
      4 O3G        62.6590  -20.4500  111.6140 O.co2     1 DTP702      0.0000 
      5 PB         61.6060  -17.7810  109.0870 P.3       1 DTP702      0.0000 
      6 O1B        62.2100  -16.7860  108.1650 O.co2     1 DTP702      0.0000 
      7 O2B        60.8390  -18.9100  108.5050 O.co2     1 DTP702      0.0000 
      8 O3B        62.6690  -18.4020  110.2010 O.3       1 DTP702      0.0000 
      9 PA         60.5070  -15.7540  110.9690 P.3       1 DTP702      0.0000 
     10 O1A        61.4750  -14.7810  110.4340 O.co2     1 DTP702      0.0000 
     11 O2A        60.4460  -16.3930  112.2940 O.co2     1 DTP702      0.0000 
     12 O3A        60.5790  -17.0200  110.0430 O.3       1 DTP702      0.0000 
     13 O5'        59.1080  -15.1580  110.4810 O.3       1 DTP702      0.0000 
     14 C5'        57.9010  -15.8020  110.8050 C.3       1 DTP702      0.0000 
     15 C4'        56.7920  -14.7480  110.6320 C.3       1 DTP702      0.0000 
     16 O4'        56.9640  -13.6670  111.5240 O.3       1 DTP702      0.0000 
     17 C3'        56.6270  -14.0480  109.3160 C.3       1 DTP702      0.0000 
     18 O3'        55.2400  -13.7560  109.1960 O.3       1 DTP702      0.0000 
     19 C2'        57.4200  -12.7390  109.4610 C.3       1 DTP702      0.0000 
     20 C1'        57.2050  -12.4220  110.8800 C.3       1 DTP702      0.0000 
     21 N9         58.3020  -11.8960  111.6470 N.pl3     1 DTP702      0.0000 
     22 C8         59.6290  -12.1570  111.5370 C.2       1 DTP702      0.0000 
     23 N7         60.3750  -11.4840  112.4400 N.2       1 DTP702      0.0000 
     24 C5         59.4840  -10.8080  113.1860 C.ar      1 DTP702      0.0000 
     25 C6         59.5940   -9.9450  114.3540 C.ar      1 DTP702      0.0000 
     26 N6         60.8260   -9.6810  114.8370 N.pl3     1 DTP702      0.0000 
     27 N1         58.4770   -9.4270  114.8610 N.ar      1 DTP702      0.0000 
     28 C2         57.2600   -9.7270  114.3700 C.ar      1 DTP702      0.0000 
     29 N3         57.0910  -10.5250  113.3130 N.ar      1 DTP702      0.0000 
     30 C4         58.1590  -11.0890  112.7000 C.ar      1 DTP702      0.0000 
@<TRIPOS>BOND
     1    9   11 ar   
     2    9   12 1    
     3    9   13 1    
     4   13   14 1    
     5   14   15 1    
     6   15   16 1    
     7   15   17 1    
     8   16   20 1    
     9   17   18 1    
    10   17   19 1    
    11   19   20 1    
    12   20   21 1    
    13   21   22 1    
    14   21   30 1    
    15   22   23 2    
    16   23   24 1    
    17   24   25 ar   
    18   24   30 ar   
    19   25   26 1    
    20   25   27 ar   
    21   27   28 ar   
    22   28   29 ar   
    23   29   30 ar   
    24    1    2 ar   
    25    1    3 ar   
    26    1    4 ar   
    27    1    8 1    
    28    5    6 ar   
    29    5    7 ar   
    30    5    8 1    
    31    5   12 1    
    32    9   10 ar   
@<TRIPOS>SUBSTRUCTURE
     1 DTP702      1 GROUP   
@<TRIPOS>SET

