#    Name: 6dw3_2_DTP
#    Modification time : Fri May 22 19:28:29 2020

@<TRIPOS>MOLECULE
6dw3_2_DTP
   30    32     1     0     0
SMALL
NO_CHARGES


@<TRIPOS>ATOM
      1 PG         57.2570   21.7470  129.9380 P.3       1 DTP701      0.0000 
      2 O1G        56.8500   22.1210  128.4990 O.co2     1 DTP701      0.0000 
      3 O2G        58.7360   21.7200  130.2170 O.co2     1 DTP701      0.0000 
      4 O3G        56.4000   22.5040  130.8860 O.co2     1 DTP701      0.0000 
      5 PB         55.8470   19.2800  130.8750 P.3       1 DTP701      0.0000 
      6 O1B        54.7740   20.1370  131.4250 O.co2     1 DTP701      0.0000 
      7 O2B        56.5030   18.4280  131.8960 O.co2     1 DTP701      0.0000 
      8 O3B        56.9600   20.1450  130.1510 O.3       1 DTP701      0.0000 
      9 PA         55.4860   17.2940  128.8650 P.3       1 DTP701      0.0000 
     10 O1A        55.6870   17.7650  127.4840 O.co2     1 DTP701      0.0000 
     11 O2A        56.4670   16.4990  129.6500 O.co2     1 DTP701      0.0000 
     12 O3A        55.0610   18.5500  129.7240 O.3       1 DTP701      0.0000 
     13 O5'        54.1360   16.4170  129.0430 O.3       1 DTP701      0.0000 
     14 C5'        52.9030   16.8060  128.4260 C.3       1 DTP701      0.0000 
     15 C4'        52.0410   15.5660  128.2480 C.3       1 DTP701      0.0000 
     16 O4'        52.7500   14.5510  127.4170 O.3       1 DTP701      0.0000 
     17 C3'        51.7540   14.8970  129.5640 C.3       1 DTP701      0.0000 
     18 O3'        50.4420   14.4230  129.6360 O.3       1 DTP701      0.0000 
     19 C2'        52.7140   13.7010  129.6150 C.3       1 DTP701      0.0000 
     20 C1'        52.9890   13.3550  128.1770 C.3       1 DTP701      0.0000 
     21 N9         54.3130   13.0160  127.7720 N.pl3     1 DTP701      0.0000 
     22 C8         55.4890   13.5010  128.2340 C.2       1 DTP701      0.0000 
     23 N7         56.5280   13.0290  127.5270 N.2       1 DTP701      0.0000 
     24 C5         56.0460   12.1970  126.6160 C.ar      1 DTP701      0.0000 
     25 C6         56.6190   11.4340  125.4790 C.ar      1 DTP701      0.0000 
     26 N6         57.9450   11.3800  125.2780 N.pl3     1 DTP701      0.0000 
     27 N1         55.7260   10.7390  124.6990 N.ar      1 DTP701      0.0000 
     28 C2         54.3510   10.8330  124.9660 C.ar      1 DTP701      0.0000 
     29 N3         53.7630   11.5460  125.9000 N.ar      1 DTP701      0.0000 
     30 C4         54.5580   12.2200  126.7400 C.ar      1 DTP701      0.0000 
@<TRIPOS>BOND
     1    1    2 ar   
     2    1    3 ar   
     3    1    4 ar   
     4    1    8 1    
     5    5    6 ar   
     6    5    7 ar   
     7    5    8 1    
     8    5   12 1    
     9    9   10 ar   
    10    9   11 ar   
    11    9   12 1    
    12    9   13 1    
    13   13   14 1    
    14   14   15 1    
    15   15   16 1    
    16   15   17 1    
    17   16   20 1    
    18   17   18 1    
    19   17   19 1    
    20   19   20 1    
    21   20   21 1    
    22   21   22 1    
    23   21   30 1    
    24   22   23 2    
    25   23   24 1    
    26   24   25 ar   
    27   24   30 ar   
    28   25   26 1    
    29   25   27 ar   
    30   27   28 ar   
    31   28   29 ar   
    32   29   30 ar   
@<TRIPOS>SUBSTRUCTURE
     1 DTP701      1 GROUP   
@<TRIPOS>SET

