#    Name: 6dw3_3_DTP_CAVITY_N1_4
#    Modification time : Fri May 22 19:28:54 2020

@<TRIPOS>MOLECULE
6dw3_3_DTP_CAVITY_N1_4
   10     0     3     0     0
SMALL
NO_CHARGES


@<TRIPOS>ATOM
      1 OD1        29.3000  -19.9000  132.4000 O.co2     1 ASP3        0.0000 
      2 OD1        29.7600  -18.9400  131.3500 O.co2     1 ASP3        0.0000 
      3 OD1        29.7100  -20.1700  134.4700 O.co2     1 ASP3        0.0000 
      4 OD1        29.0400  -18.2900  133.7600 O.co2     1 ASP3        0.0000 
      5 OD1        30.1700  -19.2100  133.4100 O.co2     1 ASP3        0.0000 
      6 OD1        28.7800  -16.6800  135.1200 O.co2     1 ASP3        0.0000 
      7 OD1        29.9100  -17.6000  134.7700 O.co2     1 ASP3        0.0000 
      8 CA         28.5800  -19.2500  134.8200 C.3       2 GLY6        0.0000 
      9 DU         30.5800  -19.4900  135.4700 H         3 CUB7        0.0000 
     10 DU         31.0400  -18.5200  134.4200 H         3 CUB7        0.0000 
@<TRIPOS>BOND
@<TRIPOS>SUBSTRUCTURE
     1 ASP3        1 GROUP   
     2 GLY6        8 GROUP   
     3 CUB7        9 GROUP   
@<TRIPOS>SET

