#    Name: 6dw3_1_DTP_CAVITY_N1_6
#    Modification time : Fri May 22 19:28:07 2020

@<TRIPOS>MOLECULE
6dw3_1_DTP_CAVITY_N1_6
   42     0     7     0     0
SMALL
NO_CHARGES


@<TRIPOS>ATOM
      1 OG         22.5900    9.1000   98.3200 O.3       1 SER1        0.0000 
      2 N          24.4300   12.9400   94.1000 N.am      2 ALA2        0.0000 
      3 N          25.5600   12.0200   93.7500 N.am      2 ALA2        0.0000 
      4 N          26.5900    3.2000  101.1000 N.am      2 ALA2        0.0000 
      5 O          27.0500    4.1700  100.0500 O.2       2 ALA2        0.0000 
      6 N          24.7500    4.7800  103.8600 N.am      2 ALA2        0.0000 
      7 N          25.8800    3.8600  103.5100 N.am      2 ALA2        0.0000 
      8 N          25.2100    5.7400  102.8100 N.am      2 ALA2        0.0000 
      9 N          26.3400    4.8200  102.4600 N.am      2 ALA2        0.0000 
     10 N          27.4700    3.8900  102.1100 N.am      2 ALA2        0.0000 
     11 OD1        26.0200   12.9800   92.6900 O.co2     3 ASP3        0.0000 
     12 OD1        27.1500   12.0500   92.3500 O.co2     3 ASP3        0.0000 
     13 OD1        24.5900    8.8600   98.9800 O.co2     3 ASP3        0.0000 
     14 OD1        23.9200   10.7400   98.2700 O.co2     3 ASP3        0.0000 
     15 OD1        24.3800   11.7100   97.2200 O.co2     3 ASP3        0.0000 
     16 OD1        25.9700   11.7400   95.8100 O.co2     3 ASP3        0.0000 
     17 OD1        27.1000   10.8200   95.4700 O.co2     3 ASP3        0.0000 
     18 OD1        26.4300   12.7000   94.7600 O.co2     3 ASP3        0.0000 
     19 NZ         22.3800   11.9400   96.5600 N.4       4 LYS4        0.0000 
     20 NZ         22.8400   12.9000   95.5000 N.4       4 LYS4        0.0000 
     21 NZ         22.3300   10.7100   99.6800 N.4       4 LYS4        0.0000 
     22 CZ         23.7100    8.1700   97.9700 C.ar      5 PHE5        0.0000 
     23 CZ         21.9200   10.9800   97.6100 C.ar      5 PHE5        0.0000 
     24 CZ         23.5100   11.0200   96.2100 C.ar      5 PHE5        0.0000 
     25 CZ         23.9700   11.9800   95.1500 C.ar      5 PHE5        0.0000 
     26 CZ         25.1000   11.0500   94.8100 C.ar      5 PHE5        0.0000 
     27 CZ         26.2300   10.1300   94.4600 C.ar      5 PHE5        0.0000 
     28 CA         26.6900   11.0900   93.4000 C.3       6 GLY6        0.0000 
     29 CA         25.9300    5.0900  100.3900 C.3       6 GLY6        0.0000 
     30 CA         24.1300    7.9000  100.0400 C.3       6 GLY6        0.0000 
     31 CA         25.2600    6.9700   99.6900 C.3       6 GLY6        0.0000 
     32 CA         26.3900    6.0500   99.3400 C.3       6 GLY6        0.0000 
     33 CA         23.4600    9.7800   99.3300 C.3       6 GLY6        0.0000 
     34 CA         23.7100   13.5900   96.5100 C.3       6 GLY6        0.0000 
     35 CA         24.8400   12.6700   96.1600 C.3       6 GLY6        0.0000 
     36 CA         24.1700   14.5500   95.4500 C.3       6 GLY6        0.0000 
     37 CA         25.3000   13.6300   95.1100 C.3       6 GLY6        0.0000 
     38 CA         25.7600   14.5900   94.0500 C.3       6 GLY6        0.0000 
     39 CA         27.3500   14.6300   92.6500 C.3       6 GLY6        0.0000 
     40 CA         25.6700    6.7000  101.7500 C.3       6 GLY6        0.0000 
     41 CA         26.8400   12.4300   96.8200 C.3       6 GLY6        0.0000 
     42 DU         24.8000    6.0100  100.7400 H         7 CUB7        0.0000 
@<TRIPOS>BOND
@<TRIPOS>SUBSTRUCTURE
     1 SER1        1 GROUP   
     2 ALA2        2 GROUP   
     3 ASP3       11 GROUP   
     4 LYS4       19 GROUP   
     5 PHE5       22 GROUP   
     6 GLY6       28 GROUP   
     7 CUB7       42 GROUP   
@<TRIPOS>SET

