#    Name: 6dw3_1_DTP_CAVITY_N1_12
#    Modification time : Fri May 22 19:28:07 2020

@<TRIPOS>MOLECULE
6dw3_1_DTP_CAVITY_N1_12
  103     0     7     0     0
SMALL
NO_CHARGES


@<TRIPOS>ATOM
      1 OG         20.1200    8.3700   98.7200 O.3       1 SER1        0.0000 
      2 OG         21.0000    9.0600   99.7200 O.3       1 SER1        0.0000 
      3 OG         22.1200    8.1300   99.3800 O.3       1 SER1        0.0000 
      4 OG         23.2500    7.2100   99.0300 O.3       1 SER1        0.0000 
      5 OG         21.4600   10.0200   98.6700 O.3       1 SER1        0.0000 
      6 OG         22.5900    9.1000   98.3200 O.3       1 SER1        0.0000 
      7 N          21.9700   12.2100   94.4900 N.am      2 ALA2        0.0000 
      8 N          23.5600   12.2500   93.0900 N.am      2 ALA2        0.0000 
      9 N          25.6100   13.2500   90.6300 N.am      2 ALA2        0.0000 
     10 N          20.5300    8.1000  100.7800 N.am      2 ALA2        0.0000 
     11 N          19.8700    9.9800  100.0700 N.am      2 ALA2        0.0000 
     12 N          24.4300   12.9400   94.1000 N.am      2 ALA2        0.0000 
     13 N          25.5600   12.0200   93.7500 N.am      2 ALA2        0.0000 
     14 N          21.6200    5.9400  103.5500 N.am      2 ALA2        0.0000 
     15 N          23.8700    4.0900  102.8500 N.am      2 ALA2        0.0000 
     16 N          25.0000    3.1700  102.5100 N.am      2 ALA2        0.0000 
     17 N          25.4600    4.1300  101.4500 N.am      2 ALA2        0.0000 
     18 N          26.5900    3.2000  101.1000 N.am      2 ALA2        0.0000 
     19 N          21.4100    8.7800  101.7900 N.am      2 ALA2        0.0000 
     20 O          27.0500    4.1700  100.0500 O.2       2 ALA2        0.0000 
     21 N          23.1600    4.7400  105.2600 N.am      2 ALA2        0.0000 
     22 N          24.2900    3.8200  104.9200 N.am      2 ALA2        0.0000 
     23 N          23.6200    5.7000  104.2100 N.am      2 ALA2        0.0000 
     24 N          24.7500    4.7800  103.8600 N.am      2 ALA2        0.0000 
     25 N          25.8800    3.8600  103.5100 N.am      2 ALA2        0.0000 
     26 N          24.0800    6.6600  103.1500 N.am      2 ALA2        0.0000 
     27 N          25.2100    5.7400  102.8100 N.am      2 ALA2        0.0000 
     28 N          26.3400    4.8200  102.4600 N.am      2 ALA2        0.0000 
     29 N          27.4700    3.8900  102.1100 N.am      2 ALA2        0.0000 
     30 OD1        22.4300   13.1800   93.4400 O.co2     3 ASP3        0.0000 
     31 OD1        20.2800    4.2900  103.6000 O.co2     3 ASP3        0.0000 
     32 OD1        21.4100    3.3700  103.2500 O.co2     3 ASP3        0.0000 
     33 OD1        22.5400    2.4400  102.9000 O.co2     3 ASP3        0.0000 
     34 OD1        24.1300    2.4800  101.5000 O.co2     3 ASP3        0.0000 
     35 OD1        24.5900    3.4400  100.4400 O.co2     3 ASP3        0.0000 
     36 OD1        25.0500    4.4000   99.3900 O.co2     3 ASP3        0.0000 
     37 OD1        23.3000   13.8600   94.4500 O.co2     3 ASP3        0.0000 
     38 OD1        24.8900   13.9000   93.0400 O.co2     3 ASP3        0.0000 
     39 OD1        26.0200   12.9800   92.6900 O.co2     3 ASP3        0.0000 
     40 OD1        27.1500   12.0500   92.3500 O.co2     3 ASP3        0.0000 
     41 OD1        25.3500   14.8600   91.9900 O.co2     3 ASP3        0.0000 
     42 OD1        26.4800   13.9400   91.6400 O.co2     3 ASP3        0.0000 
     43 OD1        25.8100   15.8200   90.9300 O.co2     3 ASP3        0.0000 
     44 OD1        20.6900    4.0200  105.6600 O.co2     3 ASP3        0.0000 
     45 OD1        21.8200    3.0900  105.3100 O.co2     3 ASP3        0.0000 
     46 OD1        21.1600    4.9800  104.6100 O.co2     3 ASP3        0.0000 
     47 OD1        22.2800    4.0500  104.2600 O.co2     3 ASP3        0.0000 
     48 OD1        24.5900    8.8600   98.9800 O.co2     3 ASP3        0.0000 
     49 OD1        23.9200   10.7400   98.2700 O.co2     3 ASP3        0.0000 
     50 OD1        24.3800   11.7100   97.2200 O.co2     3 ASP3        0.0000 
     51 OD1        25.9700   11.7400   95.8100 O.co2     3 ASP3        0.0000 
     52 OD1        27.1000   10.8200   95.4700 O.co2     3 ASP3        0.0000 
     53 OD1        26.4300   12.7000   94.7600 O.co2     3 ASP3        0.0000 
     54 OD1        25.0900   16.4700   93.3400 O.co2     3 ASP3        0.0000 
     55 OD1        25.5500   17.4300   92.2900 O.co2     3 ASP3        0.0000 
     56 NZ         23.0500    4.6400   98.7300 N.4       4 LYS4        0.0000 
     57 NZ         20.7400    5.2500  102.5400 N.4       4 LYS4        0.0000 
     58 NZ         21.8700    4.3300  102.1900 N.4       4 LYS4        0.0000 
     59 NZ         23.0000    3.4000  101.8500 N.4       4 LYS4        0.0000 
     60 NZ         23.4600    4.3600  100.7900 N.4       4 LYS4        0.0000 
     61 NZ         21.6600    7.1700  100.4300 N.4       4 LYS4        0.0000 
     62 NZ         22.7900    6.2500  100.0800 N.4       4 LYS4        0.0000 
     63 NZ         23.9200    5.3300   99.7400 N.4       4 LYS4        0.0000 
     64 NZ         20.3300   10.9400   99.0200 N.4       4 LYS4        0.0000 
     65 NZ         22.3800   11.9400   96.5600 N.4       4 LYS4        0.0000 
     66 NZ         22.8400   12.9000   95.5000 N.4       4 LYS4        0.0000 
     67 NZ         22.7500    5.0200  103.2000 N.4       4 LYS4        0.0000 
     68 NZ         22.3300   10.7100   99.6800 N.4       4 LYS4        0.0000 
     69 CZ         23.0900   11.2900   94.1500 C.ar      5 PHE5        0.0000 
     70 CZ         23.7100    8.1700   97.9700 C.ar      5 PHE5        0.0000 
     71 CZ         21.9200   10.9800   97.6100 C.ar      5 PHE5        0.0000 
     72 CZ         23.5100   11.0200   96.2100 C.ar      5 PHE5        0.0000 
     73 CZ         23.9700   11.9800   95.1500 C.ar      5 PHE5        0.0000 
     74 CZ         25.1000   11.0500   94.8100 C.ar      5 PHE5        0.0000 
     75 CZ         26.2300   10.1300   94.4600 C.ar      5 PHE5        0.0000 
     76 CA         24.3800    6.2900   98.6800 C.3       6 GLY6        0.0000 
     77 CA         26.6900   11.0900   93.4000 C.3       6 GLY6        0.0000 
     78 CA         23.4100    3.1300  103.9100 C.3       6 GLY6        0.0000 
     79 CA         22.0800    6.9000  102.4900 C.3       6 GLY6        0.0000 
     80 CA         23.2100    5.9800  102.1500 C.3       6 GLY6        0.0000 
     81 CA         23.6700    6.9400  101.0900 C.3       6 GLY6        0.0000 
     82 CA         25.9300    5.0900  100.3900 C.3       6 GLY6        0.0000 
     83 CA         21.8700    9.7500  100.7300 C.3       6 GLY6        0.0000 
     84 CA         23.0000    8.8200  100.3800 C.3       6 GLY6        0.0000 
     85 CA         24.1300    7.9000  100.0400 C.3       6 GLY6        0.0000 
     86 CA         25.2600    6.9700   99.6900 C.3       6 GLY6        0.0000 
     87 CA         26.3900    6.0500   99.3400 C.3       6 GLY6        0.0000 
     88 CA         23.4600    9.7800   99.3300 C.3       6 GLY6        0.0000 
     89 CA         23.7100   13.5900   96.5100 C.3       6 GLY6        0.0000 
     90 CA         24.8400   12.6700   96.1600 C.3       6 GLY6        0.0000 
     91 CA         24.1700   14.5500   95.4500 C.3       6 GLY6        0.0000 
     92 CA         25.3000   13.6300   95.1100 C.3       6 GLY6        0.0000 
     93 CA         24.6300   15.5100   94.4000 C.3       6 GLY6        0.0000 
     94 CA         25.7600   14.5900   94.0500 C.3       6 GLY6        0.0000 
     95 CA         26.2200   15.5500   92.9900 C.3       6 GLY6        0.0000 
     96 CA         27.3500   14.6300   92.6500 C.3       6 GLY6        0.0000 
     97 CA         26.6800   16.5100   91.9400 C.3       6 GLY6        0.0000 
     98 CA         22.7000    3.7800  106.3200 C.3       6 GLY6        0.0000 
     99 CA         23.8300    2.8600  105.9700 C.3       6 GLY6        0.0000 
    100 CA         25.6700    6.7000  101.7500 C.3       6 GLY6        0.0000 
    101 CA         26.8400   12.4300   96.8200 C.3       6 GLY6        0.0000 
    102 DU         24.3400    5.0500  101.8000 H         7 CUB7        0.0000 
    103 DU         24.8000    6.0100  100.7400 H         7 CUB7        0.0000 
@<TRIPOS>BOND
@<TRIPOS>SUBSTRUCTURE
     1 SER1        1 GROUP   
     2 ALA2        7 GROUP   
     3 ASP3       30 GROUP   
     4 LYS4       56 GROUP   
     5 PHE5       69 GROUP   
     6 GLY6       76 GROUP   
     7 CUB7      102 GROUP   
@<TRIPOS>SET

