#    Name: 6dw3_4_DTP_CAVITY_N1_6
#    Modification time : Fri May 22 19:29:18 2020

@<TRIPOS>MOLECULE
6dw3_4_DTP_CAVITY_N1_6
   94     0     7     0     0
SMALL
NO_CHARGES


@<TRIPOS>ATOM
      1 OG         58.7400  -14.3600  109.8000 O.3       1 SER1        0.0000 
      2 OG         59.8700  -15.2800  109.4500 O.3       1 SER1        0.0000 
      3 OG         61.0000  -16.2100  109.1000 O.3       1 SER1        0.0000 
      4 OG         59.2000  -13.4000  108.7500 O.3       1 SER1        0.0000 
      5 OG         59.6100  -13.6700  110.8100 O.3       1 SER1        0.0000 
      6 OG         60.7400  -14.5900  110.4600 O.3       1 SER1        0.0000 
      7 OG         69.4700  -16.1900  110.6900 O.3       1 SER1        0.0000 
      8 N          56.2800  -15.0800  110.2000 N.am      2 ALA2        0.0000 
      9 N          56.7400  -14.1200  109.1400 N.am      2 ALA2        0.0000 
     10 O          57.1000  -10.2100  112.8600 O.2       2 ALA2        0.0000 
     11 O          56.3800   -9.5600  115.2700 O.2       2 ALA2        0.0000 
     12 N          59.5600   -9.4900  112.4600 N.am      2 ALA2        0.0000 
     13 N          60.6900  -10.4100  112.1200 N.am      2 ALA2        0.0000 
     14 N          61.8200  -11.3300  111.7700 N.am      2 ALA2        0.0000 
     15 O          66.1300  -12.1800  108.6100 O.2       2 ALA2        0.0000 
     16 N          62.6900  -10.6500  112.7700 N.am      2 ALA2        0.0000 
     17 N          64.2800  -10.6100  111.3700 N.am      2 ALA2        0.0000 
     18 N          65.4100  -11.5300  111.0200 N.am      2 ALA2        0.0000 
     19 N          61.9800  -10.0000  115.1900 N.am      2 ALA2        0.0000 
     20 O          63.1100  -10.9200  114.8400 O.2       2 ALA2        0.0000 
     21 N          64.2300  -11.8400  114.4900 N.am      2 ALA2        0.0000 
     22 N          64.7000  -10.8800  113.4300 N.am      2 ALA2        0.0000 
     23 N          65.8200  -11.8100  113.0900 N.am      2 ALA2        0.0000 
     24 N          65.1600   -9.9200  112.3800 N.am      2 ALA2        0.0000 
     25 N          66.2900  -10.8500  112.0300 N.am      2 ALA2        0.0000 
     26 N          63.9800  -10.2300  115.8400 N.am      2 ALA2        0.0000 
     27 N          64.4400   -9.2700  114.7900 N.am      2 ALA2        0.0000 
     28 N          65.5700  -10.1900  114.4400 N.am      2 ALA2        0.0000 
     29 N          64.9000   -8.3100  113.7300 N.am      2 ALA2        0.0000 
     30 N          66.0300   -9.2300  113.3900 N.am      2 ALA2        0.0000 
     31 N          65.3100   -8.5800  115.8000 N.am      2 ALA2        0.0000 
     32 N          66.4400   -9.5100  115.4500 N.am      2 ALA2        0.0000 
     33 OD1        57.1500  -14.4000  111.2000 O.co2     3 ASP3        0.0000 
     34 OD1        58.2800  -15.3200  110.8600 O.co2     3 ASP3        0.0000 
     35 OD1        61.6700  -18.0900  109.8100 O.co2     3 ASP3        0.0000 
     36 OD1        59.1500  -14.6300  111.8600 O.co2     3 ASP3        0.0000 
     37 OD1        60.2800  -15.5600  111.5200 O.co2     3 ASP3        0.0000 
     38 OD1        58.4800  -12.7500  111.1600 O.co2     3 ASP3        0.0000 
     39 OD1        58.2300  -11.1400  112.5100 O.co2     3 ASP3        0.0000 
     40 OD1        59.3600  -12.0600  112.1600 O.co2     3 ASP3        0.0000 
     41 OD1        60.4900  -12.9800  111.8200 O.co2     3 ASP3        0.0000 
     42 OD1        61.6200  -13.9100  111.4700 O.co2     3 ASP3        0.0000 
     43 OD1        67.6700  -18.8000  111.7900 O.co2     3 ASP3        0.0000 
     44 OD1        59.1000  -10.4500  113.5200 O.co2     3 ASP3        0.0000 
     45 OD1        60.2300  -11.3700  113.1700 O.co2     3 ASP3        0.0000 
     46 OD1        61.3600  -12.3000  112.8200 O.co2     3 ASP3        0.0000 
     47 OD1        62.4900  -13.2200  112.4700 O.co2     3 ASP3        0.0000 
     48 OD1        59.9700   -9.7600  114.5300 O.co2     3 ASP3        0.0000 
     49 OD1        61.1000  -10.6800  114.1800 O.co2     3 ASP3        0.0000 
     50 OD1        62.2300  -11.6100  113.8300 O.co2     3 ASP3        0.0000 
     51 NZ         57.2500   -8.8700  116.2800 N.4       4 LYS4        0.0000 
     52 NZ         68.5500  -18.1100  112.8000 N.4       4 LYS4        0.0000 
     53 NZ         63.3600  -12.5300  113.4800 N.4       4 LYS4        0.0000 
     54 CZ         57.3500  -11.8200  111.5000 C.ar      5 PHE5        0.0000 
     55 CZ         58.9400  -11.7900  110.1000 C.ar      5 PHE5        0.0000 
     56 CZ         59.8200  -11.1000  111.1100 C.ar      5 PHE5        0.0000 
     57 CZ         60.9500  -12.0200  110.7600 C.ar      5 PHE5        0.0000 
     58 CZ         62.9500  -12.2600  111.4200 C.ar      5 PHE5        0.0000 
     59 CZ         63.4100  -11.3000  110.3600 C.ar      5 PHE5        0.0000 
     60 CZ         64.5400  -12.2200  110.0200 C.ar      5 PHE5        0.0000 
     61 CZ         70.1400  -18.0700  111.3900 C.ar      5 PHE5        0.0000 
     62 CA         57.8700  -15.0500  108.7900 C.3       6 GLY6        0.0000 
     63 CA         56.4800  -12.5100  110.5000 C.3       6 GLY6        0.0000 
     64 CA         58.0700  -12.4700  109.0900 C.3       6 GLY6        0.0000 
     65 CA         61.4100  -16.4800  111.1700 C.3       6 GLY6        0.0000 
     66 CA         57.5100  -10.4800  114.9200 C.3       6 GLY6        0.0000 
     67 CA         56.8400   -8.6000  114.2200 C.3       6 GLY6        0.0000 
     68 CA         57.9700   -9.5200  113.8700 C.3       6 GLY6        0.0000 
     69 CA         68.1400  -17.8400  110.7300 C.3       6 GLY6        0.0000 
     70 CA         58.4300   -8.5600  112.8100 C.3       6 GLY6        0.0000 
     71 CA         64.0800  -13.1800  111.0700 C.3       6 GLY6        0.0000 
     72 CA         65.2100  -14.1100  110.7200 C.3       6 GLY6        0.0000 
     73 CA         65.6700  -13.1400  109.6700 C.3       6 GLY6        0.0000 
     74 CA         65.0000  -11.2600  108.9600 C.3       6 GLY6        0.0000 
     75 CA         58.3800   -9.8000  115.9300 C.3       6 GLY6        0.0000 
     76 CA         57.7100   -7.9100  115.2200 C.3       6 GLY6        0.0000 
     77 CA         58.8400   -8.8400  114.8700 C.3       6 GLY6        0.0000 
     78 CA         64.4900  -13.4500  113.1300 C.3       6 GLY6        0.0000 
     79 CA         67.8800  -16.2300  112.0900 C.3       6 GLY6        0.0000 
     80 CA         69.0100  -17.1500  111.7400 C.3       6 GLY6        0.0000 
     81 CA         59.3100   -7.8700  113.8200 C.3       6 GLY6        0.0000 
     82 CA         61.5600   -9.7200  113.1200 C.3       6 GLY6        0.0000 
     83 CA         64.9500  -12.4900  112.0800 C.3       6 GLY6        0.0000 
     84 CA         66.0800  -13.4200  111.7300 C.3       6 GLY6        0.0000 
     85 CA         67.2100  -14.3400  111.3800 C.3       6 GLY6        0.0000 
     86 CA         68.3400  -15.2700  111.0300 C.3       6 GLY6        0.0000 
     87 CA         66.5400  -12.4600  110.6700 C.3       6 GLY6        0.0000 
     88 CA         63.5700   -9.9600  113.7800 C.3       6 GLY6        0.0000 
     89 CA         64.0300   -9.0000  112.7300 C.3       6 GLY6        0.0000 
     90 CA         65.7700   -7.6200  114.7400 C.3       6 GLY6        0.0000 
     91 DU         59.4100  -16.2400  110.5100 H         7 CUB7        0.0000 
     92 DU         60.5400  -17.1700  110.1600 H         7 CUB7        0.0000 
     93 DU         57.6100  -13.4300  110.1500 H         7 CUB7        0.0000 
     94 DU         63.8200  -11.5700  112.4300 H         7 CUB7        0.0000 
@<TRIPOS>BOND
@<TRIPOS>SUBSTRUCTURE
     1 SER1        1 GROUP   
     2 ALA2        8 GROUP   
     3 ASP3       33 GROUP   
     4 LYS4       51 GROUP   
     5 PHE5       54 GROUP   
     6 GLY6       62 GROUP   
     7 CUB7       91 GROUP   
@<TRIPOS>SET

