#    Name: 6dw3_1_DTP
#    Modification time : Fri May 22 19:28:05 2020

@<TRIPOS>MOLECULE
6dw3_1_DTP
   30    32     1     0     0
SMALL
NO_CHARGES


@<TRIPOS>ATOM
      1 PG         29.3360   12.0300   98.1550 P.3       1 DTP703      0.0000 
      2 O1G        30.1140   12.2510   96.8670 O.co2     1 DTP703      0.0000 
      3 O2G        29.5990   13.0140   99.2530 O.co2     1 DTP703      0.0000 
      4 O3G        27.8320   11.7510   97.9740 O.co2     1 DTP703      0.0000 
      5 PB         31.0850    9.6950   98.3920 P.3       1 DTP703      0.0000 
      6 O1B        32.0450   10.4580   97.5070 O.co2     1 DTP703      0.0000 
      7 O2B        30.6310    8.3290   97.9790 O.co2     1 DTP703      0.0000 
      8 O3B        29.7730   10.5720   98.7240 O.3       1 DTP703      0.0000 
      9 PA         31.5020    8.8230  101.0670 P.3       1 DTP703      0.0000 
     10 O1A        30.5520    7.6940  100.8690 O.co2     1 DTP703      0.0000 
     11 O2A        31.3970    9.8470  102.1480 O.co2     1 DTP703      0.0000 
     12 O3A        31.8390    9.7120   99.7830 O.3       1 DTP703      0.0000 
     13 O5'        32.9040    8.0830  101.4130 O.3       1 DTP703      0.0000 
     14 C5'        34.1140    8.8030  101.6200 C.3       1 DTP703      0.0000 
     15 C4'        35.1830    7.9610  102.3430 C.3       1 DTP703      0.0000 
     16 O4'        34.6980    7.3790  103.6210 O.3       1 DTP703      0.0000 
     17 C3'        35.6630    6.8030  101.5060 C.3       1 DTP703      0.0000 
     18 O3'        37.0180    6.5820  101.8490 O.3       1 DTP703      0.0000 
     19 C2'        34.8010    5.6020  101.9790 C.3       1 DTP703      0.0000 
     20 C1'        34.5500    5.9540  103.4620 C.3       1 DTP703      0.0000 
     21 N9         33.2030    5.7620  103.9790 N.pl3     1 DTP703      0.0000 
     22 C8         31.9870    5.7930  103.3390 C.2       1 DTP703      0.0000 
     23 N7         30.9780    5.6380  104.2540 N.2       1 DTP703      0.0000 
     24 C5         31.5730    5.4390  105.4520 C.ar      1 DTP703      0.0000 
     25 C6         31.1160    5.2620  106.8410 C.ar      1 DTP703      0.0000 
     26 N6         29.7890    5.1740  107.0930 N.pl3     1 DTP703      0.0000 
     27 N1         32.0060    5.1370  107.8130 N.ar      1 DTP703      0.0000 
     28 C2         33.3300    5.2550  107.5460 C.ar      1 DTP703      0.0000 
     29 N3         33.8110    5.4290  106.3170 N.ar      1 DTP703      0.0000 
     30 C4         32.9910    5.5700  105.2900 C.ar      1 DTP703      0.0000 
@<TRIPOS>BOND
     1    1    2 ar   
     2    1    3 ar   
     3    1    4 ar   
     4    1    8 1    
     5    5    6 ar   
     6    5    7 ar   
     7    5    8 1    
     8    5   12 1    
     9    9   10 ar   
    10    9   11 ar   
    11    9   12 1    
    12    9   13 1    
    13   13   14 1    
    14   14   15 1    
    15   15   16 1    
    16   15   17 1    
    17   16   20 1    
    18   17   18 1    
    19   17   19 1    
    20   19   20 1    
    21   20   21 1    
    22   21   22 1    
    23   21   30 1    
    24   22   23 2    
    25   23   24 1    
    26   24   25 ar   
    27   24   30 ar   
    28   25   26 1    
    29   25   27 ar   
    30   27   28 ar   
    31   28   29 ar   
    32   29   30 ar   
@<TRIPOS>SUBSTRUCTURE
     1 DTP703      1 GROUP   
@<TRIPOS>SET

