#    Name: 6dw3_3_DTP_CAVITY_N1_6
#    Modification time : Fri May 22 19:28:54 2020

@<TRIPOS>MOLECULE
6dw3_3_DTP_CAVITY_N1_6
   31     0     6     0     0
SMALL
NO_CHARGES


@<TRIPOS>ATOM
      1 OG         29.5500  -21.5100  131.0500 O.3       1 SER1        0.0000 
      2 OG         30.0100  -20.5500  129.9900 O.3       1 SER1        0.0000 
      3 OG         30.3800  -22.0600  135.1800 O.3       1 SER1        0.0000 
      4 OG         31.2500  -21.3700  136.1800 O.3       1 SER1        0.0000 
      5 N          30.8400  -21.1000  134.1200 N.am      2 ALA2        0.0000 
      6 N          31.3000  -20.1400  133.0600 N.am      2 ALA2        0.0000 
      7 N          32.4300  -21.0600  132.7200 N.am      2 ALA2        0.0000 
      8 N          32.8900  -20.1000  131.6600 N.am      2 ALA2        0.0000 
      9 N          31.7100  -20.4100  135.1300 N.am      2 ALA2        0.0000 
     10 N          32.1700  -19.4500  134.0700 N.am      2 ALA2        0.0000 
     11 N          32.6300  -18.4900  133.0200 N.am      2 ALA2        0.0000 
     12 OD1        28.8400  -20.8600  133.4600 O.co2     3 ASP3        0.0000 
     13 OD1        29.3000  -19.9000  132.4000 O.co2     3 ASP3        0.0000 
     14 OD1        30.4300  -20.8200  132.0600 O.co2     3 ASP3        0.0000 
     15 OD1        29.7600  -18.9400  131.3500 O.co2     3 ASP3        0.0000 
     16 OD1        29.7100  -20.1700  134.4700 O.co2     3 ASP3        0.0000 
     17 OD1        29.0400  -18.2900  133.7600 O.co2     3 ASP3        0.0000 
     18 OD1        30.1700  -19.2100  133.4100 O.co2     3 ASP3        0.0000 
     19 OD1        28.7800  -16.6800  135.1200 O.co2     3 ASP3        0.0000 
     20 OD1        29.9100  -17.6000  134.7700 O.co2     3 ASP3        0.0000 
     21 CZ         30.8900  -19.8600  131.0000 C.ar      4 PHE5        0.0000 
     22 CZ         31.7600  -19.1800  132.0100 C.ar      4 PHE5        0.0000 
     23 CA         27.5000  -22.5100  133.5100 C.3       5 GLY6        0.0000 
     24 CA         27.9600  -21.5500  132.4500 C.3       5 GLY6        0.0000 
     25 CA         28.3800  -21.8200  134.5200 C.3       5 GLY6        0.0000 
     26 CA         28.7900  -22.1000  136.5800 C.3       5 GLY6        0.0000 
     27 CA         29.2500  -21.1300  135.5200 C.3       5 GLY6        0.0000 
     28 CA         28.5800  -19.2500  134.8200 C.3       5 GLY6        0.0000 
     29 DU         29.9700  -21.7800  133.1100 H         6 CUB7        0.0000 
     30 DU         30.5800  -19.4900  135.4700 H         6 CUB7        0.0000 
     31 DU         31.0400  -18.5200  134.4200 H         6 CUB7        0.0000 
@<TRIPOS>BOND
@<TRIPOS>SUBSTRUCTURE
     1 SER1        1 GROUP   
     2 ALA2        5 GROUP   
     3 ASP3       12 GROUP   
     4 PHE5       21 GROUP   
     5 GLY6       23 GROUP   
     6 CUB7       29 GROUP   
@<TRIPOS>SET

