#    Name: 5zpn_2_HY1
#    Modification time : Fri May 22 19:24:54 2020

@<TRIPOS>MOLECULE
5zpn_2_HY1
    9     9     1     0     0
SMALL
NO_CHARGES


@<TRIPOS>ATOM
      1 C1'       150.7920   -8.9320   42.9410 C.ar      1 HY1703      0.0000 
      2 C2'       151.2990   -8.0790   41.9710 C.ar      1 HY1703      0.0000 
      3 C3'       150.4730   -7.1450   41.3630 C.ar      1 HY1703      0.0000 
      4 C4'       149.1350   -7.0820   41.7260 C.ar      1 HY1703      0.0000 
      5 C5'       148.6270   -7.9440   42.6860 C.ar      1 HY1703      0.0000 
      6 C6'       149.4580   -8.8670   43.3020 C.ar      1 HY1703      0.0000 
      7 CA        151.6920   -9.9720   43.6040 C.3       1 HY1703      0.0000 
      8 C         152.9220   -9.3210   44.2270 C.2       1 HY1703      0.0000 
      9 O         152.5810   -8.7650   45.4740 O.2       1 HY1703      0.0000 
@<TRIPOS>BOND
     1    1    2 ar   
     2    1    6 ar   
     3    1    7 1    
     4    2    3 ar   
     5    3    4 ar   
     6    4    5 ar   
     7    5    6 ar   
     8    7    8 1    
     9    8    9 2    
@<TRIPOS>SUBSTRUCTURE
     1 HY1703      1 GROUP   
@<TRIPOS>SET

