#    Name: 5zpn_2_HY1_CAVITY_N1_4
#    Modification time : Fri May 22 19:24:55 2020

@<TRIPOS>MOLECULE
5zpn_2_HY1_CAVITY_N1_4
   27     0     4     0     0
SMALL
NO_CHARGES


@<TRIPOS>ATOM
      1 OG        151.7500   -9.6500   41.8800 O.3       1 SER1        0.0000 
      2 N         151.3800   -8.3300   41.2600 N.am      2 ALA2        0.0000 
      3 N         148.8500   -8.2900   42.8700 N.am      2 ALA2        0.0000 
      4 N         151.2000   -8.9100   43.7900 N.am      2 ALA2        0.0000 
      5 CZ        149.0100   -4.3600   40.2200 C.ar      3 PHE5        0.0000 
      6 CZ        146.4800   -4.3100   41.8300 C.ar      3 PHE5        0.0000 
      7 CZ        150.6500   -5.7000   40.0300 C.ar      3 PHE5        0.0000 
      8 CZ        152.4600   -8.9400   42.9800 C.ar      3 PHE5        0.0000 
      9 CA        149.5600   -5.0900   38.3100 C.3       4 GLY6        0.0000 
     10 CA        148.3000   -5.0700   39.1200 C.3       4 GLY6        0.0000 
     11 CA        147.0300   -5.0500   39.9200 C.3       4 GLY6        0.0000 
     12 CA        147.4000   -6.3700   40.5400 C.3       4 GLY6        0.0000 
     13 CA        147.7700   -7.6800   41.1500 C.3       4 GLY6        0.0000 
     14 CA        149.4000   -9.0300   40.9600 C.3       4 GLY6        0.0000 
     15 CA        148.1300   -9.0000   41.7600 C.3       4 GLY6        0.0000 
     16 CA        147.7500   -4.3300   41.0300 C.3       4 GLY6        0.0000 
     17 CA        149.3800   -5.6700   40.8400 C.3       4 GLY6        0.0000 
     18 CA        148.1100   -5.6500   41.6400 C.3       4 GLY6        0.0000 
     19 CA        151.0100   -7.0100   40.6500 C.3       4 GLY6        0.0000 
     20 CA        149.7500   -6.9900   41.4500 C.3       4 GLY6        0.0000 
     21 CA        148.4800   -6.9700   42.2600 C.3       4 GLY6        0.0000 
     22 CA        150.1100   -8.3100   42.0700 C.3       4 GLY6        0.0000 
     23 CA        150.4800   -9.6300   42.6800 C.3       4 GLY6        0.0000 
     24 CA        149.2200   -9.6100   43.4900 C.3       4 GLY6        0.0000 
     25 CA        148.4600   -3.6200   42.1400 C.3       4 GLY6        0.0000 
     26 CA        152.1000   -7.6200   42.3700 C.3       4 GLY6        0.0000 
     27 CA        150.8300   -7.6000   43.1700 C.3       4 GLY6        0.0000 
@<TRIPOS>BOND
@<TRIPOS>SUBSTRUCTURE
     1 SER1        1 GROUP   
     2 ALA2        2 GROUP   
     3 PHE5        5 GROUP   
     4 GLY6        9 GROUP   
@<TRIPOS>SET

