#    Name: 5w7m_1_SAH_CAVITY_N1_6
#    Modification time : Fri May 22 19:15:49 2020

@<TRIPOS>MOLECULE
5w7m_1_SAH_CAVITY_N1_6
   23     0     5     0     0
SMALL
NO_CHARGES


@<TRIPOS>ATOM
      1 OG         13.1600   19.3700   12.8600 O.3       1 SER1        0.0000 
      2 O           7.8300   17.0100   14.9200 O.2       2 ALA2        0.0000 
      3 O           8.4300   18.9600   14.3300 O.2       2 ALA2        0.0000 
      4 O           8.4200   18.2000   15.6200 O.2       2 ALA2        0.0000 
      5 O           9.8100   18.4500   14.0400 O.2       2 ALA2        0.0000 
      6 N           9.8000   17.6800   15.3300 N.am      2 ALA2        0.0000 
      7 CZ          9.6100   20.5600   17.0400 C.ar      3 PHE5        0.0000 
      8 CZ          8.8200   22.2600   18.0400 C.ar      3 PHE5        0.0000 
      9 CA          6.4500   17.5300   15.2100 C.3       4 GLY6        0.0000 
     10 CA          7.0400   18.7100   15.9200 C.3       4 GLY6        0.0000 
     11 CA          7.6400   19.8900   16.6300 C.3       4 GLY6        0.0000 
     12 CA          8.2300   21.0800   17.3300 C.3       4 GLY6        0.0000 
     13 DU          7.0500   19.4800   14.6300 H         5 CUB7        0.0000 
     14 DU          7.6400   20.6600   15.3400 H         5 CUB7        0.0000 
     15 DU          9.0200   20.1500   15.0400 H         5 CUB7        0.0000 
     16 DU          9.0100   19.3800   16.3300 H         5 CUB7        0.0000 
     17 DU         10.4000   19.6300   14.7400 H         5 CUB7        0.0000 
     18 DU         10.3900   18.8600   16.0300 H         5 CUB7        0.0000 
     19 DU         11.7900   19.8800   13.1600 H         5 CUB7        0.0000 
     20 DU          8.2400   21.8400   16.0400 H         5 CUB7        0.0000 
     21 DU          9.6100   21.3300   15.7500 H         5 CUB7        0.0000 
     22 DU         10.9900   20.8100   15.4500 H         5 CUB7        0.0000 
     23 DU         10.2100   22.5100   16.4500 H         5 CUB7        0.0000 
@<TRIPOS>BOND
@<TRIPOS>SUBSTRUCTURE
     1 SER1        1 GROUP   
     2 ALA2        2 GROUP   
     3 PHE5        7 GROUP   
     4 GLY6        9 GROUP   
     5 CUB7       13 GROUP   
@<TRIPOS>SET

