#    Name: 5w7m_1_SAH
#    Modification time : Fri May 22 19:15:48 2020

@<TRIPOS>MOLECULE
5w7m_1_SAH
   26    28     1     0     0
SMALL
NO_CHARGES


@<TRIPOS>ATOM
      1 N          10.7660   12.7660   20.1770 N.4       1 SAH301      0.0000 
      2 CA          9.8880   13.9020   20.4550 C.3       1 SAH301      0.0000 
      3 CB         10.4940   15.2480   20.0300 C.3       1 SAH301      0.0000 
      4 CG         10.8330   15.5020   18.5590 C.3       1 SAH301      0.0000 
      5 SD         11.1980   17.2670   18.3070 S.3       1 SAH301      0.0000 
      6 C           8.5540   13.6780   19.7660 C.2       1 SAH301      0.0000 
      7 O           8.3780   12.7240   18.9870 O.co2     1 SAH301      0.0000 
      8 OXT         7.6110   14.4430   20.0030 O.co2     1 SAH301      0.0000 
      9 C5'        12.9890   17.0570   18.2030 C.3       1 SAH301      0.0000 
     10 C4'        13.6900   17.1160   19.5630 C.3       1 SAH301      0.0000 
     11 O4'        15.0820   16.9800   19.3580 O.3       1 SAH301      0.0000 
     12 C3'        13.5000   18.4050   20.3670 C.3       1 SAH301      0.0000 
     13 O3'        12.9910   18.0170   21.6280 O.3       1 SAH301      0.0000 
     14 C2'        14.9000   18.9900   20.5180 C.3       1 SAH301      0.0000 
     15 O2'        15.1640   19.6300   21.7560 O.3       1 SAH301      0.0000 
     16 C1'        15.7460   17.7430   20.3550 C.3       1 SAH301      0.0000 
     17 N9         17.1380   17.9380   19.9280 N.pl3     1 SAH301      0.0000 
     18 C8         17.6380   18.7990   18.9800 C.2       1 SAH301      0.0000 
     19 N7         18.9740   18.5980   18.9020 N.2       1 SAH301      0.0000 
     20 C5         19.3230   17.6220   19.7850 C.ar      1 SAH301      0.0000 
     21 C6         20.5340   17.0340   20.1270 C.ar      1 SAH301      0.0000 
     22 N6         21.6840   17.3830   19.5570 N.pl3     1 SAH301      0.0000 
     23 N1         20.5500   16.0540   21.0930 N.ar      1 SAH301      0.0000 
     24 C2         19.3910   15.6650   21.7170 C.ar      1 SAH301      0.0000 
     25 N3         18.1990   16.2430   21.3860 N.ar      1 SAH301      0.0000 
     26 C4         18.1720   17.2020   20.4250 C.ar      1 SAH301      0.0000 
@<TRIPOS>BOND
     1    1    2 1    
     2    2    3 1    
     3    2    6 1    
     4    3    4 1    
     5    4    5 1    
     6    5    9 1    
     7    6    7 ar   
     8    6    8 ar   
     9    9   10 1    
    10   10   11 1    
    11   10   12 1    
    12   11   16 1    
    13   12   13 1    
    14   12   14 1    
    15   14   15 1    
    16   14   16 1    
    17   16   17 1    
    18   17   18 1    
    19   17   26 1    
    20   18   19 2    
    21   19   20 1    
    22   20   21 ar   
    23   20   26 ar   
    24   21   22 1    
    25   21   23 ar   
    26   23   24 ar   
    27   24   25 ar   
    28   25   26 ar   
@<TRIPOS>SUBSTRUCTURE
     1 SAH301      1 GROUP   
@<TRIPOS>SET

