#    Name: 5w7m_1_SAH_CAVITY_N1_ALL
#    Modification time : Fri May 22 19:15:49 2020

@<TRIPOS>MOLECULE
5w7m_1_SAH_CAVITY_N1_ALL
   82     0     5     0     0
SMALL
NO_CHARGES


@<TRIPOS>ATOM
      1 OG         12.5800   18.9500   10.8700 O.3       1 SER1        0.0000 
      2 OG         13.1600   19.3700   12.8600 O.3       1 SER1        0.0000 
      3 OG         14.5500   19.6200   11.2800 O.3       1 SER1        0.0000 
      4 OG         13.7700   21.3200   12.2800 O.3       1 SER1        0.0000 
      5 OG         15.1400   20.8100   11.9800 O.3       1 SER1        0.0000 
      6 OG         15.7400   21.9900   12.6900 O.3       1 SER1        0.0000 
      7 O           6.4700   19.0600   12.6300 O.2       2 ALA2        0.0000 
      8 O           6.4600   18.2900   13.9200 O.2       2 ALA2        0.0000 
      9 O           7.8300   17.0100   14.9200 O.2       2 ALA2        0.0000 
     10 O           5.6900   21.5200   12.3500 O.2       2 ALA2        0.0000 
     11 O           7.0700   21.0100   12.0500 O.2       2 ALA2        0.0000 
     12 O           8.4400   19.7300   13.0400 O.2       2 ALA2        0.0000 
     13 O           8.4300   18.9600   14.3300 O.2       2 ALA2        0.0000 
     14 O           8.4200   18.2000   15.6200 O.2       2 ALA2        0.0000 
     15 O           9.8100   18.4500   14.0400 O.2       2 ALA2        0.0000 
     16 N           9.8000   17.6800   15.3300 N.am      2 ALA2        0.0000 
     17 O           7.6600   22.1900   12.7600 O.2       2 ALA2        0.0000 
     18 N          16.5200   20.2900   11.6900 N.am      2 ALA2        0.0000 
     19 CZ          5.0800   18.8100   14.2200 C.ar      3 PHE5        0.0000 
     20 CZ         10.6100   18.2900   10.4500 C.ar      3 PHE5        0.0000 
     21 CZ          5.6800   20.7600   13.6400 C.ar      3 PHE5        0.0000 
     22 CZ          9.8200   19.9800   11.4600 C.ar      3 PHE5        0.0000 
     23 CZ          9.8100   19.2200   12.7500 C.ar      3 PHE5        0.0000 
     24 CZ         11.1900   18.7000   12.4500 C.ar      3 PHE5        0.0000 
     25 CZ          7.6700   22.9600   11.4700 C.ar      3 PHE5        0.0000 
     26 CZ          9.0500   22.4400   11.1700 C.ar      3 PHE5        0.0000 
     27 CZ         10.4300   21.9300   10.8800 C.ar      3 PHE5        0.0000 
     28 CZ         11.8000   21.4200   10.5800 C.ar      3 PHE5        0.0000 
     29 CZ          9.6100   20.5600   17.0400 C.ar      3 PHE5        0.0000 
     30 CZ         11.0200   23.1100   11.5800 C.ar      3 PHE5        0.0000 
     31 CZ          8.8200   22.2600   18.0400 C.ar      3 PHE5        0.0000 
     32 CA          6.4500   17.5300   15.2100 C.3       4 GLY6        0.0000 
     33 CA          4.3000   21.2700   13.9300 C.3       4 GLY6        0.0000 
     34 CA          5.6700   19.9900   14.9300 C.3       4 GLY6        0.0000 
     35 CA          5.6600   19.2200   16.2100 C.3       4 GLY6        0.0000 
     36 CA          7.0400   18.7100   15.9200 C.3       4 GLY6        0.0000 
     37 CA         11.2100   20.2300    9.8700 C.3       4 GLY6        0.0000 
     38 CA         12.5900   19.7200    9.5800 C.3       4 GLY6        0.0000 
     39 CA          4.8900   21.6900   15.9300 C.3       4 GLY6        0.0000 
     40 CA          6.2800   22.7100   13.0500 C.3       4 GLY6        0.0000 
     41 CA          6.2700   21.9400   14.3400 C.3       4 GLY6        0.0000 
     42 CA          6.2700   21.1700   15.6300 C.3       4 GLY6        0.0000 
     43 CA          7.6400   19.8900   16.6300 C.3       4 GLY6        0.0000 
     44 CA          6.8600   22.3600   16.3400 C.3       4 GLY6        0.0000 
     45 CA          6.8500   21.5900   17.6300 C.3       4 GLY6        0.0000 
     46 CA          8.2600   24.1400   12.1800 C.3       4 GLY6        0.0000 
     47 CA          8.2500   23.3700   13.4600 C.3       4 GLY6        0.0000 
     48 CA          8.2300   21.0800   17.3300 C.3       4 GLY6        0.0000 
     49 CA          9.6400   23.6300   11.8800 C.3       4 GLY6        0.0000 
     50 CA         16.5300   21.0600   10.4000 C.3       4 GLY6        0.0000 
     51 CA          7.4400   22.7700   18.3400 C.3       4 GLY6        0.0000 
     52 CA         17.1200   22.2400   11.1000 C.3       4 GLY6        0.0000 
     53 CA         17.1100   21.4700   12.3900 C.3       4 GLY6        0.0000 
     54 CA         17.7200   23.4200   11.8100 C.3       4 GLY6        0.0000 
     55 DU          7.0600   20.2400   13.3400 H         5 CUB7        0.0000 
     56 DU          7.0500   19.4800   14.6300 H         5 CUB7        0.0000 
     57 DU         11.2000   19.4700   11.1600 H         5 CUB7        0.0000 
     58 DU          7.6500   21.4300   14.0500 H         5 CUB7        0.0000 
     59 DU          7.6400   20.6600   15.3400 H         5 CUB7        0.0000 
     60 DU          9.0400   21.6800   12.4600 H         5 CUB7        0.0000 
     61 DU          9.0200   20.1500   15.0400 H         5 CUB7        0.0000 
     62 DU          9.0100   19.3800   16.3300 H         5 CUB7        0.0000 
     63 DU         10.4200   21.1600   12.1700 H         5 CUB7        0.0000 
     64 DU         10.4000   19.6300   14.7400 H         5 CUB7        0.0000 
     65 DU         10.3900   18.8600   16.0300 H         5 CUB7        0.0000 
     66 DU         11.7900   19.8800   13.1600 H         5 CUB7        0.0000 
     67 DU         13.1800   20.9000   10.2800 H         5 CUB7        0.0000 
     68 DU         13.1700   20.1400   11.5700 H         5 CUB7        0.0000 
     69 DU         14.5600   20.3900    9.9900 H         5 CUB7        0.0000 
     70 DU          8.2500   22.6100   14.7500 H         5 CUB7        0.0000 
     71 DU          8.2400   21.8400   16.0400 H         5 CUB7        0.0000 
     72 DU          9.6300   22.8600   13.1700 H         5 CUB7        0.0000 
     73 DU          9.6100   21.3300   15.7500 H         5 CUB7        0.0000 
     74 DU         10.9900   20.8100   15.4500 H         5 CUB7        0.0000 
     75 DU         12.4000   22.6000   11.2900 H         5 CUB7        0.0000 
     76 DU         12.3900   21.8300   12.5800 H         5 CUB7        0.0000 
     77 DU         13.7700   22.0900   10.9900 H         5 CUB7        0.0000 
     78 DU         15.1500   21.5700   10.6900 H         5 CUB7        0.0000 
     79 DU          8.8300   23.0200   16.7500 H         5 CUB7        0.0000 
     80 DU         10.2100   22.5100   16.4500 H         5 CUB7        0.0000 
     81 DU         12.9900   23.7800   11.9900 H         5 CUB7        0.0000 
     82 DU         15.7400   22.7500   11.4000 H         5 CUB7        0.0000 
@<TRIPOS>BOND
@<TRIPOS>SUBSTRUCTURE
     1 SER1        1 GROUP   
     2 ALA2        7 GROUP   
     3 PHE5       19 GROUP   
     4 GLY6       32 GROUP   
     5 CUB7       55 GROUP   
@<TRIPOS>SET

