#    Name: 5w7m_1_SAH_CAVITY_N1_4
#    Modification time : Fri May 22 19:15:49 2020

@<TRIPOS>MOLECULE
5w7m_1_SAH_CAVITY_N1_4
    5     0     3     0     0
SMALL
NO_CHARGES


@<TRIPOS>ATOM
      1 O           8.4200   18.2000   15.6200 O.2       1 ALA2        0.0000 
      2 N           9.8000   17.6800   15.3300 N.am      1 ALA2        0.0000 
      3 CZ          9.6100   20.5600   17.0400 C.ar      2 PHE5        0.0000 
      4 DU          9.0100   19.3800   16.3300 H         3 CUB7        0.0000 
      5 DU         10.3900   18.8600   16.0300 H         3 CUB7        0.0000 
@<TRIPOS>BOND
@<TRIPOS>SUBSTRUCTURE
     1 ALA2        1 GROUP   
     2 PHE5        3 GROUP   
     3 CUB7        4 GROUP   
@<TRIPOS>SET

