#    Name: 6box_2_SAH
#    Modification time : Fri May 22 19:28:05 2020

@<TRIPOS>MOLECULE
6box_2_SAH
   45    47     1     0     0
SMALL
NO_CHARGES


@<TRIPOS>ATOM
      1 N         120.8160  -35.2240   92.1430 N.4       1 SAH505      0.0000 
      2 CA        120.2180  -36.4980   91.8560 C.3       1 SAH505      0.0000 
      3 CB        119.6560  -36.4930   90.4510 C.3       1 SAH505      0.0000 
      4 CG        118.2570  -35.8160   90.4410 C.3       1 SAH505      0.0000 
      5 SD        117.0400  -36.9120   91.2530 S.3       1 SAH505      0.0000 
      6 C         121.3000  -37.6220   91.9750 C.2       1 SAH505      0.0000 
      7 O         121.0560  -38.7880   91.5300 O.co2     1 SAH505      0.0000 
      8 OXT       122.4000  -37.3710   92.5090 O.co2     1 SAH505      0.0000 
      9 C5'       116.1120  -35.9710   92.5290 C.3       1 SAH505      0.0000 
     10 C4'       116.9560  -35.9580   93.8700 C.3       1 SAH505      0.0000 
     11 O4'       117.9960  -35.1980   93.7320 O.3       1 SAH505      0.0000 
     12 C3'       116.1120  -35.3370   95.0210 C.3       1 SAH505      0.0000 
     13 O3'       115.5410  -36.3210   95.7800 O.3       1 SAH505      0.0000 
     14 C2'       117.1200  -34.5590   95.8300 C.3       1 SAH505      0.0000 
     15 O2'       117.7600  -35.4410   96.8570 O.3       1 SAH505      0.0000 
     16 C1'       118.0160  -34.1410   94.9470 C.3       1 SAH505      0.0000 
     17 N9        117.6770  -32.8100   94.4470 N.pl3     1 SAH505      0.0000 
     18 C8        117.3590  -32.4670   93.1960 C.2       1 SAH505      0.0000 
     19 N7        117.1270  -31.1390   93.1780 N.2       1 SAH505      0.0000 
     20 C5        117.3020  -30.6600   94.4210 C.ar      1 SAH505      0.0000 
     21 C6        117.1950  -29.4090   94.9450 C.ar      1 SAH505      0.0000 
     22 N6        116.8490  -28.0630   94.4130 N.pl3     1 SAH505      0.0000 
     23 N1        117.4330  -29.2190   96.2420 N.ar      1 SAH505      0.0000 
     24 C2        117.7770  -30.2530   97.0350 C.ar      1 SAH505      0.0000 
     25 N3        117.8840  -31.4870   96.5240 N.ar      1 SAH505      0.0000 
     26 C4        117.6480  -31.6870   95.2090 C.ar      1 SAH505      0.0000 
     27 H2        117.9090  -29.9630   97.9090 H         1 SAH505      0.0000 
     28 HN1       121.2980  -34.9580   91.4440 H         1 SAH505      0.0000 
     29 HN2       121.3450  -35.2990   92.8550 H         1 SAH505      0.0000 
     30 HA        119.5040  -36.6710   92.4890 H         1 SAH505      0.0000 
     31 HB1       119.5720  -37.4070   90.1370 H         1 SAH505      0.0000 
     32 HB2       120.2540  -36.0050   89.8640 H         1 SAH505      0.0000 
     33 HG1       117.9820  -35.6520   89.5250 H         1 SAH505      0.0000 
     34 HG2       118.3020  -34.9740   90.9210 H         1 SAH505      0.0000 
     35 H5'1      115.2550  -36.3960   92.6880 H         1 SAH505      0.0000 
     36 H5'2      115.9720  -35.0610   92.2220 H         1 SAH505      0.0000 
     37 H4'       117.2300  -36.8580   94.1050 H         1 SAH505      0.0000 
     38 H3'       115.4350  -34.7410   94.6640 H         1 SAH505      0.0000 
     39 HO3'      116.0670  -36.5310   96.4140 H         1 SAH505      0.0000 
     40 H2'       116.6910  -33.7990   96.2540 H         1 SAH505      0.0000 
     41 HO2'      118.5410  -35.6530   96.5980 H         1 SAH505      0.0000 
     42 H1'       118.8960  -34.1300   95.3540 H         1 SAH505      0.0000 
     43 H8        117.3070  -33.0420   92.4670 H         1 SAH505      0.0000 
     44 HN61      116.6730  -27.9630   93.5770 H         1 SAH505      0.0000 
     45 HN62      116.8250  -27.3860   94.9420 H         1 SAH505      0.0000 
@<TRIPOS>BOND
     1    1    2 1    
     2    2    3 1    
     3    1   28 1    
     4    1   29 1    
     5    2    6 1    
     6    2   30 1    
     7    3    4 1    
     8    3   31 1    
     9    3   32 1    
    10    4    5 1    
    11    4   33 1    
    12    4   34 1    
    13    5    9 1    
    14    6    7 ar   
    15    6    8 ar   
    16    9   10 1    
    17    9   35 1    
    18    9   36 1    
    19   10   11 1    
    20   10   12 1    
    21   10   37 1    
    22   11   16 1    
    23   12   13 1    
    24   12   14 1    
    25   12   38 1    
    26   13   39 1    
    27   14   15 1    
    28   14   16 1    
    29   14   40 1    
    30   16   42 1    
    31   16   17 1    
    32   15   41 1    
    33   17   18 1    
    34   17   26 1    
    35   18   19 2    
    36   19   20 1    
    37   18   43 1    
    38   20   21 ar   
    39   20   26 ar   
    40   21   22 1    
    41   21   23 ar   
    42   23   24 ar   
    43   22   44 1    
    44   22   45 1    
    45   24   25 ar   
    46   25   26 ar   
    47   24   27 1    
@<TRIPOS>SUBSTRUCTURE
     1 SAH505      1 GROUP   
@<TRIPOS>SET

