#    Name: 6box_1_SAH_CAVITY_N1_6
#    Modification time : Fri May 22 19:28:02 2020

@<TRIPOS>MOLECULE
6box_1_SAH_CAVITY_N1_6
   98     0     7     0     0
SMALL
NO_CHARGES


@<TRIPOS>ATOM
      1 OG        108.7000  -20.4500  113.7800 O.3       1 SER1        0.0000 
      2 OG        107.6600  -21.9700  114.8400 O.3       1 SER1        0.0000 
      3 OG        110.4300  -18.5200  113.9900 O.3       1 SER1        0.0000 
      4 OG        110.6900  -19.9600  114.3100 O.3       1 SER1        0.0000 
      5 OG        109.3900  -20.0400  115.0500 O.3       1 SER1        0.0000 
      6 OG        108.0800  -20.1100  115.7800 O.3       1 SER1        0.0000 
      7 OG        110.0800  -19.6200  116.3100 O.3       1 SER1        0.0000 
      8 OG        108.7700  -19.7000  117.0500 O.3       1 SER1        0.0000 
      9 OG        107.4700  -19.7800  117.7900 O.3       1 SER1        0.0000 
     10 OG        109.4600  -19.2900  118.3200 O.3       1 SER1        0.0000 
     11 OG        108.1600  -19.3700  119.0500 O.3       1 SER1        0.0000 
     12 OG        109.8900  -17.4400  119.2600 O.3       1 SER1        0.0000 
     13 OG        108.5800  -17.5100  120.0000 O.3       1 SER1        0.0000 
     14 N         111.6100  -29.0100  114.9900 N.am      2 ALA2        0.0000 
     15 N         108.3500  -21.5500  116.1100 N.am      2 ALA2        0.0000 
     16 N         107.0500  -21.6300  116.8400 N.am      2 ALA2        0.0000 
     17 N         109.9200  -22.9200  115.7000 N.am      2 ALA2        0.0000 
     18 N         110.1900  -24.3600  116.0200 N.am      2 ALA2        0.0000 
     19 N         110.4600  -25.8000  116.3400 N.am      2 ALA2        0.0000 
     20 O         112.3000  -28.6000  116.2500 O.2       2 ALA2        0.0000 
     21 N         107.7400  -21.2200  118.1100 N.am      2 ALA2        0.0000 
     22 N         106.4300  -21.3000  118.8500 N.am      2 ALA2        0.0000 
     23 N         110.6100  -22.5000  116.9600 N.am      2 ALA2        0.0000 
     24 N         109.3100  -22.5800  117.7000 N.am      2 ALA2        0.0000 
     25 N         110.8800  -23.9400  117.2900 N.am      2 ALA2        0.0000 
     26 N         111.1500  -25.3800  117.6100 N.am      2 ALA2        0.0000 
     27 N         114.0200  -26.6700  116.4600 N.am      2 ALA2        0.0000 
     28 N         109.7300  -20.7300  118.6400 N.am      2 ALA2        0.0000 
     29 N         108.4300  -20.8100  119.3800 N.am      2 ALA2        0.0000 
     30 N         107.1200  -20.8800  120.1100 N.am      2 ALA2        0.0000 
     31 N         111.3000  -22.0900  118.2300 N.am      2 ALA2        0.0000 
     32 N         108.6900  -22.2500  119.7000 N.am      2 ALA2        0.0000 
     33 N         112.8800  -23.4600  117.8200 N.am      2 ALA2        0.0000 
     34 O         109.1200  -20.3900  120.6400 O.2       2 ALA2        0.0000 
     35 N         111.9900  -21.6800  119.4900 N.am      2 ALA2        0.0000 
     36 OD1       107.3900  -20.5300  114.5200 O.co2     3 ASP3        0.0000 
     37 OD1       108.3100  -16.0700  119.6700 O.co2     3 ASP3        0.0000 
     38 OD1       114.8700  -22.9700  118.3500 O.co2     3 ASP3        0.0000 
     39 NZ        109.6900  -15.2500  122.2000 N.4       4 LYS4        0.0000 
     40 CZ        111.5800  -21.7400  112.6300 C.ar      5 PHE5        0.0000 
     41 CZ        110.2700  -21.8100  113.3700 C.ar      5 PHE5        0.0000 
     42 CZ        108.9700  -21.8900  114.1100 C.ar      5 PHE5        0.0000 
     43 CZ        110.5400  -23.2500  113.6900 C.ar      5 PHE5        0.0000 
     44 CZ        109.2300  -23.3300  114.4300 C.ar      5 PHE5        0.0000 
     45 CZ        109.5000  -24.7700  114.7500 C.ar      5 PHE5        0.0000 
     46 CZ        109.7700  -26.2100  115.0800 C.ar      5 PHE5        0.0000 
     47 CZ        110.0400  -27.6500  115.4000 C.ar      5 PHE5        0.0000 
     48 CZ        109.1200  -18.6000  114.7200 C.ar      5 PHE5        0.0000 
     49 CZ        106.7800  -20.1900  116.5200 C.ar      5 PHE5        0.0000 
     50 CZ        112.2700  -21.3200  113.9000 C.ar      5 PHE5        0.0000 
     51 CZ        112.5300  -22.7600  114.2200 C.ar      5 PHE5        0.0000 
     52 CZ        111.2300  -22.8400  114.9600 C.ar      5 PHE5        0.0000 
     53 CZ        112.8000  -24.2000  114.5500 C.ar      5 PHE5        0.0000 
     54 CZ        111.5000  -24.2800  115.2800 C.ar      5 PHE5        0.0000 
     55 CZ        113.0700  -25.6400  114.8700 C.ar      5 PHE5        0.0000 
     56 CZ        111.7600  -25.7200  115.6100 C.ar      5 PHE5        0.0000 
     57 CZ        113.3300  -27.0800  115.1900 C.ar      5 PHE5        0.0000 
     58 CZ        112.0300  -27.1600  115.9300 C.ar      5 PHE5        0.0000 
     59 CZ        106.1600  -19.8600  118.5200 C.ar      5 PHE5        0.0000 
     60 CZ        106.8500  -19.4400  119.7900 C.ar      5 PHE5        0.0000 
     61 CZ        107.2800  -17.5900  120.7300 C.ar      5 PHE5        0.0000 
     62 CZ        108.8500  -18.9500  120.3200 C.ar      5 PHE5        0.0000 
     63 CZ        107.5400  -19.0300  121.0600 C.ar      5 PHE5        0.0000 
     64 CZ        109.2700  -17.1000  121.2600 C.ar      5 PHE5        0.0000 
     65 CZ        107.9700  -17.1800  122.0000 C.ar      5 PHE5        0.0000 
     66 CZ        109.5400  -18.5400  121.5900 C.ar      5 PHE5        0.0000 
     67 CA        111.3100  -20.3000  112.3100 C.3       6 GLY6        0.0000 
     68 CA        111.7300  -18.4400  113.2500 C.3       6 GLY6        0.0000 
     69 CA        112.0000  -19.8800  113.5800 C.3       6 GLY6        0.0000 
     70 CA        113.5700  -21.2500  113.1600 C.3       6 GLY6        0.0000 
     71 CA        110.7300  -27.2400  116.6700 C.3       6 GLY6        0.0000 
     72 CA        114.5300  -22.2700  114.7500 C.3       6 GLY6        0.0000 
     73 CA        114.7900  -23.7100  115.0800 C.3       6 GLY6        0.0000 
     74 CA        113.4900  -23.7900  115.8100 C.3       6 GLY6        0.0000 
     75 CA        113.7600  -25.2300  116.1400 C.3       6 GLY6        0.0000 
     76 CA        112.4500  -25.3100  116.8700 C.3       6 GLY6        0.0000 
     77 CA        112.7200  -26.7500  117.2000 C.3       6 GLY6        0.0000 
     78 CA        113.9100  -21.9400  116.7600 C.3       6 GLY6        0.0000 
     79 CA        114.1800  -23.3800  117.0800 C.3       6 GLY6        0.0000 
     80 CA        113.1400  -24.9000  118.1400 C.3       6 GLY6        0.0000 
     81 CA        110.4200  -20.3200  119.9100 C.3       6 GLY6        0.0000 
     82 CA        113.5700  -23.0400  119.0800 C.3       6 GLY6        0.0000 
     83 CA        107.7000  -15.7400  121.6700 C.3       6 GLY6        0.0000 
     84 CA        111.1100  -19.9000  121.1700 C.3       6 GLY6        0.0000 
     85 DU        110.9600  -21.4000  114.6400 H         7 CUB7        0.0000 
     86 DU        109.6600  -21.4800  115.3700 H         7 CUB7        0.0000 
     87 DU        111.3800  -19.5500  115.5800 H         7 CUB7        0.0000 
     88 DU        112.9600  -20.9100  115.1700 H         7 CUB7        0.0000 
     89 DU        110.3500  -21.0600  116.6400 H         7 CUB7        0.0000 
     90 DU        109.0400  -21.1400  117.3700 H         7 CUB7        0.0000 
     91 DU        113.2200  -22.3500  115.4900 H         7 CUB7        0.0000 
     92 DU        111.9200  -22.4300  116.2300 H         7 CUB7        0.0000 
     93 DU        112.1900  -23.8700  116.5500 H         7 CUB7        0.0000 
     94 DU        112.3400  -20.5800  117.1700 H         7 CUB7        0.0000 
     95 DU        111.0400  -20.6500  117.9000 H         7 CUB7        0.0000 
     96 DU        112.6100  -22.0200  117.4900 H         7 CUB7        0.0000 
     97 DU        110.1500  -18.8800  119.5800 H         7 CUB7        0.0000 
     98 DU        109.0000  -15.6600  120.9400 H         7 CUB7        0.0000 
@<TRIPOS>BOND
@<TRIPOS>SUBSTRUCTURE
     1 SER1        1 GROUP   
     2 ALA2       14 GROUP   
     3 ASP3       36 GROUP   
     4 LYS4       39 GROUP   
     5 PHE5       40 GROUP   
     6 GLY6       67 GROUP   
     7 CUB7       85 GROUP   
@<TRIPOS>SET

