#    Name: 6box_1_SAH
#    Modification time : Fri May 22 19:28:00 2020

@<TRIPOS>MOLECULE
6box_1_SAH
   45    47     1     0     0
SMALL
NO_CHARGES


@<TRIPOS>ATOM
      1 N         106.2640  -21.3350  119.5160 N.4       1 SAH505      0.0000 
      2 CA        107.6820  -21.3330  119.2840 C.3       1 SAH505      0.0000 
      3 CB        107.9760  -21.4380  117.8050 C.3       1 SAH505      0.0000 
      4 CG        106.7680  -21.0250  116.9130 C.3       1 SAH505      0.0000 
      5 SD        107.3720  -20.5860  115.2400 S.3       1 SAH505      0.0000 
      6 C         108.3090  -20.0120  119.8430 C.2       1 SAH505      0.0000 
      7 O         107.8580  -18.9030  119.4860 O.co2     1 SAH505      0.0000 
      8 OXT       109.2800  -20.0770  120.6620 O.co2     1 SAH505      0.0000 
      9 C5'       108.5270  -21.8530  114.5660 C.3       1 SAH505      0.0000 
     10 C4'       109.9840  -21.6720  115.1800 C.3       1 SAH505      0.0000 
     11 O4'       110.0780  -22.2940  116.3100 O.3       1 SAH505      0.0000 
     12 C3'       111.0590  -22.3170  114.2520 C.3       1 SAH505      0.0000 
     13 O3'       111.7360  -21.3530  113.5580 O.3       1 SAH505      0.0000 
     14 C2'       111.9990  -23.0340  115.1930 C.3       1 SAH505      0.0000 
     15 O2'       113.0800  -22.1080  115.6560 O.3       1 SAH505      0.0000 
     16 C1'       111.2440  -23.3960  116.2170 C.3       1 SAH505      0.0000 
     17 N9        110.6560  -24.7210  116.0150 N.pl3     1 SAH505      0.0000 
     18 C8        109.3700  -25.0120  115.8040 C.2       1 SAH505      0.0000 
     19 N7        109.2590  -26.3490  115.6750 N.2       1 SAH505      0.0000 
     20 C5        110.4830  -26.8860  115.8110 C.ar      1 SAH505      0.0000 
     21 C6        110.9210  -28.1740  115.7680 C.ar      1 SAH505      0.0000 
     22 N6        110.2740  -29.4960  115.5600 N.pl3     1 SAH505      0.0000 
     23 N1        112.2180  -28.4370  115.9380 N.ar      1 SAH505      0.0000 
     24 C2        113.0920  -27.4300  116.1530 C.ar      1 SAH505      0.0000 
     25 N3        112.6650  -26.1580  116.1960 N.ar      1 SAH505      0.0000 
     26 C4        111.3520  -25.8870  116.0250 C.ar      1 SAH505      0.0000 
     27 H2        113.9530  -27.7650  116.2520 H         1 SAH505      0.0000 
     28 HN1       105.9730  -22.1750  119.5640 H         1 SAH505      0.0000 
     29 HN2       106.0890  -20.9180  120.2830 H         1 SAH505      0.0000 
     30 HA        108.0800  -22.0890  119.7410 H         1 SAH505      0.0000 
     31 HB1       108.2130  -22.3560  117.6010 H         1 SAH505      0.0000 
     32 HB2       108.7290  -20.8660  117.5930 H         1 SAH505      0.0000 
     33 HG1       106.3200  -20.2600  117.3050 H         1 SAH505      0.0000 
     34 HG2       106.1470  -21.7670  116.8470 H         1 SAH505      0.0000 
     35 H5'1      108.5730  -21.7630  113.6020 H         1 SAH505      0.0000 
     36 H5'2      108.1940  -22.7370  114.7880 H         1 SAH505      0.0000 
     37 H4'       110.1790  -20.7300  115.3050 H         1 SAH505      0.0000 
     38 H3'       110.6470  -22.9510  113.6450 H         1 SAH505      0.0000 
     39 HO3'      112.5470  -21.3370  113.8110 H         1 SAH505      0.0000 
     40 H2'       112.3780  -23.8150  114.7600 H         1 SAH505      0.0000 
     41 HO2'      112.8730  -21.7940  116.4190 H         1 SAH505      0.0000 
     42 H1'       111.7700  -23.3850  117.0330 H         1 SAH505      0.0000 
     43 H8        108.6730  -24.3990  115.7500 H         1 SAH505      0.0000 
     44 HN61      109.4270  -29.5430  115.4160 H         1 SAH505      0.0000 
     45 HN62      110.7470  -30.2140  115.5830 H         1 SAH505      0.0000 
@<TRIPOS>BOND
     1    1    2 1    
     2    2    3 1    
     3    1   28 1    
     4    1   29 1    
     5    2    6 1    
     6    2   30 1    
     7    3    4 1    
     8    3   31 1    
     9    3   32 1    
    10    4    5 1    
    11    4   33 1    
    12    4   34 1    
    13    5    9 1    
    14    6    7 ar   
    15    6    8 ar   
    16    9   10 1    
    17    9   35 1    
    18    9   36 1    
    19   10   11 1    
    20   10   12 1    
    21   10   37 1    
    22   11   16 1    
    23   12   13 1    
    24   12   14 1    
    25   12   38 1    
    26   13   39 1    
    27   14   15 1    
    28   14   16 1    
    29   14   40 1    
    30   16   42 1    
    31   16   17 1    
    32   15   41 1    
    33   17   18 1    
    34   17   26 1    
    35   18   19 2    
    36   19   20 1    
    37   18   43 1    
    38   20   21 ar   
    39   20   26 ar   
    40   21   22 1    
    41   21   23 ar   
    42   23   24 ar   
    43   22   44 1    
    44   22   45 1    
    45   24   25 ar   
    46   25   26 ar   
    47   24   27 1    
@<TRIPOS>SUBSTRUCTURE
     1 SAH505      1 GROUP   
@<TRIPOS>SET

