#    Name: 6box_2_SAH_CAVITY_N1_6
#    Modification time : Fri May 22 19:28:07 2020

@<TRIPOS>MOLECULE
6box_2_SAH_CAVITY_N1_6
   91     0     6     0     0
SMALL
NO_CHARGES


@<TRIPOS>ATOM
      1 OG        117.2600  -34.9700   90.7500 O.3       1 SER1        0.0000 
      2 OG        116.2200  -36.4900   91.8100 O.3       1 SER1        0.0000 
      3 OG        116.3700  -33.2000   92.4300 O.3       1 SER1        0.0000 
      4 OG        116.6400  -34.6400   92.7500 O.3       1 SER1        0.0000 
      5 OG        115.6000  -36.1500   93.8100 O.3       1 SER1        0.0000 
      6 OG        114.3000  -36.2300   94.5500 O.3       1 SER1        0.0000 
      7 OG        119.7900  -37.3600   91.9300 O.3       1 SER1        0.0000 
      8 OG        118.4800  -37.4400   92.6700 O.3       1 SER1        0.0000 
      9 OG        115.8700  -37.5900   94.1400 O.3       1 SER1        0.0000 
     10 OG        121.3600  -38.7300   91.5200 O.3       1 SER1        0.0000 
     11 OG        120.0500  -38.8000   92.2500 O.3       1 SER1        0.0000 
     12 OG        118.7500  -38.8800   92.9900 O.3       1 SER1        0.0000 
     13 OG        120.3200  -40.2400   92.5800 O.3       1 SER1        0.0000 
     14 OG        119.0200  -40.3200   93.3100 O.3       1 SER1        0.0000 
     15 OG        120.7400  -38.3900   93.5200 O.3       1 SER1        0.0000 
     16 N         118.8300  -36.3300   90.3400 N.am      2 ALA2        0.0000 
     17 N         112.4600  -33.4300   94.6400 N.am      2 ALA2        0.0000 
     18 N         117.9500  -34.5600   92.0200 N.am      2 ALA2        0.0000 
     19 N         119.5200  -35.9200   91.6100 N.am      2 ALA2        0.0000 
     20 N         118.2100  -36.0000   92.3400 N.am      2 ALA2        0.0000 
     21 N         121.0900  -37.2900   91.1900 N.am      2 ALA2        0.0000 
     22 O         117.1800  -37.5200   93.4000 O.2       2 ALA2        0.0000 
     23 O         116.5300  -29.9000   93.0500 O.2       2 ALA2        0.0000 
     24 N         118.1000  -31.2700   92.6400 N.am      2 ALA2        0.0000 
     25 O         116.8000  -31.3400   93.3700 O.2       2 ALA2        0.0000 
     26 N         115.4900  -31.4200   94.1100 N.am      2 ALA2        0.0000 
     27 N         117.0600  -32.7800   93.7000 N.am      2 ALA2        0.0000 
     28 N         115.7600  -32.8600   94.4300 N.am      2 ALA2        0.0000 
     29 N         114.4500  -32.9400   95.1700 N.am      2 ALA2        0.0000 
     30 N         118.6400  -34.1500   93.2800 N.am      2 ALA2        0.0000 
     31 N         117.3300  -34.2200   94.0200 N.am      2 ALA2        0.0000 
     32 N         120.2100  -35.5100   92.8700 N.am      2 ALA2        0.0000 
     33 N         118.9000  -35.5900   93.6100 N.am      2 ALA2        0.0000 
     34 O         121.7800  -36.8700   92.4600 O.2       2 ALA2        0.0000 
     35 N         120.4800  -36.9500   93.2000 N.am      2 ALA2        0.0000 
     36 O         117.8700  -37.1000   94.6700 O.2       2 ALA2        0.0000 
     37 O         119.4400  -38.4700   94.2600 O.2       2 ALA2        0.0000 
     38 O         118.1300  -38.5400   94.9900 O.2       2 ALA2        0.0000 
     39 N         115.9100  -29.5700   95.0500 N.am      2 ALA2        0.0000 
     40 N         116.1800  -31.0100   95.3800 N.am      2 ALA2        0.0000 
     41 N         119.0600  -32.2900   94.2300 N.am      2 ALA2        0.0000 
     42 N         118.0200  -33.8100   95.2900 N.am      2 ALA2        0.0000 
     43 N         119.5900  -35.1700   94.8700 N.am      2 ALA2        0.0000 
     44 N         121.1700  -36.5400   94.4600 N.am      2 ALA2        0.0000 
     45 N         119.8600  -36.6100   95.2000 N.am      2 ALA2        0.0000 
     46 O         116.6000  -29.1500   96.3200 O.2       2 ALA2        0.0000 
     47 N         116.8700  -30.5900   96.6400 N.am      2 ALA2        0.0000 
     48 N         115.5700  -30.6700   97.3800 N.am      2 ALA2        0.0000 
     49 N         120.2800  -34.7600   96.1400 N.am      2 ALA2        0.0000 
     50 N         117.5600  -30.1800   97.9100 N.am      2 ALA2        0.0000 
     51 N         117.8300  -31.6200   98.2300 N.am      2 ALA2        0.0000 
     52 OD1       121.6200  -40.1700   91.8400 O.co2     3 ASP3        0.0000 
     53 OD1       116.2900  -35.7400   95.0800 O.co2     3 ASP3        0.0000 
     54 OD1       114.9900  -35.8200   95.8200 O.co2     3 ASP3        0.0000 
     55 OD1       116.9800  -35.3300   96.3500 O.co2     3 ASP3        0.0000 
     56 OD1       117.2500  -36.7700   96.6700 O.co2     3 ASP3        0.0000 
     57 OD1       117.6700  -34.9100   97.6100 O.co2     3 ASP3        0.0000 
     58 CZ        117.5200  -36.4100   91.0800 C.ar      4 PHE5        0.0000 
     59 CZ        116.4900  -37.9300   92.1400 C.ar      4 PHE5        0.0000 
     60 CZ        115.3400  -34.7100   93.4900 C.ar      4 PHE5        0.0000 
     61 CZ        114.0300  -34.7900   94.2300 C.ar      4 PHE5        0.0000 
     62 CZ        122.0500  -38.3100   92.7800 C.ar      4 PHE5        0.0000 
     63 CZ        122.3200  -39.7500   93.1100 C.ar      4 PHE5        0.0000 
     64 CZ        123.0100  -39.3400   94.3700 C.ar      4 PHE5        0.0000 
     65 CA        112.7300  -34.8700   94.9600 C.3       5 GLY6        0.0000 
     66 CA        116.0300  -34.3000   94.7600 C.3       5 GLY6        0.0000 
     67 CA        114.7200  -34.3800   95.4900 C.3       5 GLY6        0.0000 
     68 CA        116.5600  -37.1800   95.4000 C.3       5 GLY6        0.0000 
     69 CA        115.2600  -37.2600   96.1400 C.3       5 GLY6        0.0000 
     70 CA        119.9700  -41.3500   94.9000 C.3       5 GLY6        0.0000 
     71 CA        117.2200  -29.4900   94.3200 C.3       5 GLY6        0.0000 
     72 CA        118.7900  -30.8500   93.9000 C.3       5 GLY6        0.0000 
     73 CA        117.4900  -30.9300   94.6400 C.3       5 GLY6        0.0000 
     74 CA        116.4500  -32.4500   95.7000 C.3       5 GLY6        0.0000 
     75 CA        116.7200  -33.8900   96.0200 C.3       5 GLY6        0.0000 
     76 CA        122.7400  -37.9000   94.0500 C.3       5 GLY6        0.0000 
     77 CA        117.9100  -29.0800   95.5800 C.3       5 GLY6        0.0000 
     78 CA        118.1800  -30.5200   95.9100 C.3       5 GLY6        0.0000 
     79 CA        118.4400  -31.9600   96.2300 C.3       5 GLY6        0.0000 
     80 CA        117.1400  -32.0300   96.9700 C.3       5 GLY6        0.0000 
     81 CA        123.4300  -37.4900   95.3200 C.3       5 GLY6        0.0000 
     82 CA        118.8700  -30.1100   97.1700 C.3       5 GLY6        0.0000 
     83 DU        116.9100  -36.0800   93.0800 H         6 CUB7        0.0000 
     84 DU        117.6000  -35.6600   94.3400 H         6 CUB7        0.0000 
     85 DU        119.1700  -37.0300   93.9300 H         6 CUB7        0.0000 
     86 DU        121.0100  -39.8300   93.8400 H         6 CUB7        0.0000 
     87 DU        121.2800  -41.2700   94.1700 H         6 CUB7        0.0000 
     88 DU        117.7500  -32.3700   94.9600 H         6 CUB7        0.0000 
     89 DU        118.2900  -35.2500   95.6100 H         6 CUB7        0.0000 
     90 DU        118.5600  -36.6900   95.9300 H         6 CUB7        0.0000 
     91 DU        121.4300  -37.9800   94.7900 H         6 CUB7        0.0000 
@<TRIPOS>BOND
@<TRIPOS>SUBSTRUCTURE
     1 SER1        1 GROUP   
     2 ALA2       16 GROUP   
     3 ASP3       52 GROUP   
     4 PHE5       58 GROUP   
     5 GLY6       65 GROUP   
     6 CUB7       83 GROUP   
@<TRIPOS>SET

