#    Name: 6mxb_4_XMP_CAVITY_N1_4
#    Modification time : Fri May 22 19:29:49 2020

@<TRIPOS>MOLECULE
6mxb_4_XMP_CAVITY_N1_4
   67     0     7     0     0
SMALL
NO_CHARGES


@<TRIPOS>ATOM
      1 OG         -5.2500  -26.0000  -96.4600 O.3       1 SER1        0.0000 
      2 OG         -8.8700  -28.1600  -92.7500 O.3       1 SER1        0.0000 
      3 OG         -2.8400  -22.3500  -90.1800 O.3       1 SER1        0.0000 
      4 OG         -2.7800  -23.7800  -89.7400 O.3       1 SER1        0.0000 
      5 O          -6.7300  -24.4800  -96.4200 O.2       2 ALA2        0.0000 
      6 N          -7.6500  -23.9500  -94.5800 N.am      2 ALA2        0.0000 
      7 OD1        -1.1400  -20.5500  -94.7500 O.co2     3 ASP3        0.0000 
      8 OD1        -3.4700  -19.9400  -92.4200 O.co2     3 ASP3        0.0000 
      9 OD1        -2.0600  -20.0200  -92.9100 O.co2     3 ASP3        0.0000 
     10 OD1        -0.6500  -20.1100  -93.4100 O.co2     3 ASP3        0.0000 
     11 NZ         -8.9300  -26.7200  -93.2000 N.4       4 LYS4        0.0000 
     12 NZ         -9.8500  -26.1900  -91.3600 N.4       4 LYS4        0.0000 
     13 NZ         -8.5100  -24.8500  -92.3000 N.4       4 LYS4        0.0000 
     14 NZ         -8.4400  -26.2800  -91.8500 N.4       4 LYS4        0.0000 
     15 NZ         -7.0900  -24.9400  -92.7900 N.4       4 LYS4        0.0000 
     16 NZ         -8.0100  -24.4100  -90.9500 N.4       4 LYS4        0.0000 
     17 NZ         -7.9400  -25.8400  -90.5100 N.4       4 LYS4        0.0000 
     18 NZ         -6.6000  -24.5000  -91.4400 N.4       4 LYS4        0.0000 
     19 NZ         -2.4900  -21.9000  -93.8100 N.4       4 LYS4        0.0000 
     20 NZ         -6.1700  -22.6200  -90.5400 N.4       4 LYS4        0.0000 
     21 NZ         -6.1000  -24.0500  -90.1000 N.4       4 LYS4        0.0000 
     22 NZ         -4.1900  -23.7000  -89.2500 N.4       4 LYS4        0.0000 
     23 CZ         -1.9900  -21.4500  -92.4700 C.ar      5 PHE5        0.0000 
     24 CZ         -1.9300  -22.8800  -92.0200 C.ar      5 PHE5        0.0000 
     25 CZ         -0.5800  -21.5400  -92.9600 C.ar      5 PHE5        0.0000 
     26 CZ         -4.3300  -20.8400  -90.1400 C.ar      5 PHE5        0.0000 
     27 CZ         -2.9100  -20.9200  -90.6300 C.ar      5 PHE5        0.0000 
     28 CZ         -1.5600  -19.5800  -91.5700 C.ar      5 PHE5        0.0000 
     29 CA         -6.6700  -25.9100  -95.9700 C.3       6 GLY6        0.0000 
     30 CA         -6.6000  -27.3400  -95.5200 C.3       6 GLY6        0.0000 
     31 CA         -5.3200  -24.5700  -96.9100 C.3       6 GLY6        0.0000 
     32 CA         -3.9100  -24.6500  -97.4000 C.3       6 GLY6        0.0000 
     33 CA        -10.2800  -28.0700  -92.2600 C.3       6 GLY6        0.0000 
     34 CA         -7.5900  -25.3800  -94.1300 C.3       6 GLY6        0.0000 
     35 CA         -7.5200  -26.8100  -93.6900 C.3       6 GLY6        0.0000 
     36 CA         -6.3100  -22.6100  -95.5200 C.3       6 GLY6        0.0000 
     37 CA         -6.2400  -24.0400  -95.0700 C.3       6 GLY6        0.0000 
     38 CA         -6.1100  -26.9000  -94.1800 C.3       6 GLY6        0.0000 
     39 CA         -4.8300  -24.1200  -95.5600 C.3       6 GLY6        0.0000 
     40 CA         -9.7900  -27.6300  -90.9100 C.3       6 GLY6        0.0000 
     41 CA         -7.1600  -23.5100  -93.2300 C.3       6 GLY6        0.0000 
     42 CA         -5.8100  -22.1600  -94.1700 C.3       6 GLY6        0.0000 
     43 CA         -5.7400  -23.6000  -93.7300 C.3       6 GLY6        0.0000 
     44 CA         -4.4000  -22.2500  -94.6600 C.3       6 GLY6        0.0000 
     45 CA         -4.3300  -23.6800  -94.2200 C.3       6 GLY6        0.0000 
     46 CA         -6.6600  -23.0700  -91.8900 C.3       6 GLY6        0.0000 
     47 CA         -5.2500  -23.1500  -92.3800 C.3       6 GLY6        0.0000 
     48 CA         -3.9700  -20.3800  -93.7700 C.3       6 GLY6        0.0000 
     49 CA         -3.9000  -21.8100  -93.3200 C.3       6 GLY6        0.0000 
     50 CA         -4.8900  -19.8500  -91.9300 C.3       6 GLY6        0.0000 
     51 CA         -4.8200  -21.2800  -91.4800 C.3       6 GLY6        0.0000 
     52 CA         -4.7500  -22.7100  -91.0400 C.3       6 GLY6        0.0000 
     53 CA         -4.3900  -19.4100  -90.5800 C.3       6 GLY6        0.0000 
     54 CA         -2.9800  -19.4900  -91.0800 C.3       6 GLY6        0.0000 
     55 DU         -6.1700  -25.4700  -94.6300 H         7 CUB7        0.0000 
     56 DU         -4.7600  -25.5600  -95.1200 H         7 CUB7        0.0000 
     57 DU         -8.3700  -27.7100  -91.4000 H         7 CUB7        0.0000 
     58 DU         -7.0200  -26.3700  -92.3400 H         7 CUB7        0.0000 
     59 DU         -5.6800  -25.0300  -93.2800 H         7 CUB7        0.0000 
     60 DU         -6.5300  -25.9300  -91.0000 H         7 CUB7        0.0000 
     61 DU         -5.1800  -24.5800  -91.9400 H         7 CUB7        0.0000 
     62 DU         -3.8300  -23.2400  -92.8700 H         7 CUB7        0.0000 
     63 DU         -6.0300  -25.4800  -89.6500 H         7 CUB7        0.0000 
     64 DU         -4.6900  -24.1400  -90.5900 H         7 CUB7        0.0000 
     65 DU         -3.4100  -21.3700  -91.9800 H         7 CUB7        0.0000 
     66 DU         -3.3400  -22.8000  -91.5300 H         7 CUB7        0.0000 
     67 DU         -4.2600  -22.2700  -89.6900 H         7 CUB7        0.0000 
@<TRIPOS>BOND
@<TRIPOS>SUBSTRUCTURE
     1 SER1        1 GROUP   
     2 ALA2        5 GROUP   
     3 ASP3        7 GROUP   
     4 LYS4       11 GROUP   
     5 PHE5       23 GROUP   
     6 GLY6       29 GROUP   
     7 CUB7       55 GROUP   
@<TRIPOS>SET

