#    Name: 6mxb_4_XMP
#    Modification time : Fri May 22 19:29:47 2020

@<TRIPOS>MOLECULE
6mxb_4_XMP
   24    26     1     0     0
SMALL
NO_CHARGES


@<TRIPOS>ATOM
      1 P          -6.4130  -25.2530  -97.5230 P.3       1 XMP301      0.0000 
      2 O1P        -7.4740  -24.2260  -97.8890 O.co2     1 XMP301      0.0000 
      3 O2P        -5.0230  -24.6550  -97.6800 O.co2     1 XMP301      0.0000 
      4 O5'        -6.6360  -25.7450  -95.9250 O.3       1 XMP301      0.0000 
      5 O3P        -6.5490  -26.4580  -98.4340 O.co2     1 XMP301      0.0000 
      6 C5'        -7.1030  -24.7980  -94.9680 C.3       1 XMP301      0.0000 
      7 C4'        -6.4290  -25.1060  -93.6590 C.3       1 XMP301      0.0000 
      8 O4'        -5.2020  -24.7460  -93.7190 O.3       1 XMP301      0.0000 
      9 C1'        -4.8780  -24.0750  -92.4030 C.3       1 XMP301      0.0000 
     10 N9         -4.2880  -22.8880  -92.6340 N.pl3     1 XMP301      0.0000 
     11 C4         -3.8740  -22.0160  -91.7010 C.2       1 XMP301      0.0000 
     12 N3         -3.9150  -22.0240  -90.2290 N.am      1 XMP301      0.0000 
     13 N1         -2.7980  -19.7790  -90.1930 N.am      1 XMP301      0.0000 
     14 C2         -3.3760  -20.9000  -89.3890 C.2       1 XMP301      0.0000 
     15 O2         -3.4070  -20.9030  -88.2060 O.2       1 XMP301      0.0000 
     16 C6         -2.7750  -19.8040  -91.6310 C.2       1 XMP301      0.0000 
     17 O6         -2.3070  -18.8950  -92.2200 O.2       1 XMP301      0.0000 
     18 C5         -3.3330  -20.9630  -92.3770 C.2       1 XMP301      0.0000 
     19 N7         -3.4320  -21.2280  -93.6910 N.2       1 XMP301      0.0000 
     20 C8         -4.0110  -22.3980  -93.8250 C.2       1 XMP301      0.0000 
     21 C2'        -6.2700  -23.9110  -91.6360 C.3       1 XMP301      0.0000 
     22 O2'        -6.3110  -24.8090  -90.4210 O.3       1 XMP301      0.0000 
     23 C3'        -7.1520  -24.2340  -92.4310 C.3       1 XMP301      0.0000 
     24 O3'        -8.1870  -25.0690  -91.7490 O.3       1 XMP301      0.0000 
@<TRIPOS>BOND
     1    1    2 ar   
     2    1    3 ar   
     3    1    4 1    
     4    1    5 ar   
     5    4    6 1    
     6    6    7 1    
     7    7    8 1    
     8    7   23 1    
     9    8    9 1    
    10    9   10 1    
    11    9   21 1    
    12   10   11 1    
    13   10   20 1    
    14   11   12 1    
    15   11   18 2    
    16   12   14 1    
    17   13   14 1    
    18   13   16 1    
    19   14   15 2    
    20   16   17 2    
    21   16   18 1    
    22   18   19 1    
    23   19   20 2    
    24   21   22 1    
    25   21   23 1    
    26   23   24 1    
@<TRIPOS>SUBSTRUCTURE
     1 XMP301      1 GROUP   
@<TRIPOS>SET

