#    Name: 6mxb_3_XMP_CAVITY_N1_8
#    Modification time : Fri May 22 19:29:42 2020

@<TRIPOS>MOLECULE
6mxb_3_XMP_CAVITY_N1_8
   99     0     7     0     0
SMALL
NO_CHARGES


@<TRIPOS>ATOM
      1 OG        -31.0200  -31.0800  -73.5900 O.3       1 SER1        0.0000 
      2 OG        -30.5900  -29.2100  -72.6900 O.3       1 SER1        0.0000 
      3 OG        -26.0800  -35.1900  -72.3900 O.3       1 SER1        0.0000 
      4 OG        -27.0000  -34.6600  -70.5500 O.3       1 SER1        0.0000 
      5 OG        -25.5800  -34.7500  -71.0400 O.3       1 SER1        0.0000 
      6 OG        -27.9200  -34.1300  -68.7100 O.3       1 SER1        0.0000 
      7 OG        -26.5000  -34.2200  -69.2000 O.3       1 SER1        0.0000 
      8 OG        -28.7700  -35.0300  -66.4300 O.3       1 SER1        0.0000 
      9 OG        -27.3600  -35.1200  -66.9200 O.3       1 SER1        0.0000 
     10 N         -24.8000  -35.2700  -77.8500 N.am      2 ALA2        0.0000 
     11 O         -25.8600  -31.8700  -76.9100 O.2       2 ALA2        0.0000 
     12 N         -25.7200  -34.7400  -76.0100 N.am      2 ALA2        0.0000 
     13 O         -24.4400  -31.9600  -77.4000 O.2       2 ALA2        0.0000 
     14 N         -24.3800  -33.3900  -76.9500 N.am      2 ALA2        0.0000 
     15 N         -24.3100  -34.8200  -76.5100 N.am      2 ALA2        0.0000 
     16 O         -25.4300  -30.0000  -76.0100 O.2       2 ALA2        0.0000 
     17 O         -25.3600  -31.4300  -75.5600 O.2       2 ALA2        0.0000 
     18 O         -23.9500  -31.5200  -76.0500 O.2       2 ALA2        0.0000 
     19 N         -23.8800  -32.9500  -75.6100 N.am      2 ALA2        0.0000 
     20 N         -23.4500  -31.0800  -74.7100 N.am      2 ALA2        0.0000 
     21 N         -23.3900  -32.5100  -74.2600 N.am      2 ALA2        0.0000 
     22 N         -31.5800  -27.2500  -71.3000 N.am      2 ALA2        0.0000 
     23 N         -26.1400  -30.9200  -68.7500 N.am      2 ALA2        0.0000 
     24 N         -26.0800  -32.3500  -68.3100 N.am      2 ALA2        0.0000 
     25 N         -24.6600  -32.4400  -68.8000 N.am      2 ALA2        0.0000 
     26 OD1       -25.9200  -30.4400  -77.3500 O.co2     3 ASP3        0.0000 
     27 OD1       -32.4300  -28.1500  -69.0200 O.co2     3 ASP3        0.0000 
     28 OD1       -32.3600  -29.5800  -68.5700 O.co2     3 ASP3        0.0000 
     29 OD1       -31.0200  -28.2400  -69.5100 O.co2     3 ASP3        0.0000 
     30 OD1       -30.9500  -29.6700  -69.0700 O.co2     3 ASP3        0.0000 
     31 OD1       -30.4500  -29.2300  -67.7200 O.co2     3 ASP3        0.0000 
     32 NZ        -27.8300  -30.8000  -78.2100 N.4       4 LYS4        0.0000 
     33 NZ        -27.7700  -32.2300  -77.7600 N.4       4 LYS4        0.0000 
     34 NZ        -27.3400  -30.3600  -76.8600 N.4       4 LYS4        0.0000 
     35 NZ        -27.2700  -31.7900  -76.4100 N.4       4 LYS4        0.0000 
     36 NZ        -26.8400  -29.9100  -75.5200 N.4       4 LYS4        0.0000 
     37 NZ        -27.7600  -29.3800  -73.6800 N.4       4 LYS4        0.0000 
     38 NZ        -26.2800  -30.9000  -73.7200 N.4       4 LYS4        0.0000 
     39 NZ        -24.9300  -29.5600  -74.6600 N.4       4 LYS4        0.0000 
     40 NZ        -24.8700  -30.9900  -74.2200 N.4       4 LYS4        0.0000 
     41 NZ        -27.2700  -28.9400  -72.3300 N.4       4 LYS4        0.0000 
     42 NZ        -25.7900  -30.4600  -72.3800 N.4       4 LYS4        0.0000 
     43 NZ        -24.3700  -30.5500  -72.8700 N.4       4 LYS4        0.0000 
     44 NZ        -24.3000  -31.9800  -72.4300 N.4       4 LYS4        0.0000 
     45 NZ        -30.8800  -31.1000  -68.6200 N.4       4 LYS4        0.0000 
     46 NZ        -30.8100  -32.5300  -68.1700 N.4       4 LYS4        0.0000 
     47 NZ        -25.2200  -31.4500  -70.5900 N.4       4 LYS4        0.0000 
     48 NZ        -23.7400  -32.9600  -70.6300 N.4       4 LYS4        0.0000 
     49 CZ        -30.5200  -30.6400  -72.2500 C.ar      5 PHE5        0.0000 
     50 CZ        -31.5100  -28.6800  -70.8600 C.ar      5 PHE5        0.0000 
     51 CZ        -31.4400  -30.1100  -70.4100 C.ar      5 PHE5        0.0000 
     52 CZ        -30.1600  -27.3400  -71.8000 C.ar      5 PHE5        0.0000 
     53 CZ        -28.7500  -27.4200  -72.2900 C.ar      5 PHE5        0.0000 
     54 CZ        -29.6700  -26.8900  -70.4500 C.ar      5 PHE5        0.0000 
     55 CA        -25.2300  -34.2900  -74.6700 C.3       6 GLY6        0.0000 
     56 CA        -25.1600  -35.7200  -74.2200 C.3       6 GLY6        0.0000 
     57 CA        -23.8100  -34.3800  -75.1600 C.3       6 GLY6        0.0000 
     58 CA        -24.7300  -33.8500  -73.3200 C.3       6 GLY6        0.0000 
     59 CA        -24.6700  -35.2800  -72.8800 C.3       6 GLY6        0.0000 
     60 CA        -30.1000  -28.7700  -71.3500 C.3       6 GLY6        0.0000 
     61 CA        -28.6800  -28.8500  -71.8400 C.3       6 GLY6        0.0000 
     62 CA        -28.6100  -30.2900  -71.4000 C.3       6 GLY6        0.0000 
     63 CA        -24.2400  -33.4100  -71.9800 C.3       6 GLY6        0.0000 
     64 CA        -22.8900  -32.0600  -72.9200 C.3       6 GLY6        0.0000 
     65 CA        -22.8200  -33.4900  -72.4700 C.3       6 GLY6        0.0000 
     66 CA        -31.0800  -26.8100  -69.9600 C.3       6 GLY6        0.0000 
     67 CA        -29.6000  -28.3200  -70.0000 C.3       6 GLY6        0.0000 
     68 CA        -29.5300  -29.7600  -69.5600 C.3       6 GLY6        0.0000 
     69 CA        -29.4700  -31.1900  -69.1100 C.3       6 GLY6        0.0000 
     70 CA        -29.4000  -32.6200  -68.6700 C.3       6 GLY6        0.0000 
     71 CA        -28.0500  -31.2700  -69.6000 C.3       6 GLY6        0.0000 
     72 CA        -26.7100  -29.9300  -70.5400 C.3       6 GLY6        0.0000 
     73 CA        -26.6400  -31.3600  -70.1000 C.3       6 GLY6        0.0000 
     74 CA        -25.1600  -32.8800  -70.1400 C.3       6 GLY6        0.0000 
     75 CA        -25.0900  -34.3100  -69.7000 C.3       6 GLY6        0.0000 
     76 CA        -28.9700  -30.7400  -67.7700 C.3       6 GLY6        0.0000 
     77 CA        -28.8400  -33.6000  -66.8700 C.3       6 GLY6        0.0000 
     78 CA        -27.5600  -30.8300  -68.2600 C.3       6 GLY6        0.0000 
     79 CA        -27.4900  -32.2600  -67.8100 C.3       6 GLY6        0.0000 
     80 CA        -27.4200  -33.6900  -67.3700 C.3       6 GLY6        0.0000 
     81 CA        -26.0100  -33.7800  -67.8600 C.3       6 GLY6        0.0000 
     82 DU        -26.3500  -32.3200  -78.2500 H         7 CUB7        0.0000 
     83 DU        -25.7900  -33.3100  -76.4600 H         7 CUB7        0.0000 
     84 DU        -26.7800  -31.3400  -75.0700 H         7 CUB7        0.0000 
     85 DU        -26.6400  -34.2100  -74.1800 H         7 CUB7        0.0000 
     86 DU        -25.2900  -32.8600  -75.1100 H         7 CUB7        0.0000 
     87 DU        -29.1100  -30.7300  -72.7400 H         7 CUB7        0.0000 
     88 DU        -27.7000  -30.8200  -73.2300 H         7 CUB7        0.0000 
     89 DU        -26.1500  -33.7600  -72.8300 H         7 CUB7        0.0000 
     90 DU        -24.8000  -32.4200  -73.7700 H         7 CUB7        0.0000 
     91 DU        -30.0300  -30.2000  -70.9000 H         7 CUB7        0.0000 
     92 DU        -29.9600  -31.6300  -70.4600 H         7 CUB7        0.0000 
     93 DU        -28.5500  -31.7200  -70.9500 H         7 CUB7        0.0000 
     94 DU        -27.1300  -31.8000  -71.4400 H         7 CUB7        0.0000 
     95 DU        -27.0700  -33.2300  -70.9900 H         7 CUB7        0.0000 
     96 DU        -25.7200  -31.8900  -71.9300 H         7 CUB7        0.0000 
     97 DU        -25.6500  -33.3200  -71.4900 H         7 CUB7        0.0000 
     98 DU        -27.9900  -32.7000  -69.1600 H         7 CUB7        0.0000 
     99 DU        -26.5700  -32.7900  -69.6500 H         7 CUB7        0.0000 
@<TRIPOS>BOND
@<TRIPOS>SUBSTRUCTURE
     1 SER1        1 GROUP   
     2 ALA2       10 GROUP   
     3 ASP3       26 GROUP   
     4 LYS4       32 GROUP   
     5 PHE5       49 GROUP   
     6 GLY6       55 GROUP   
     7 CUB7       82 GROUP   
@<TRIPOS>SET

