#    Name: 6mxb_3_XMP
#    Modification time : Fri May 22 19:29:40 2020

@<TRIPOS>MOLECULE
6mxb_3_XMP
   24    26     1     0     0
SMALL
NO_CHARGES


@<TRIPOS>ATOM
      1 P         -27.4030  -34.2270  -66.4930 P.3       1 XMP301      0.0000 
      2 O1P       -28.7140  -34.1860  -65.7240 O.co2     1 XMP301      0.0000 
      3 O2P       -26.3980  -33.2940  -65.8410 O.co2     1 XMP301      0.0000 
      4 O5'       -27.7000  -33.7520  -68.0850 O.3       1 XMP301      0.0000 
      5 O3P       -26.8480  -35.6430  -66.4850 O.co2     1 XMP301      0.0000 
      6 C5'       -26.9070  -32.7070  -68.6440 C.3       1 XMP301      0.0000 
      7 C4'       -27.1410  -32.6890  -70.1320 C.3       1 XMP301      0.0000 
      8 O4'       -28.4000  -32.6150  -70.3680 O.3       1 XMP301      0.0000 
      9 C1'       -28.6570  -31.3020  -71.0740 C.3       1 XMP301      0.0000 
     10 N9        -29.4270  -30.4890  -70.3280 N.pl3     1 XMP301      0.0000 
     11 C4        -30.0780  -29.4090  -70.7860 C.2       1 XMP301      0.0000 
     12 N3        -30.1730  -28.7920  -72.1180 N.am      1 XMP301      0.0000 
     13 N1        -31.6770  -27.0200  -71.1730 N.am      1 XMP301      0.0000 
     14 C2        -30.9840  -27.5560  -72.3870 C.2       1 XMP301      0.0000 
     15 O2        -31.0650  -27.0550  -73.4550 O.2       1 XMP301      0.0000 
     16 C6        -31.5600  -27.6500  -69.8860 C.2       1 XMP301      0.0000 
     17 O6        -32.1250  -27.1900  -68.9560 O.2       1 XMP301      0.0000 
     18 C5        -30.7330  -28.8740  -69.7190 C.2       1 XMP301      0.0000 
     19 N7        -30.4630  -29.6410  -68.6490 N.2       1 XMP301      0.0000 
     20 C8        -29.6720  -30.6130  -69.0400 C.2       1 XMP301      0.0000 
     21 C2'       -27.2300  -30.6380  -71.3310 C.3       1 XMP301      0.0000 
     22 O2'       -26.9690  -30.5140  -72.8160 O.3       1 XMP301      0.0000 
     23 C3'       -26.3810  -31.3590  -70.8050 C.3       1 XMP301      0.0000 
     24 O3'       -25.3880  -31.8110  -71.8260 O.3       1 XMP301      0.0000 
@<TRIPOS>BOND
     1    1    2 ar   
     2    1    3 ar   
     3    1    4 1    
     4    1    5 ar   
     5    4    6 1    
     6    6    7 1    
     7    7    8 1    
     8    7   23 1    
     9    8    9 1    
    10    9   10 1    
    11    9   21 1    
    12   10   11 1    
    13   10   20 1    
    14   11   12 1    
    15   11   18 2    
    16   12   14 1    
    17   13   14 1    
    18   13   16 1    
    19   14   15 2    
    20   16   17 2    
    21   16   18 1    
    22   18   19 1    
    23   19   20 2    
    24   21   22 1    
    25   21   23 1    
    26   23   24 1    
@<TRIPOS>SUBSTRUCTURE
     1 XMP301      1 GROUP   
@<TRIPOS>SET

