#    Name: 5kiw_1_ANP
#    Modification time : Fri May 22 19:12:54 2020

@<TRIPOS>MOLECULE
5kiw_1_ANP
   31    33     1     0     1
SMALL
NO_CHARGES


@<TRIPOS>ATOM
      1 PG         13.0460   27.1490   84.0270 P.3       1 ANP800      0.0000 
      2 O1G        13.8260   26.0810   83.2920 O.co2     1 ANP800      0.0000 
      3 O2G        11.6370   27.4060   83.5410 O.co2     1 ANP800      0.0000 
      4 O3G        13.0810   27.0940   85.5370 O.co2     1 ANP800      0.0000 
      5 PB         13.1240   30.0830   83.7160 P.3       1 ANP800      0.0000 
      6 O1B        12.7020   30.2880   82.2830 O.co2     1 ANP800      0.0000 
      7 O2B        12.0680   30.0040   84.7860 O.co2     1 ANP800      0.0000 
      8 N3B        13.9820   28.5800   83.7110 N.3       1 ANP800      0.0000 
      9 PA         15.1750   31.3530   85.1530 P.3       1 ANP800      0.0000 
     10 O1A        15.3120   29.9540   85.7150 O.co2     1 ANP800      0.0000 
     11 O2A        14.8470   32.4960   86.0820 O.co2     1 ANP800      0.0000 
     12 O3A        14.0530   31.3550   84.0180 O.3       1 ANP800      0.0000 
     13 O5'        16.4720   31.7510   84.2890 O.3       1 ANP800      0.0000 
     14 C5'        17.7850   31.3110   84.6280 C.3       1 ANP800      0.0000 
     15 C4'        18.8360   32.4370   84.6580 C.3       1 ANP800      0.0000 
     16 O4'        19.3030   32.8210   83.3530 O.3       1 ANP800      0.0000 
     17 C3'        18.4190   33.7540   85.3200 C.3       1 ANP800      0.0000 
     18 O3'        18.5590   33.8040   86.7380 O.3       1 ANP800      0.0000 
     19 C2'        19.4060   34.7010   84.7020 C.3       1 ANP800      0.0000 
     20 O2'        20.6810   34.4770   85.3030 O.3       1 ANP800      0.0000 
     21 C1'        19.3770   34.2610   83.2500 C.3       1 ANP800      0.0000 
     22 N9         18.1550   34.8990   82.6750 N.pl3     1 ANP800      0.0000 
     23 C8         17.0150   34.2670   82.3280 C.2       1 ANP800      0.0000 
     24 N7         16.0890   35.1380   81.8780 N.2       1 ANP800      0.0000 
     25 C5         16.6310   36.3380   81.9560 C.ar      1 ANP800      0.0000 
     26 C6         16.1690   37.6700   81.6450 C.ar      1 ANP800      0.0000 
     27 N6         14.9270   37.8290   81.1590 N.pl3     1 ANP800      0.0000 
     28 N1         17.0020   38.6940   81.8630 N.ar      1 ANP800      0.0000 
     29 C2         18.2390   38.5060   82.3430 C.ar      1 ANP800      0.0000 
     30 N3         18.7230   37.2940   82.6420 N.ar      1 ANP800      0.0000 
     31 C4         17.9760   36.1960   82.4740 C.ar      1 ANP800      0.0000 
@<TRIPOS>BOND
     1    1    2 ar   
     2    1    3 ar   
     3    1    4 ar   
     4    1    8 1    
     5    5    6 ar   
     6    5    7 ar   
     7    5    8 1    
     8    5   12 1    
     9    9   10 ar   
    10    9   11 ar   
    11    9   12 1    
    12    9   13 1    
    13   13   14 1    
    14   14   15 1    
    15   15   16 1    
    16   15   17 1    
    17   16   21 1    
    18   17   18 1    
    19   17   19 1    
    20   19   20 1    
    21   19   21 1    
    22   21   22 1    
    23   22   23 1    
    24   22   31 1    
    25   23   24 2    
    26   24   25 1    
    27   25   26 ar   
    28   25   31 ar   
    29   26   27 1    
    30   26   28 ar   
    31   28   29 ar   
    32   29   30 ar   
    33   30   31 ar   
@<TRIPOS>SUBSTRUCTURE
     1 ANP800      1 GROUP   
@<TRIPOS>SET
ATOM$ORANGE STATIC     ATOMS   COLORGROUP SYSTEM 
20 14 14 15 15 17 17 19 19 21 21 23 23 25 25 26 26 29 \
29 31 31 

