#    Name: 5kiw_1_ANP_CAVITY_N1_4
#    Modification time : Fri May 22 19:12:56 2020

@<TRIPOS>MOLECULE
5kiw_1_ANP_CAVITY_N1_4
   47     0     5     0     0
SMALL
NO_CHARGES


@<TRIPOS>ATOM
      1 OG         18.7200   37.7800   82.6500 O.3       1 SER1        0.0000 
      2 OG         18.7600   35.7400   83.2100 O.3       1 SER1        0.0000 
      3 OG         19.8200   34.6800   83.2800 O.3       1 SER1        0.0000 
      4 OG         19.0600   36.1400   84.6300 O.3       1 SER1        0.0000 
      5 OG         20.1200   35.0800   84.7000 O.3       1 SER1        0.0000 
      6 OG         20.3800   37.5200   85.5500 O.3       1 SER1        0.0000 
      7 O          16.3400   37.4600   81.6500 O.2       2 ALA2        0.0000 
      8 O          17.4400   34.3600   82.2800 O.2       2 ALA2        0.0000 
      9 N          16.4200   33.3700   82.7700 N.am      2 ALA2        0.0000 
     10 O          15.4000   32.3900   83.2600 O.2       2 ALA2        0.0000 
     11 O          18.5000   33.3000   82.3600 O.2       2 ALA2        0.0000 
     12 N          17.4800   32.3100   82.8500 N.am      2 ALA2        0.0000 
     13 N          17.6600   38.8400   82.5700 N.am      2 ALA2        0.0000 
     14 O          18.8000   33.7000   83.7700 O.2       2 ALA2        0.0000 
     15 N          19.3200   38.5800   85.4800 N.am      2 ALA2        0.0000 
     16 CZ         21.1800   34.0200   84.7700 C.ar      3 PHE5        0.0000 
     17 CZ         20.6800   37.9100   86.9700 C.ar      3 PHE5        0.0000 
     18 CA         16.0500   37.0700   80.2300 C.3       4 GLY6        0.0000 
     19 CA         17.3600   38.4500   81.1600 C.3       4 GLY6        0.0000 
     20 CA         15.3200   36.4800   82.1400 C.3       4 GLY6        0.0000 
     21 CA         18.4200   37.3900   81.2300 C.3       4 GLY6        0.0000 
     22 CA         17.4000   36.4000   81.7200 C.3       4 GLY6        0.0000 
     23 CA         16.3800   35.4200   82.2100 C.3       4 GLY6        0.0000 
     24 CA         18.4600   35.3400   81.7900 C.3       4 GLY6        0.0000 
     25 CA         16.4600   31.3300   83.3400 C.3       4 GLY6        0.0000 
     26 CA         18.5400   31.2500   82.9200 C.3       4 GLY6        0.0000 
     27 CA         17.5200   30.2700   83.4100 C.3       4 GLY6        0.0000 
     28 CA         16.6400   37.8600   83.0600 C.3       4 GLY6        0.0000 
     29 CA         17.7000   36.8000   83.1400 C.3       4 GLY6        0.0000 
     30 CA         16.6800   35.8200   83.6300 C.3       4 GLY6        0.0000 
     31 CA         15.6600   34.8300   84.1200 C.3       4 GLY6        0.0000 
     32 CA         17.7400   34.7600   83.7000 C.3       4 GLY6        0.0000 
     33 CA         16.7200   33.7700   84.1900 C.3       4 GLY6        0.0000 
     34 CA         15.7000   32.7900   84.6800 C.3       4 GLY6        0.0000 
     35 CA         20.8800   33.6200   83.3600 C.3       4 GLY6        0.0000 
     36 CA         19.8600   32.6400   83.8500 C.3       4 GLY6        0.0000 
     37 CA         18.0000   37.2000   84.5500 C.3       4 GLY6        0.0000 
     38 CA         18.0400   35.1500   85.1200 C.3       4 GLY6        0.0000 
     39 CA         17.0200   34.1700   85.6100 C.3       4 GLY6        0.0000 
     40 CA         16.0000   33.1800   86.1000 C.3       4 GLY6        0.0000 
     41 CA         19.1000   34.0900   85.1900 C.3       4 GLY6        0.0000 
     42 CA         20.3400   39.5600   84.9900 C.3       4 GLY6        0.0000 
     43 CA         19.3600   36.5300   86.0400 C.3       4 GLY6        0.0000 
     44 CA         19.6600   36.9300   87.4600 C.3       4 GLY6        0.0000 
     45 CA         18.9400   36.3400   89.3600 C.3       4 GLY6        0.0000 
     46 DU         17.7800   32.7100   84.2600 H         5 CUB7        0.0000 
     47 DU         16.7600   31.7300   84.7500 H         5 CUB7        0.0000 
@<TRIPOS>BOND
@<TRIPOS>SUBSTRUCTURE
     1 SER1        1 GROUP   
     2 ALA2        7 GROUP   
     3 PHE5       16 GROUP   
     4 GLY6       18 GROUP   
     5 CUB7       46 GROUP   
@<TRIPOS>SET

