#    Name: 6gng_2_ADP
#    Modification time : Fri May 22 19:28:31 2020

@<TRIPOS>MOLECULE
6gng_2_ADP
   27    29     1     0     1
SMALL
NO_CHARGES


@<TRIPOS>ATOM
      1 PB         32.8440    7.7440  -36.7170 P.3       1 ADP602      0.0000 
      2 O1B        33.6910    8.1500  -37.9020 O.co2     1 ADP602      0.0000 
      3 O2B        31.6670    6.8550  -36.9980 O.co2     1 ADP602      0.0000 
      4 O3B        32.5210    8.8860  -35.8030 O.co2     1 ADP602      0.0000 
      5 PA         34.5020    5.4530  -36.4530 P.3       1 ADP602      0.0000 
      6 O1A        35.9920    5.6910  -36.3780 O.co2     1 ADP602      0.0000 
      7 O2A        33.9340    4.2640  -35.7270 O.co2     1 ADP602      0.0000 
      8 O3A        33.8100    6.7860  -35.8680 O.3       1 ADP602      0.0000 
      9 O5'        34.0610    5.3090  -37.9980 O.3       1 ADP602      0.0000 
     10 C5'        35.0440    5.0410  -39.0030 C.3       1 ADP602      0.0000 
     11 C4'        34.3900    4.6120  -40.3060 C.3       1 ADP602      0.0000 
     12 O4'        33.8120    5.7720  -40.9020 O.3       1 ADP602      0.0000 
     13 C3'        35.3580    4.0470  -41.3460 C.3       1 ADP602      0.0000 
     14 O3'        34.8830    2.7510  -41.7450 O.3       1 ADP602      0.0000 
     15 C2'        35.3780    5.0700  -42.4890 C.3       1 ADP602      0.0000 
     16 O2'        35.5380    4.5130  -43.8030 O.3       1 ADP602      0.0000 
     17 C1'        34.0100    5.7060  -42.3200 C.3       1 ADP602      0.0000 
     18 N9         33.7550    7.0330  -42.9590 N.pl3     1 ADP602      0.0000 
     19 C8         34.4380    8.1950  -42.8320 C.2       1 ADP602      0.0000 
     20 N7         33.8430    9.1770  -43.5690 N.2       1 ADP602      0.0000 
     21 C5         32.7510    8.6480  -44.1730 C.ar      1 ADP602      0.0000 
     22 C6         31.6530    9.0860  -45.0930 C.ar      1 ADP602      0.0000 
     23 N6         31.5700   10.3490  -45.5600 N.pl3     1 ADP602      0.0000 
     24 N1         30.7150    8.1810  -45.4720 N.ar      1 ADP602      0.0000 
     25 C2         30.7320    6.9040  -45.0430 C.ar      1 ADP602      0.0000 
     26 N3         31.6870    6.4440  -44.2150 N.ar      1 ADP602      0.0000 
     27 C4         32.7000    7.2390  -43.7560 C.ar      1 ADP602      0.0000 
@<TRIPOS>BOND
     1    1    2 ar   
     2    1    3 ar   
     3    1    4 ar   
     4    1    8 1    
     5    5    6 ar   
     6    5    7 ar   
     7    5    8 1    
     8    5    9 1    
     9    9   10 1    
    10   10   11 1    
    11   11   12 1    
    12   11   13 1    
    13   12   17 1    
    14   13   14 1    
    15   13   15 1    
    16   15   16 1    
    17   15   17 1    
    18   17   18 1    
    19   18   19 1    
    20   18   27 1    
    21   19   20 2    
    22   20   21 1    
    23   21   22 ar   
    24   21   27 ar   
    25   22   23 1    
    26   22   24 ar   
    27   24   25 ar   
    28   25   26 ar   
    29   26   27 ar   
@<TRIPOS>SUBSTRUCTURE
     1 ADP602      1 GROUP   
@<TRIPOS>SET
ATOM$ORANGE STATIC     ATOMS   COLORGROUP SYSTEM 
20 10 10 11 11 13 13 15 15 17 17 19 19 21 21 22 22 25 \
25 27 27 

