#    Name: 6gng_1_ADP
#    Modification time : Fri May 22 19:28:24 2020

@<TRIPOS>MOLECULE
6gng_1_ADP
   27    29     1     0     1
SMALL
NO_CHARGES


@<TRIPOS>ATOM
      1 PB          0.7930    3.9290    9.4090 P.3       1 ADP602      0.0000 
      2 O1B         0.8950    5.0590    8.4280 O.co2     1 ADP602      0.0000 
      3 O2B         2.0260    3.0760    9.4920 O.co2     1 ADP602      0.0000 
      4 O3B         0.1710    4.3380   10.7290 O.co2     1 ADP602      0.0000 
      5 PA         -0.3480    1.3650    9.2950 P.3       1 ADP602      0.0000 
      6 O1A         0.6340    0.5360    8.5010 O.co2     1 ADP602      0.0000 
      7 O2A        -1.8290    1.0670    9.2710 O.co2     1 ADP602      0.0000 
      8 O3A        -0.2400    2.8820    8.7650 O.3       1 ADP602      0.0000 
      9 O5'         0.1580    1.3680   10.8400 O.3       1 ADP602      0.0000 
     10 C5'        -0.6790    1.0990   11.9810 C.3       1 ADP602      0.0000 
     11 C4'         0.0780    0.2960   13.0520 C.3       1 ADP602      0.0000 
     12 O4'         0.5910    1.1740   14.0540 O.3       1 ADP602      0.0000 
     13 C3'        -0.7570   -0.7200   13.8320 C.3       1 ADP602      0.0000 
     14 O3'         0.0150   -1.9160   13.9950 O.3       1 ADP602      0.0000 
     15 C2'        -1.0820   -0.0740   15.1740 C.3       1 ADP602      0.0000 
     16 O2'        -0.8890   -0.9820   16.2570 O.3       1 ADP602      0.0000 
     17 C1'        -0.0950    1.0730   15.3210 C.3       1 ADP602      0.0000 
     18 N9         -0.6080    2.4430   15.5760 N.pl3     1 ADP602      0.0000 
     19 C8         -1.8240    2.9640   15.3170 C.2       1 ADP602      0.0000 
     20 N7         -1.8590    4.2760   15.6460 N.2       1 ADP602      0.0000 
     21 C5         -0.6460    4.6050   16.1040 C.ar      1 ADP602      0.0000 
     22 C6         -0.0060    5.8290   16.6220 C.ar      1 ADP602      0.0000 
     23 N6         -0.7490    6.9540   16.6880 N.pl3     1 ADP602      0.0000 
     24 N1          1.3030    5.7680   17.0140 N.ar      1 ADP602      0.0000 
     25 C2          2.0220    4.6230   16.9400 C.ar      1 ADP602      0.0000 
     26 N3          1.4860    3.4730   16.4730 N.ar      1 ADP602      0.0000 
     27 C4          0.1850    3.4030   16.0510 C.ar      1 ADP602      0.0000 
@<TRIPOS>BOND
     1    1    2 ar   
     2    1    3 ar   
     3    1    4 ar   
     4    1    8 1    
     5    5    6 ar   
     6    5    7 ar   
     7    5    8 1    
     8    5    9 1    
     9    9   10 1    
    10   10   11 1    
    11   11   12 1    
    12   11   13 1    
    13   12   17 1    
    14   13   14 1    
    15   13   15 1    
    16   15   16 1    
    17   15   17 1    
    18   17   18 1    
    19   18   19 1    
    20   18   27 1    
    21   19   20 2    
    22   20   21 1    
    23   21   22 ar   
    24   21   27 ar   
    25   22   23 1    
    26   22   24 ar   
    27   24   25 ar   
    28   25   26 ar   
    29   26   27 ar   
@<TRIPOS>SUBSTRUCTURE
     1 ADP602      1 GROUP   
@<TRIPOS>SET
ATOM$ORANGE STATIC     ATOMS   COLORGROUP SYSTEM 
20 10 10 11 11 13 13 15 15 17 17 19 19 21 21 22 22 25 \
25 27 27 

