#    Name: 6mcv_1_RET_CAVITY_N1_4
#    Modification time : Fri May 22 19:24:59 2020

@<TRIPOS>MOLECULE
6mcv_1_RET_CAVITY_N1_4
   64     0     7     0     0
SMALL
NO_CHARGES


@<TRIPOS>ATOM
      1 OG         -5.2300   65.7900  -49.1500 O.3       1 SER1        0.0000 
      2 OG         -3.9200   64.5100  -47.3100 O.3       1 SER1        0.0000 
      3 OG         -4.8600   66.3400  -47.8100 O.3       1 SER1        0.0000 
      4 OG         -4.4200   67.6200  -48.4500 O.3       1 SER1        0.0000 
      5 OG         -7.5800   63.0600  -45.7200 O.3       1 SER1        0.0000 
      6 OG         -8.9700   63.6100  -45.5800 O.3       1 SER1        0.0000 
      7 OG         -9.9100   65.4400  -46.0800 O.3       1 SER1        0.0000 
      8 OG         -1.8700   69.4500  -46.5500 O.3       1 SER1        0.0000 
      9 N          -3.3400   62.1200  -48.1500 N.am      2 ALA2        0.0000 
     10 O          -8.6000   64.1600  -44.2300 O.2       2 ALA2        0.0000 
     11 O          -8.1600   65.4400  -44.8800 O.2       2 ALA2        0.0000 
     12 O          -9.5500   66.0000  -44.7300 O.2       2 ALA2        0.0000 
     13 O          -4.5800   66.1700  -44.4700 O.2       2 ALA2        0.0000 
     14 OD1       -10.3500   64.1600  -45.4300 O.co2     3 ASP3        0.0000 
     15 OD1        -3.5600   65.0600  -45.9600 O.co2     3 ASP3        0.0000 
     16 OD1        -2.7500   66.8900  -45.2600 O.co2     3 ASP3        0.0000 
     17 NZ         -7.7200   66.7200  -45.5200 N.4       4 LYS4        0.0000 
     18 CZ         -7.4200   64.5100  -49.7100 C.ar      5 PHE5        0.0000 
     19 CZ         -5.6700   64.5100  -48.5100 C.ar      5 PHE5        0.0000 
     20 CZ         -6.6900   65.6100  -47.0200 C.ar      5 PHE5        0.0000 
     21 CZ         -6.2500   66.8900  -47.6600 C.ar      5 PHE5        0.0000 
     22 CZ         -8.5200   64.8900  -46.2200 C.ar      5 PHE5        0.0000 
     23 CZ         -6.7700   64.8900  -45.0200 C.ar      5 PHE5        0.0000 
     24 CZ         -6.3300   66.1700  -45.6700 C.ar      5 PHE5        0.0000 
     25 CZ         -3.2000   65.6200  -44.6200 C.ar      5 PHE5        0.0000 
     26 CZ         -4.1400   67.4500  -45.1200 C.ar      5 PHE5        0.0000 
     27 CZ         -2.3900   67.4500  -43.9200 C.ar      5 PHE5        0.0000 
     28 CZ         -1.9500   68.7300  -44.5600 C.ar      5 PHE5        0.0000 
     29 CZ         -3.3300   69.2800  -44.4200 C.ar      5 PHE5        0.0000 
     30 CA         -5.0900   62.1200  -49.3500 C.3       6 GLY6        0.0000 
     31 CA         -4.6500   63.4000  -50.0000 C.3       6 GLY6        0.0000 
     32 CA         -6.0300   63.9500  -49.8500 C.3       6 GLY6        0.0000 
     33 CA         -3.7800   60.8400  -47.5100 C.3       6 GLY6        0.0000 
     34 CA         -2.9000   63.4000  -48.8000 C.3       6 GLY6        0.0000 
     35 CA         -5.1700   61.3900  -47.3600 C.3       6 GLY6        0.0000 
     36 CA         -4.2800   63.9500  -48.6500 C.3       6 GLY6        0.0000 
     37 CA         -7.9400   62.5000  -47.0700 C.3       6 GLY6        0.0000 
     38 CA         -7.5000   63.7800  -47.7200 C.3       6 GLY6        0.0000 
     39 CA         -9.3300   63.0600  -46.9200 C.3       6 GLY6        0.0000 
     40 CA         -8.8900   64.3400  -47.5700 C.3       6 GLY6        0.0000 
     41 CA         -2.9800   62.6700  -46.8100 C.3       6 GLY6        0.0000 
     42 CA         -2.5300   63.9500  -47.4500 C.3       6 GLY6        0.0000 
     43 CA         -4.3600   63.2300  -46.6600 C.3       6 GLY6        0.0000 
     44 CA         -6.1900   62.5000  -45.8700 C.3       6 GLY6        0.0000 
     45 CA         -5.7500   63.7800  -46.5200 C.3       6 GLY6        0.0000 
     46 CA         -4.0000   63.7800  -45.3200 C.3       6 GLY6        0.0000 
     47 CA         -3.1100   66.3400  -46.6100 C.3       6 GLY6        0.0000 
     48 CA         -2.6700   67.6200  -47.2500 C.3       6 GLY6        0.0000 
     49 CA         -5.3900   64.3400  -45.1700 C.3       6 GLY6        0.0000 
     50 CA         -4.5000   66.8900  -46.4600 C.3       6 GLY6        0.0000 
     51 CA         -4.0600   68.1700  -47.1100 C.3       6 GLY6        0.0000 
     52 CA         -7.2200   63.6100  -44.3800 C.3       6 GLY6        0.0000 
     53 CA         -5.8900   67.4500  -46.3200 C.3       6 GLY6        0.0000 
     54 CA         -2.3100   68.1700  -45.9100 C.3       6 GLY6        0.0000 
     55 CA         -3.7000   68.7300  -45.7600 C.3       6 GLY6        0.0000 
     56 CA         -5.5200   68.0000  -44.9700 C.3       6 GLY6        0.0000 
     57 CA         -1.5000   70.0100  -45.2100 C.3       6 GLY6        0.0000 
     58 DU         -6.4800   62.6700  -49.2100 H         7 CUB7        0.0000 
     59 DU         -4.7300   62.6700  -48.0100 H         7 CUB7        0.0000 
     60 DU         -6.5600   61.9500  -47.2200 H         7 CUB7        0.0000 
     61 DU         -6.1100   63.2300  -47.8600 H         7 CUB7        0.0000 
     62 DU         -5.3100   65.0600  -47.1600 H         7 CUB7        0.0000 
     63 DU         -7.1400   64.3400  -46.3700 H         7 CUB7        0.0000 
     64 DU         -4.9400   65.6200  -45.8200 H         7 CUB7        0.0000 
@<TRIPOS>BOND
@<TRIPOS>SUBSTRUCTURE
     1 SER1        1 GROUP   
     2 ALA2        9 GROUP   
     3 ASP3       14 GROUP   
     4 LYS4       17 GROUP   
     5 PHE5       18 GROUP   
     6 GLY6       30 GROUP   
     7 CUB7       58 GROUP   
@<TRIPOS>SET

