#    Name: 6mcv_2_RET_CAVITY_N1_4
#    Modification time : Fri May 22 19:25:02 2020

@<TRIPOS>MOLECULE
6mcv_2_RET_CAVITY_N1_4
   53     0     6     0     0
SMALL
NO_CHARGES


@<TRIPOS>ATOM
      1 OG         -2.0800   23.4000  -12.4900 O.3       1 SER1        0.0000 
      2 OG         -3.1000   24.5100  -11.0000 O.3       1 SER1        0.0000 
      3 OG          6.4700   24.3000  -11.8200 O.3       1 SER1        0.0000 
      4 OG          3.6100   24.6800   -9.5400 O.3       1 SER1        0.0000 
      5 O           0.2500   21.0200  -12.1400 O.2       2 ALA2        0.0000 
      6 O          -1.1300   21.5700  -11.9900 O.2       2 ALA2        0.0000 
      7 N           5.1600   25.5800  -13.6700 N.am      2 ALA2        0.0000 
      8 O           2.4400   22.3000  -11.5800 O.2       2 ALA2        0.0000 
      9 O           2.8900   23.5800  -12.2300 O.2       2 ALA2        0.0000 
     10 N           6.9100   25.5800  -12.4700 N.am      2 ALA2        0.0000 
     11 N           5.5200   26.1400  -12.3200 N.am      2 ALA2        0.0000 
     12 OD1         5.0800   24.8600  -11.6800 O.co2     3 ASP3        0.0000 
     13 OD1         3.2500   24.1300  -10.8800 O.co2     3 ASP3        0.0000 
     14 OD1         3.6900   25.4100  -11.5300 O.co2     3 ASP3        0.0000 
     15 OD1         4.1400   26.6900  -12.1800 O.co2     3 ASP3        0.0000 
     16 OD1         1.8600   24.6800  -10.7400 O.co2     3 ASP3        0.0000 
     17 OD1         2.3100   25.9600  -11.3900 O.co2     3 ASP3        0.0000 
     18 OD1         5.4400   25.4100  -10.3300 O.co2     3 ASP3        0.0000 
     19 OD1         2.2300   25.2400   -9.3900 O.co2     3 ASP3        0.0000 
     20 OD1         0.8400   25.7900   -9.2500 O.co2     3 ASP3        0.0000 
     21 OD1         1.2800   27.0700   -9.8900 O.co2     3 ASP3        0.0000 
     22 CZ          6.1000   23.7500  -13.1700 C.ar      4 PHE5        0.0000 
     23 CZ          4.2700   23.0200  -12.3800 C.ar      4 PHE5        0.0000 
     24 CZ          4.7200   24.3000  -13.0200 C.ar      4 PHE5        0.0000 
     25 CZ          3.3300   24.8600  -12.8800 C.ar      4 PHE5        0.0000 
     26 CZ          0.6100   21.5700  -10.7900 C.ar      4 PHE5        0.0000 
     27 CZ          1.0600   22.8500  -11.4400 C.ar      4 PHE5        0.0000 
     28 CZ          1.5000   24.1300  -12.0900 C.ar      4 PHE5        0.0000 
     29 CZ          2.8100   22.8500  -10.2400 C.ar      4 PHE5        0.0000 
     30 CZ          1.4200   23.4100  -10.0900 C.ar      4 PHE5        0.0000 
     31 CZ         -0.4100   22.6800   -9.3000 C.ar      4 PHE5        0.0000 
     32 CZ          0.0300   23.9600   -9.9500 C.ar      4 PHE5        0.0000 
     33 CZ         -0.0500   23.2300   -7.9600 C.ar      4 PHE5        0.0000 
     34 CZ          0.4000   24.5100   -8.6000 C.ar      4 PHE5        0.0000 
     35 CA         -0.6900   22.8500  -12.6400 C.3       5 GLY6        0.0000 
     36 CA          3.7700   26.1400  -13.5200 C.3       5 GLY6        0.0000 
     37 CA          1.9400   25.4100  -12.7300 C.3       5 GLY6        0.0000 
     38 CA         -0.7700   22.1300  -10.6500 C.3       5 GLY6        0.0000 
     39 CA         -0.3300   23.4100  -11.2900 C.3       5 GLY6        0.0000 
     40 CA          0.1100   24.6800  -11.9400 C.3       5 GLY6        0.0000 
     41 CA         -2.1600   22.6800  -10.5000 C.3       5 GLY6        0.0000 
     42 CA         -1.7200   23.9600  -11.1500 C.3       5 GLY6        0.0000 
     43 CA          4.6400   23.5800  -11.0300 C.3       5 GLY6        0.0000 
     44 CA          0.4800   25.2400  -10.5900 C.3       5 GLY6        0.0000 
     45 CA         -1.8000   23.2300   -9.1600 C.3       5 GLY6        0.0000 
     46 CA         -0.9100   25.7900  -10.4500 C.3       5 GLY6        0.0000 
     47 CA         -0.4700   27.0700  -11.0900 C.3       5 GLY6        0.0000 
     48 CA         -2.7400   25.0700   -9.6600 C.3       5 GLY6        0.0000 
     49 CA          5.0000   24.1300   -9.6800 C.3       5 GLY6        0.0000 
     50 CA         -1.4300   23.7900   -7.8100 C.3       5 GLY6        0.0000 
     51 DU         -1.3500   24.5100   -9.8000 H         6 CUB7        0.0000 
     52 DU         -0.9900   25.0700   -8.4600 H         6 CUB7        0.0000 
     53 DU         -0.5500   26.3500   -9.1000 H         6 CUB7        0.0000 
@<TRIPOS>BOND
@<TRIPOS>SUBSTRUCTURE
     1 SER1        1 GROUP   
     2 ALA2        5 GROUP   
     3 ASP3       12 GROUP   
     4 PHE5       22 GROUP   
     5 GLY6       35 GROUP   
     6 CUB7       51 GROUP   
@<TRIPOS>SET

