#    Name: 6mcv_2_RET
#    Modification time : Fri May 22 19:25:01 2020

@<TRIPOS>MOLECULE
6mcv_2_RET
    7     6     1     0     0
SMALL
NO_CHARGES


@<TRIPOS>ATOM
      1 C11         0.0170   22.8600  -11.2790 C.3       1 RET201      0.0000 
      2 C12         0.9690   23.7980  -11.2510 C.2       1 RET201      0.0000 
      3 C13         2.3670   23.6300  -11.6040 C.2       1 RET201      0.0000 
      4 C14         3.1100   24.7230  -11.9040 C.3       1 RET201      0.0000 
      5 C15         4.5000   24.7680  -12.2770 C.3       1 RET201      0.0000 
      6 O1          5.0950   25.7960  -12.5320 Du        1 RET201      0.0000 
      7 C20         2.9240   22.2350  -11.6200 C.2       1 RET201      0.0000 
@<TRIPOS>BOND
     1    1    2 1    
     2    2    3 2    
     3    3    4 1    
     4    3    7 1    
     5    4    5 1    
     6    5    6 du   
@<TRIPOS>SUBSTRUCTURE
     1 RET201      1 GROUP   
@<TRIPOS>SET

