#    Name: 6mcv_1_RET
#    Modification time : Fri May 22 19:24:59 2020

@<TRIPOS>MOLECULE
6mcv_1_RET
    7     6     1     0     0
SMALL
NO_CHARGES


@<TRIPOS>ATOM
      1 C11        -7.5530   65.3150  -45.1230 C.3       1 RET201      0.0000 
      2 C12        -6.7210   65.6900  -46.1010 C.2       1 RET201      0.0000 
      3 C13        -5.2800   65.5270  -46.1280 C.2       1 RET201      0.0000 
      4 C14        -4.4920   66.5500  -45.7190 C.3       1 RET201      0.0000 
      5 C15        -3.0540   66.5890  -45.6710 C.3       1 RET201      0.0000 
      6 O1         -2.4190   67.5510  -45.2870 Du        1 RET201      0.0000 
      7 C20        -4.7280   64.2150  -46.6130 C.2       1 RET201      0.0000 
@<TRIPOS>BOND
     1    1    2 1    
     2    2    3 2    
     3    3    4 1    
     4    3    7 1    
     5    4    5 1    
     6    5    6 du   
@<TRIPOS>SUBSTRUCTURE
     1 RET201      1 GROUP   
@<TRIPOS>SET

