#    Name: 5ypk_3_HIW
#    Modification time : Fri May 22 19:15:19 2020

@<TRIPOS>MOLECULE
5ypk_3_HIW
   21    21     1     0     0
SMALL
NO_CHARGES


@<TRIPOS>ATOM
      1 O31        94.8900  -10.7340  271.5190           1 HIW303      0.0000 
      2 C31        96.1010  -10.9350  271.2780           1 HIW303      0.0000 
      3 O32        96.9650  -10.4180  272.0150           1 HIW303      0.0000 
      4 C3         96.4410  -11.6260  270.1900           1 HIW303      0.0000 
      5 N4         95.5830  -11.7410  269.1810           1 HIW303      0.0000 
      6 C2         97.6360  -12.3160  269.9450           1 HIW303      0.0000 
      7 C1         97.2370  -13.2670  268.8400           1 HIW303      0.0000 
      8 C5         96.1890  -12.5080  268.0830           1 HIW303      0.0000 
      9 C6         96.7620  -11.5020  267.0930           1 HIW303      0.0000 
     10 C7         95.8010  -10.3240  267.1220           1 HIW303      0.0000 
     11 O71        94.5950  -10.5930  266.9290           1 HIW303      0.0000 
     12 O72        96.2850   -9.1920  267.3420           1 HIW303      0.0000 
     13 C61        96.7540  -12.0640  265.6680           1 HIW303      0.0000 
     14 O62        95.5430  -12.7990  265.4450           1 HIW303      0.0000 
     15 C62        97.9700  -12.9600  265.4230           1 HIW303      0.0000 
     16 S21        98.1580  -13.3120  271.3950           1 HIW303      0.0000 
     17 C22        99.3450  -12.2450  272.2920           1 HIW303      0.0000 
     18 C23        99.6250  -12.7550  273.7130           1 HIW303      0.0000 
     19 N24        98.6130  -12.2470  274.6560           1 HIW303      0.0000 
     20 C25        98.9260  -11.9360  275.9270           1 HIW303      0.0000 
     21 N26        97.9980  -11.4740  276.7640           1 HIW303      0.0000 
@<TRIPOS>BOND
     1    1    2 du   
     2    2    3 du   
     3    2    4 du   
     4    4    5 du   
     5    4    6 du   
     6    5    8 du   
     7    6    7 du   
     8    6   16 du   
     9    7    8 du   
    10    8    9 du   
    11    9   10 du   
    12    9   13 du   
    13   10   11 du   
    14   10   12 du   
    15   13   14 du   
    16   13   15 du   
    17   16   17 du   
    18   17   18 du   
    19   18   19 du   
    20   19   20 du   
    21   20   21 du   
@<TRIPOS>SUBSTRUCTURE
     1 HIW303      1 GROUP   
@<TRIPOS>SET

