#    Name: 5ypk_8_HIW_CAVITY_N1_4
#    Modification time : Fri May 22 19:15:30 2020

@<TRIPOS>MOLECULE
5ypk_8_HIW_CAVITY_N1_4
   69     0     6     0     0
SMALL
NO_CHARGES


@<TRIPOS>ATOM
      1 OG         64.1900  -11.2100  237.5700 O.3       1 SER1        0.0000 
      2 N          59.5800  -13.8400  229.9900 N.am      2 ALA2        0.0000 
      3 N          60.2200  -13.1000  231.1300 N.am      2 ALA2        0.0000 
      4 N          60.8600  -12.3500  232.2600 N.am      2 ALA2        0.0000 
      5 N          60.2400  -10.8300  233.6000 N.am      2 ALA2        0.0000 
      6 N          62.2700  -13.4400  234.1600 N.am      2 ALA2        0.0000 
      7 N          61.0100  -12.6500  234.3600 N.am      2 ALA2        0.0000 
      8 N          60.8800  -10.0900  234.7400 N.am      2 ALA2        0.0000 
      9 N          64.1700  -13.4800  235.0900 N.am      2 ALA2        0.0000 
     10 N          62.9100  -12.7000  235.2900 N.am      2 ALA2        0.0000 
     11 N          61.6500  -11.9100  235.5000 N.am      2 ALA2        0.0000 
     12 N          64.0400  -10.9100  235.4700 N.am      2 ALA2        0.0000 
     13 N          62.7800  -10.1300  235.6700 N.am      2 ALA2        0.0000 
     14 N          63.5500  -11.9500  236.4300 N.am      2 ALA2        0.0000 
     15 N          67.2100  -11.7400  236.2000 N.am      2 ALA2        0.0000 
     16 N          65.9500  -10.9500  236.4100 N.am      2 ALA2        0.0000 
     17 O          64.6800  -10.1700  236.6100 O.2       2 ALA2        0.0000 
     18 N          68.6400  -10.5500  240.5700 N.am      2 ALA2        0.0000 
     19 OD1        60.3800  -11.1300  235.7000 O.co2     3 ASP3        0.0000 
     20 OD1        62.2900  -11.1700  236.6300 O.co2     3 ASP3        0.0000 
     21 OD1        62.9300  -10.4300  237.7700 O.co2     3 ASP3        0.0000 
     22 CZ         59.7200  -14.1400  232.0900 C.ar      4 PHE5        0.0000 
     23 CZ         60.3700  -13.4000  233.2200 C.ar      4 PHE5        0.0000 
     24 CZ         59.1000  -12.6100  233.4200 C.ar      4 PHE5        0.0000 
     25 CZ         59.7400  -11.8700  234.5600 C.ar      4 PHE5        0.0000 
     26 CZ         61.1500  -12.9600  236.4500 C.ar      4 PHE5        0.0000 
     27 CZ         64.8100  -12.7400  236.2300 C.ar      4 PHE5        0.0000 
     28 CZ         63.0600  -13.0000  237.3900 C.ar      4 PHE5        0.0000 
     29 CZ         67.9800  -13.5600  236.9600 C.ar      4 PHE5        0.0000 
     30 CZ         66.7200  -12.7800  237.1600 C.ar      4 PHE5        0.0000 
     31 CZ         63.7000  -12.2500  238.5200 C.ar      4 PHE5        0.0000 
     32 CZ         64.4700  -14.0800  239.2800 C.ar      4 PHE5        0.0000 
     33 CZ         69.1100  -11.7800  237.1400 C.ar      4 PHE5        0.0000 
     34 CZ         65.6000  -12.3000  239.4600 C.ar      4 PHE5        0.0000 
     35 CZ         64.3400  -11.5100  239.6600 C.ar      4 PHE5        0.0000 
     36 CA         61.9800  -12.8400  229.9700 C.3       5 GLY6        0.0000 
     37 CA         60.7100  -12.0500  230.1700 C.3       5 GLY6        0.0000 
     38 CA         61.4800  -13.8800  230.9300 C.3       5 GLY6        0.0000 
     39 CA         60.9900  -14.9200  231.8900 C.3       5 GLY6        0.0000 
     40 CA         59.6000  -11.5700  232.4700 C.3       5 GLY6        0.0000 
     41 CA         61.6300  -14.1800  233.0200 C.3       5 GLY6        0.0000 
     42 CA         58.9700  -10.0500  233.8000 C.3       5 GLY6        0.0000 
     43 CA         62.4200  -13.7400  236.2500 C.3       5 GLY6        0.0000 
     44 CA         65.3100  -11.6900  235.2700 C.3       5 GLY6        0.0000 
     45 CA         65.5800  -14.5600  236.9900 C.3       5 GLY6        0.0000 
     46 CA         64.3200  -13.7800  237.1900 C.3       5 GLY6        0.0000 
     47 CA         63.4200   -9.3900  236.8100 C.3       5 GLY6        0.0000 
     48 CA         66.2200  -13.8200  238.1200 C.3       5 GLY6        0.0000 
     49 CA         64.9600  -13.0400  238.3200 C.3       5 GLY6        0.0000 
     50 CA         66.9900  -15.6500  238.8800 C.3       5 GLY6        0.0000 
     51 CA         65.7300  -14.8600  239.0800 C.3       5 GLY6        0.0000 
     52 CA         67.8500  -10.9900  237.3400 C.3       5 GLY6        0.0000 
     53 CA         66.5900  -10.2100  237.5400 C.3       5 GLY6        0.0000 
     54 CA         66.0900  -11.2500  238.5000 C.3       5 GLY6        0.0000 
     55 CA         64.8300  -10.4700  238.7000 C.3       5 GLY6        0.0000 
     56 CA         66.3700  -14.1200  240.2200 C.3       5 GLY6        0.0000 
     57 CA         65.1100  -13.3400  240.4200 C.3       5 GLY6        0.0000 
     58 CA         68.4900  -10.2500  238.4800 C.3       5 GLY6        0.0000 
     59 CA         68.0000  -11.2900  239.4300 C.3       5 GLY6        0.0000 
     60 CA         66.7300  -10.5100  239.6400 C.3       5 GLY6        0.0000 
     61 CA         66.2400  -11.5500  240.5900 C.3       5 GLY6        0.0000 
     62 CA         67.3700   -9.7700  240.7700 C.3       5 GLY6        0.0000 
     63 CA         68.1400  -11.5900  241.5300 C.3       5 GLY6        0.0000 
     64 DU         65.4500  -11.9900  237.3600 H         6 CUB7        0.0000 
     65 DU         67.3600  -12.0400  238.3000 H         6 CUB7        0.0000 
     66 DU         66.8600  -13.0800  239.2600 H         6 CUB7        0.0000 
     67 DU         69.2600  -12.0800  239.2300 H         6 CUB7        0.0000 
     68 DU         67.5000  -12.3400  240.3900 H         6 CUB7        0.0000 
     69 DU         69.4100  -12.3800  241.3300 H         6 CUB7        0.0000 
@<TRIPOS>BOND
@<TRIPOS>SUBSTRUCTURE
     1 SER1        1 GROUP   
     2 ALA2        2 GROUP   
     3 ASP3       19 GROUP   
     4 PHE5       22 GROUP   
     5 GLY6       36 GROUP   
     6 CUB7       64 GROUP   
@<TRIPOS>SET

