#    Name: 5ypk_6_HIW
#    Modification time : Fri May 22 19:15:22 2020

@<TRIPOS>MOLECULE
5ypk_6_HIW
   21    21     1     0     0
SMALL
NO_CHARGES


@<TRIPOS>ATOM
      1 O31        39.0200  -19.3630  276.5610           1 HIW303      0.0000 
      2 C31        40.2170  -19.0090  276.5210           1 HIW303      0.0000 
      3 O32        40.9840  -19.3460  277.4480           1 HIW303      0.0000 
      4 C3         40.7160  -18.3370  275.4790           1 HIW303      0.0000 
      5 N4         42.0350  -18.2270  275.3220           1 HIW303      0.0000 
      6 C2         40.0140  -17.6770  274.4590           1 HIW303      0.0000 
      7 C1         41.0490  -16.7080  273.9360           1 HIW303      0.0000 
      8 C5         42.3320  -17.4840  274.0910           1 HIW303      0.0000 
      9 C6         42.5630  -18.5100  272.9850           1 HIW303      0.0000 
     10 C7         43.0840  -19.7770  273.6670           1 HIW303      0.0000 
     11 O71        42.3740  -20.8050  273.6170           1 HIW303      0.0000 
     12 O72        44.1840  -19.6820  274.2550           1 HIW303      0.0000 
     13 C61        43.6530  -18.0140  272.0290           1 HIW303      0.0000 
     14 O62        44.7780  -17.5600  272.7920           1 HIW303      0.0000 
     15 C62        43.1420  -16.8770  271.1390           1 HIW303      0.0000 
     16 S21        38.5850  -16.7250  275.1010           1 HIW303      0.0000 
     17 C22        37.1430  -17.7750  274.6960           1 HIW303      0.0000 
     18 C23        35.9340  -17.4440  275.5780           1 HIW303      0.0000 
     19 N24        35.9710  -16.0180  275.9480           1 HIW303      0.0000 
     20 C25        36.1140  -15.6060  277.2170           1 HIW303      0.0000 
     21 N26        36.1390  -14.3040  277.4990           1 HIW303      0.0000 
@<TRIPOS>BOND
     1    1    2 du   
     2    2    3 du   
     3    2    4 du   
     4    4    5 du   
     5    4    6 du   
     6    5    8 du   
     7    6    7 du   
     8    6   16 du   
     9    7    8 du   
    10    8    9 du   
    11    9   10 du   
    12    9   13 du   
    13   10   11 du   
    14   10   12 du   
    15   13   14 du   
    16   13   15 du   
    17   16   17 du   
    18   17   18 du   
    19   18   19 du   
    20   19   20 du   
    21   20   21 du   
@<TRIPOS>SUBSTRUCTURE
     1 HIW303      1 GROUP   
@<TRIPOS>SET

