#    Name: 5ypk_6_HIW_CAVITY_N1_6
#    Modification time : Fri May 22 19:15:23 2020

@<TRIPOS>MOLECULE
5ypk_6_HIW_CAVITY_N1_6
   72     0     7     0     0
SMALL
NO_CHARGES


@<TRIPOS>ATOM
      1 OG         43.4400  -19.1200  272.2600 O.3       1 SER1        0.0000 
      2 OG         39.8000  -17.0700  274.9600 O.3       1 SER1        0.0000 
      3 OG         39.3100  -18.1100  275.9100 O.3       1 SER1        0.0000 
      4 O          42.8000  -19.8600  271.1200 O.2       2 ALA2        0.0000 
      5 O          41.5400  -19.0700  271.3200 O.2       2 ALA2        0.0000 
      6 N          43.6600  -15.2100  269.5800 N.am      2 ALA2        0.0000 
      7 O          41.6900  -19.3800  273.4200 O.2       2 ALA2        0.0000 
      8 O          38.6700  -18.8500  274.7800 O.2       2 ALA2        0.0000 
      9 O          37.4000  -18.0700  274.9800 O.2       2 ALA2        0.0000 
     10 N          35.5300  -13.4900  278.9900 N.am      2 ALA2        0.0000 
     11 N          35.0400  -14.5400  279.9500 N.am      2 ALA2        0.0000 
     12 N          35.8100  -16.3600  280.7100 N.am      2 ALA2        0.0000 
     13 N          35.6800  -13.8000  281.0900 N.am      2 ALA2        0.0000 
     14 OD1        42.9500  -20.1600  273.2200 O.co2     3 ASP3        0.0000 
     15 OD1        42.8200  -17.5900  273.5900 O.co2     3 ASP3        0.0000 
     16 OD1        41.5600  -16.8100  273.8000 O.co2     3 ASP3        0.0000 
     17 OD1        42.3300  -18.6300  274.5500 O.co2     3 ASP3        0.0000 
     18 OD1        41.0600  -17.8500  274.7500 O.co2     3 ASP3        0.0000 
     19 OD1        41.8300  -19.6800  275.5100 O.co2     3 ASP3        0.0000 
     20 OD1        40.5700  -18.8900  275.7100 O.co2     3 ASP3        0.0000 
     21 OD1        38.8100  -19.1500  276.8700 O.co2     3 ASP3        0.0000 
     22 NZ         44.5800  -17.3300  272.4300 N.4       4 LYS4        0.0000 
     23 NZ         44.0800  -18.3700  273.3900 N.4       4 LYS4        0.0000 
     24 CZ         43.1700  -16.2500  270.5400 C.ar      5 PHE5        0.0000 
     25 CZ         43.3100  -16.5500  272.6400 C.ar      5 PHE5        0.0000 
     26 CZ         42.0500  -15.7700  272.8400 C.ar      5 PHE5        0.0000 
     27 CZ         40.7900  -14.9800  273.0400 C.ar      5 PHE5        0.0000 
     28 CZ         42.2000  -16.0700  274.9300 C.ar      5 PHE5        0.0000 
     29 CZ         40.9300  -15.2800  275.1300 C.ar      5 PHE5        0.0000 
     30 CZ         38.6800  -16.5900  277.2500 C.ar      5 PHE5        0.0000 
     31 CZ         38.1900  -17.6300  278.2100 C.ar      5 PHE5        0.0000 
     32 CA         40.7700  -17.2500  270.5700 C.3       6 GLY6        0.0000 
     33 CA         39.5100  -16.4700  270.7700 C.3       6 GLY6        0.0000 
     34 CA         40.2800  -18.2900  271.5200 C.3       6 GLY6        0.0000 
     35 CA         44.4300  -17.0300  270.3400 C.3       6 GLY6        0.0000 
     36 CA         41.9000  -15.4700  270.7400 C.3       6 GLY6        0.0000 
     37 CA         41.4100  -16.5100  271.7000 C.3       6 GLY6        0.0000 
     38 CA         40.1500  -15.7200  271.9000 C.3       6 GLY6        0.0000 
     39 CA         38.3900  -15.9800  273.0600 C.3       6 GLY6        0.0000 
     40 CA         40.4200  -18.5900  273.6200 C.3       6 GLY6        0.0000 
     41 CA         39.1600  -17.8100  273.8200 C.3       6 GLY6        0.0000 
     42 CA         41.1900  -20.4200  274.3800 C.3       6 GLY6        0.0000 
     43 CA         39.9300  -19.6300  274.5800 C.3       6 GLY6        0.0000 
     44 CA         40.2900  -16.0300  274.0000 C.3       6 GLY6        0.0000 
     45 CA         39.0300  -15.2400  274.2000 C.3       6 GLY6        0.0000 
     46 CA         37.7700  -14.4600  274.4000 C.3       6 GLY6        0.0000 
     47 CA         38.5400  -16.2800  275.1600 C.3       6 GLY6        0.0000 
     48 CA         37.2700  -15.5000  275.3600 C.3       6 GLY6        0.0000 
     49 CA         37.5500  -18.3700  277.0800 C.3       6 GLY6        0.0000 
     50 CA         36.2900  -17.5900  277.2800 C.3       6 GLY6        0.0000 
     51 CA         39.1800  -15.5400  276.2900 C.3       6 GLY6        0.0000 
     52 CA         37.9100  -14.7600  276.4900 C.3       6 GLY6        0.0000 
     53 CA         36.6500  -13.9800  276.6900 C.3       6 GLY6        0.0000 
     54 CA         37.4200  -15.8000  277.4500 C.3       6 GLY6        0.0000 
     55 CA         36.9300  -16.8400  278.4100 C.3       6 GLY6        0.0000 
     56 CA         36.4300  -17.8900  279.3700 C.3       6 GLY6        0.0000 
     57 CA         36.8000  -14.2800  278.7900 C.3       6 GLY6        0.0000 
     58 CA         36.3000  -15.3200  279.7500 C.3       6 GLY6        0.0000 
     59 DU         43.3000  -18.8200  270.1600 H         7 CUB7        0.0000 
     60 DU         42.0300  -18.0300  270.3600 H         7 CUB7        0.0000 
     61 DU         43.9400  -18.0700  271.3000 H         7 CUB7        0.0000 
     62 DU         42.6700  -17.2900  271.5000 H         7 CUB7        0.0000 
     63 DU         42.1800  -18.3300  272.4600 H         7 CUB7        0.0000 
     64 DU         40.9200  -17.5500  272.6600 H         7 CUB7        0.0000 
     65 DU         39.6500  -16.7700  272.8600 H         7 CUB7        0.0000 
     66 DU         37.9000  -17.0300  274.0200 H         7 CUB7        0.0000 
     67 DU         36.6300  -16.2400  274.2200 H         7 CUB7        0.0000 
     68 DU         38.0400  -17.3300  276.1200 H         7 CUB7        0.0000 
     69 DU         36.7800  -16.5400  276.3200 H         7 CUB7        0.0000 
     70 DU         36.1600  -15.0200  277.6500 H         7 CUB7        0.0000 
     71 DU         35.6600  -16.0600  278.6100 H         7 CUB7        0.0000 
     72 DU         34.5500  -15.5800  280.9100 H         7 CUB7        0.0000 
@<TRIPOS>BOND
@<TRIPOS>SUBSTRUCTURE
     1 SER1        1 GROUP   
     2 ALA2        4 GROUP   
     3 ASP3       14 GROUP   
     4 LYS4       22 GROUP   
     5 PHE5       24 GROUP   
     6 GLY6       32 GROUP   
     7 CUB7       59 GROUP   
@<TRIPOS>SET

