#    Name: 5ypk_3_HIW_CAVITY_N1_12
#    Modification time : Fri May 22 19:15:20 2020

@<TRIPOS>MOLECULE
5ypk_3_HIW_CAVITY_N1_12
   79     0     7     0     0
SMALL
NO_CHARGES


@<TRIPOS>ATOM
      1 OG         97.1100  -12.7900  271.5500 O.3       1 SER1        0.0000 
      2 N          98.5500  -14.2000  263.7300 N.am      2 ALA2        0.0000 
      3 O          96.0300  -12.6300  264.1300 O.2       2 ALA2        0.0000 
      4 O          99.0600  -10.8900  265.2400 O.2       2 ALA2        0.0000 
      5 O          97.8000  -10.1100  265.4400 O.2       2 ALA2        0.0000 
      6 O          97.3100  -11.1500  266.4000 O.2       2 ALA2        0.0000 
      7 O          99.2100  -11.1900  267.3400 O.2       2 ALA2        0.0000 
      8 O          97.9500  -10.4100  267.5400 O.2       2 ALA2        0.0000 
      9 O          96.6800   -9.6200  267.7400 O.2       2 ALA2        0.0000 
     10 O          99.5100  -11.7900  271.5200 O.2       2 ALA2        0.0000 
     11 O          98.2400  -11.0100  271.7300 O.2       2 ALA2        0.0000 
     12 OD1        96.0400  -10.3700  266.6000 O.co2     3 ASP3        0.0000 
     13 OD1        96.8100  -12.1900  267.3600 O.co2     3 ASP3        0.0000 
     14 OD1        95.5500  -11.4100  267.5600 O.co2     3 ASP3        0.0000 
     15 OD1        96.3200  -13.2300  268.3200 O.co2     3 ASP3        0.0000 
     16 OD1        96.1900  -10.6700  268.7000 O.co2     3 ASP3        0.0000 
     17 OD1        96.9600  -12.4900  269.4500 O.co2     3 ASP3        0.0000 
     18 OD1        96.3400  -10.9700  270.7900 O.co2     3 ASP3        0.0000 
     19 NZ         96.1700  -12.9300  266.2200 N.4       4 LYS4        0.0000 
     20 CZ         99.3200  -16.0200  264.4900 C.ar      5 PHE5        0.0000 
     21 CZ         97.1600  -10.8500  264.3100 C.ar      5 PHE5        0.0000 
     22 CZ         99.9600  -15.2800  265.6200 C.ar      5 PHE5        0.0000 
     23 CZ         98.7000  -14.5000  265.8200 C.ar      5 PHE5        0.0000 
     24 CZ         97.4400  -13.7200  266.0200 C.ar      5 PHE5        0.0000 
     25 CZ         99.4700  -16.3200  266.5800 C.ar      5 PHE5        0.0000 
     26 CZ         98.8500  -14.8000  267.9200 C.ar      5 PHE5        0.0000 
     27 CZ         97.5800  -14.0200  268.1200 C.ar      5 PHE5        0.0000 
     28 CZ         97.0900  -15.0600  269.0800 C.ar      5 PHE5        0.0000 
     29 CZ        101.3900  -14.1000  269.9900 C.ar      5 PHE5        0.0000 
     30 CZ         99.6400  -14.3600  271.1500 C.ar      5 PHE5        0.0000 
     31 CZ        102.0300  -13.3600  271.1200 C.ar      5 PHE5        0.0000 
     32 CZ        100.7700  -12.5700  271.3200 C.ar      5 PHE5        0.0000 
     33 CZ        100.2800  -13.6200  272.2800 C.ar      5 PHE5        0.0000 
     34 CZ        100.9200  -12.8700  273.4200 C.ar      5 PHE5        0.0000 
     35 CA         97.2900  -13.4200  263.9300 C.3       6 GLY6        0.0000 
     36 CA        100.5900  -16.8100  264.2800 C.3       6 GLY6        0.0000 
     37 CA        100.0900  -17.8500  265.2400 C.3       6 GLY6        0.0000 
     38 CA        101.7200  -15.0200  264.4600 C.3       6 GLY6        0.0000 
     39 CA         96.6700  -11.8900  265.2600 C.3       6 GLY6        0.0000 
     40 CA        101.2300  -16.0600  265.4200 C.3       6 GLY6        0.0000 
     41 CA        100.7300  -17.1100  266.3800 C.3       6 GLY6        0.0000 
     42 CA        102.3600  -14.2800  265.6000 C.3       6 GLY6        0.0000 
     43 CA        101.1000  -13.5000  265.8000 C.3       6 GLY6        0.0000 
     44 CA        101.8700  -15.3200  266.5600 C.3       6 GLY6        0.0000 
     45 CA        101.3800  -16.3700  267.5100 C.3       6 GLY6        0.0000 
     46 CA        100.1100  -15.5800  267.7200 C.3       6 GLY6        0.0000 
     47 CA         98.3500  -15.8400  268.8800 C.3       6 GLY6        0.0000 
     48 CA        102.5100  -14.5800  267.6900 C.3       6 GLY6        0.0000 
     49 CA         98.7200  -12.2300  268.2900 C.3       6 GLY6        0.0000 
     50 CA         97.4500  -11.4500  268.5000 C.3       6 GLY6        0.0000 
     51 CA        100.7500  -14.8400  268.8500 C.3       6 GLY6        0.0000 
     52 CA         99.0000  -15.1000  270.0100 C.3       6 GLY6        0.0000 
     53 CA         97.7300  -14.3200  270.2100 C.3       6 GLY6        0.0000 
     54 CA         99.3600  -11.4900  269.4300 C.3       6 GLY6        0.0000 
     55 CA         96.8300   -9.9200  269.8300 C.3       6 GLY6        0.0000 
     56 CA         97.6000  -11.7500  270.5900 C.3       6 GLY6        0.0000 
     57 CA         98.3700  -13.5800  271.3500 C.3       6 GLY6        0.0000 
     58 CA        101.2600  -11.5300  270.3600 C.3       6 GLY6        0.0000 
     59 CA        100.0000  -10.7500  270.5700 C.3       6 GLY6        0.0000 
     60 CA         97.7500  -12.0500  272.6800 C.3       6 GLY6        0.0000 
     61 CA        100.1500  -11.0500  272.6600 C.3       6 GLY6        0.0000 
     62 DU         98.9200  -10.5900  263.1500 H         7 CUB7        0.0000 
     63 DU         98.4200  -11.6300  264.1000 H         7 CUB7        0.0000 
     64 DU        100.4600  -14.2400  264.6600 H         7 CUB7        0.0000 
     65 DU         99.1900  -13.4600  264.8600 H         7 CUB7        0.0000 
     66 DU         97.9300  -12.6700  265.0600 H         7 CUB7        0.0000 
     67 DU         99.8300  -12.7100  266.0000 H         7 CUB7        0.0000 
     68 DU         98.5700  -11.9300  266.2000 H         7 CUB7        0.0000 
     69 DU        100.6100  -14.5400  266.7600 H         7 CUB7        0.0000 
     70 DU         99.3400  -13.7600  266.9600 H         7 CUB7        0.0000 
     71 DU         98.0800  -12.9700  267.1600 H         7 CUB7        0.0000 
     72 DU        101.2500  -13.8000  267.8900 H         7 CUB7        0.0000 
     73 DU         99.9800  -13.0200  268.0900 H         7 CUB7        0.0000 
     74 DU         99.4900  -14.0600  269.0500 H         7 CUB7        0.0000 
     75 DU         98.2200  -13.2700  269.2500 H         7 CUB7        0.0000 
     76 DU        100.6200  -12.2700  269.2300 H         7 CUB7        0.0000 
     77 DU        100.1300  -13.3200  270.1900 H         7 CUB7        0.0000 
     78 DU         98.8700  -12.5300  270.3900 H         7 CUB7        0.0000 
     79 DU         99.0100  -12.8300  272.4800 H         7 CUB7        0.0000 
@<TRIPOS>BOND
@<TRIPOS>SUBSTRUCTURE
     1 SER1        1 GROUP   
     2 ALA2        2 GROUP   
     3 ASP3       12 GROUP   
     4 LYS4       19 GROUP   
     5 PHE5       20 GROUP   
     6 GLY6       35 GROUP   
     7 CUB7       62 GROUP   
@<TRIPOS>SET

