#    Name: 5ypk_8_HIW
#    Modification time : Fri May 22 19:15:29 2020

@<TRIPOS>MOLECULE
5ypk_8_HIW
   21    21     1     0     0
SMALL
NO_CHARGES


@<TRIPOS>ATOM
      1 O31        64.4010   -9.7360  238.4550           1 HIW303      0.0000 
      2 C31        63.1900  -10.0430  238.4900           1 HIW303      0.0000 
      3 O32        62.4960   -9.6810  239.4650           1 HIW303      0.0000 
      4 C3         62.6130  -10.7030  237.4830           1 HIW303      0.0000 
      5 N4         61.2870  -10.7090  237.3270           1 HIW303      0.0000 
      6 C2         63.2560  -11.4670  236.4970           1 HIW303      0.0000 
      7 C1         62.1510  -12.3920  236.0530           1 HIW303      0.0000 
      8 C5         60.9420  -11.4960  236.1260           1 HIW303      0.0000 
      9 C6         60.8250  -10.5470  234.9340           1 HIW303      0.0000 
     10 C7         60.3560   -9.2010  235.4830           1 HIW303      0.0000 
     11 O71        61.0810   -8.2060  235.2750           1 HIW303      0.0000 
     12 O72        59.2750   -9.1980  236.1070           1 HIW303      0.0000 
     13 C61        59.7530  -11.0350  233.9480           1 HIW303      0.0000 
     14 O62        58.5480  -11.3220  234.6660           1 HIW303      0.0000 
     15 C62        60.2070  -12.2810  233.1800           1 HIW303      0.0000 
     16 S21        64.6330  -12.4590  237.1880           1 HIW303      0.0000 
     17 C22        66.1390  -11.5770  236.6400           1 HIW303      0.0000 
     18 C23        67.3940  -12.2630  237.1880           1 HIW303      0.0000 
     19 N24        68.4760  -11.2920  237.3970           1 HIW303      0.0000 
     20 C25        69.5740  -11.6160  238.0950           1 HIW303      0.0000 
     21 N26        70.5440  -10.7240  238.2710           1 HIW303      0.0000 
@<TRIPOS>BOND
     1    1    2 du   
     2    2    3 du   
     3    2    4 du   
     4    4    5 du   
     5    4    6 du   
     6    5    8 du   
     7    6    7 du   
     8    6   16 du   
     9    7    8 du   
    10    8    9 du   
    11    9   10 du   
    12    9   13 du   
    13   10   11 du   
    14   10   12 du   
    15   13   14 du   
    16   13   15 du   
    17   16   17 du   
    18   17   18 du   
    19   18   19 du   
    20   19   20 du   
    21   20   21 du   
@<TRIPOS>SUBSTRUCTURE
     1 HIW303      1 GROUP   
@<TRIPOS>SET

