#    Name: 6r4s_1_ATP
#    Modification time : Fri May 22 19:29:09 2020

@<TRIPOS>MOLECULE
6r4s_1_ATP
   43    45     1     0     1
SMALL
NO_CHARGES


@<TRIPOS>ATOM
      1 PG         22.5390   10.2670   27.9110 P.3       1 ATP504      0.0000 
      2 O1G        22.1380   11.4160   28.7480 O.co2     1 ATP504      0.0000 
      3 O2G        24.0680   10.1170   27.7650 O.co2     1 ATP504      0.0000 
      4 O3G        21.9980   10.3660   26.4890 O.co2     1 ATP504      0.0000 
      5 PB         22.7420    7.5450   28.8220 P.3       1 ATP504      0.0000 
      6 O1B        21.7640    6.4500   28.8880 O.co2     1 ATP504      0.0000 
      7 O2B        23.8590    7.4540   27.7700 O.co2     1 ATP504      0.0000 
      8 O3B        21.9910    8.9250   28.5690 O.3       1 ATP504      0.0000 
      9 PA         24.7890    8.4210   30.7570 P.3       1 ATP504      0.0000 
     10 O1A        24.5230    9.4800   31.7600 O.co2     1 ATP504      0.0000 
     11 O2A        25.5880    8.8710   29.5180 O.co2     1 ATP504      0.0000 
     12 O3A        23.4340    7.7610   30.2420 O.3       1 ATP504      0.0000 
     13 O5'        25.5710    7.1540   31.3450 O.3       1 ATP504      0.0000 
     14 C5'        25.5230    5.9300   30.5690 C.3       1 ATP504      0.0000 
     15 C4'        25.1280    4.7420   31.3970 C.3       1 ATP504      0.0000 
     16 O4'        25.6230    4.8630   32.7370 O.3       1 ATP504      0.0000 
     17 C3'        23.6250    4.5750   31.5620 C.3       1 ATP504      0.0000 
     18 O3'        23.0420    3.8580   30.4780 O.3       1 ATP504      0.0000 
     19 C2'        23.4960    3.8250   32.8950 C.3       1 ATP504      0.0000 
     20 O2'        23.2040    2.4540   32.6670 O.3       1 ATP504      0.0000 
     21 C1'        24.8830    3.9620   33.5320 C.3       1 ATP504      0.0000 
     22 N9         24.8070    4.4980   34.8780 N.pl3     1 ATP504      0.0000 
     23 C8         24.5760    5.8110   35.2020 C.2       1 ATP504      0.0000 
     24 N7         24.4620    6.0330   36.4890 N.2       1 ATP504      0.0000 
     25 C5         24.6350    4.7790   37.0540 C.ar      1 ATP504      0.0000 
     26 C6         24.6030    4.3320   38.3870 C.ar      1 ATP504      0.0000 
     27 N6         24.3860    5.1320   39.4330 N.pl3     1 ATP504      0.0000 
     28 N1         24.7850    3.0130   38.6120 N.ar      1 ATP504      0.0000 
     29 C2         24.9830    2.2020   37.5640 C.ar      1 ATP504      0.0000 
     30 N3         25.0340    2.5130   36.2640 N.ar      1 ATP504      0.0000 
     31 C4         24.8510    3.8230   36.0790 C.ar      1 ATP504      0.0000 
     32 H5'1       26.4980    5.7240   30.1290 H         1 ATP504      0.0000 
     33 H5'2       24.8030    6.0280   29.7570 H         1 ATP504      0.0000 
     34 H4'        25.6190    3.8440   31.0260 H         1 ATP504      0.0000 
     35 H3'        23.1170    5.5380   31.5850 H         1 ATP504      0.0000 
     36 HO3'       23.6070    3.0570   30.3160 H         1 ATP504      0.0000 
     37 H2'        22.7300    4.3070   33.5010 H         1 ATP504      0.0000 
     38 HO2'       22.8140    2.1030   33.5100 H         1 ATP504      0.0000 
     39 H1'        25.4200    3.0140   33.5550 H         1 ATP504      0.0000 
     40 H8         24.4980    6.5850   34.4400 H         1 ATP504      0.0000 
     41 HN61       24.3710    4.7670   40.3800 H         1 ATP504      0.0000 
     42 HN62       24.2290    6.1270   39.3100 H         1 ATP504      0.0000 
     43 H2         25.1180    1.1530   37.8240 H         1 ATP504      0.0000 
@<TRIPOS>BOND
     1    1    2 ar   
     2    1    3 ar   
     3    1    4 ar   
     4    1    8 1    
     5    5    6 ar   
     6    5    7 ar   
     7    5    8 1    
     8    5   12 1    
     9    9   10 ar   
    10    9   11 ar   
    11    9   12 1    
    12    9   13 1    
    13   13   14 1    
    14   14   32 1    
    15   14   33 1    
    16   14   15 1    
    17   15   34 1    
    18   15   16 1    
    19   15   17 1    
    20   16   21 1    
    21   17   35 1    
    22   17   18 1    
    23   17   19 1    
    24   18   36 1    
    25   19   37 1    
    26   19   20 1    
    27   19   21 1    
    28   20   38 1    
    29   21   39 1    
    30   21   22 1    
    31   22   31 1    
    32   22   23 1    
    33   23   24 2    
    34   23   40 1    
    35   24   25 1    
    36   25   26 ar   
    37   25   31 ar   
    38   26   27 1    
    39   26   28 ar   
    40   27   41 1    
    41   27   42 1    
    42   28   29 ar   
    43   29   30 ar   
    44   29   43 1    
    45   30   31 ar   
@<TRIPOS>SUBSTRUCTURE
     1 ATP504      1 GROUP   
@<TRIPOS>SET
ATOM$ORANGE STATIC     ATOMS   COLORGROUP SYSTEM 
20 14 14 15 15 17 17 19 19 21 21 23 23 25 25 26 26 29 \
29 31 31 

