#    Name: 6r4s_1_ATP_CAVITY_N1_6
#    Modification time : Fri May 22 19:29:10 2020

@<TRIPOS>MOLECULE
6r4s_1_ATP_CAVITY_N1_6
   76     0     7     0     0
SMALL
NO_CHARGES


@<TRIPOS>ATOM
      1 OG         20.2800    9.8900   31.3500 O.3       1 SER1        0.0000 
      2 OG         21.3500    9.2300   28.6200 O.3       1 SER1        0.0000 
      3 OG         23.3900    6.5800   28.4100 O.3       1 SER1        0.0000 
      4 OG         22.0000   10.4500   30.2300 O.3       1 SER1        0.0000 
      5 N          23.4100    2.8700   32.6200 N.am      2 ALA2        0.0000 
      6 O          23.1900    3.7000   30.6800 O.2       2 ALA2        0.0000 
      7 N          24.8200    2.9300   34.8100 N.am      2 ALA2        0.0000 
      8 N          24.6000    3.7600   32.8700 N.am      2 ALA2        0.0000 
      9 N          25.1300    3.4300   31.5000 N.am      2 ALA2        0.0000 
     10 OD1        21.6000    4.6900   34.7700 O.co2     3 ASP3        0.0000 
     11 OD1        22.1300    4.3600   33.4100 O.co2     3 ASP3        0.0000 
     12 OD1        20.3900    7.5100   30.3200 O.co2     3 ASP3        0.0000 
     13 OD1        21.9000    5.1900   31.4700 O.co2     3 ASP3        0.0000 
     14 OD1        22.6600    4.0300   32.0500 O.co2     3 ASP3        0.0000 
     15 OD1        20.5100    9.0600   33.2900 O.co2     3 ASP3        0.0000 
     16 OD1        22.7800    5.5800   35.0200 O.co2     3 ASP3        0.0000 
     17 OD1        21.0400    8.7300   31.9300 O.co2     3 ASP3        0.0000 
     18 OD1        23.3100    5.2500   33.6500 O.co2     3 ASP3        0.0000 
     19 OD1        21.5700    8.4000   30.5600 O.co2     3 ASP3        0.0000 
     20 OD1        22.3300    7.2400   31.1400 O.co2     3 ASP3        0.0000 
     21 OD1        23.0800    6.0800   31.7200 O.co2     3 ASP3        0.0000 
     22 OD1        23.8400    4.9200   32.2900 O.co2     3 ASP3        0.0000 
     23 OD1        22.1000    8.0700   29.2000 O.co2     3 ASP3        0.0000 
     24 OD1        22.8600    6.9100   29.7800 O.co2     3 ASP3        0.0000 
     25 OD1        22.6300    7.7400   27.8400 O.co2     3 ASP3        0.0000 
     26 OD1        20.1800   12.2700   32.3800 O.co2     3 ASP3        0.0000 
     27 OD1        20.9300   11.1100   32.9600 O.co2     3 ASP3        0.0000 
     28 OD1        21.6900    9.9500   33.5300 O.co2     3 ASP3        0.0000 
     29 OD1        21.4600   10.7800   31.6000 O.co2     3 ASP3        0.0000 
     30 OD1        22.9800    8.4600   32.7500 O.co2     3 ASP3        0.0000 
     31 OD1        23.7300    7.3000   33.3200 O.co2     3 ASP3        0.0000 
     32 OD1        22.5300   10.1200   28.8700 O.co2     3 ASP3        0.0000 
     33 OD1        23.2800    8.9600   29.4400 O.co2     3 ASP3        0.0000 
     34 OD1        24.0400    7.8000   30.0200 O.co2     3 ASP3        0.0000 
     35 OD1        24.8000    6.6400   30.6000 O.co2     3 ASP3        0.0000 
     36 OD1        22.6500   11.6700   31.8400 O.co2     3 ASP3        0.0000 
     37 OD1        23.4000   10.5100   32.4200 O.co2     3 ASP3        0.0000 
     38 OD1        24.1600    9.3500   32.9900 O.co2     3 ASP3        0.0000 
     39 OD1        23.1800   11.3400   30.4800 O.co2     3 ASP3        0.0000 
     40 OD1        23.9300   10.1800   31.0500 O.co2     3 ASP3        0.0000 
     41 OD1        24.6900    9.0200   31.6300 O.co2     3 ASP3        0.0000 
     42 OD1        24.4600    9.8500   29.6900 O.co2     3 ASP3        0.0000 
     43 OD1        25.2200    8.6900   30.2600 O.co2     3 ASP3        0.0000 
     44 OD1        25.9800    7.5300   30.8400 O.co2     3 ASP3        0.0000 
     45 OD1        25.8700    9.9100   31.8700 O.co2     3 ASP3        0.0000 
     46 OD1        27.9200    7.2600   31.6600 O.co2     3 ASP3        0.0000 
     47 NZ         22.3500    3.5300   35.3500 N.4       4 LYS4        0.0000 
     48 NZ         22.8800    3.2000   33.9900 N.4       4 LYS4        0.0000 
     49 NZ         23.6400    2.0400   34.5600 N.4       4 LYS4        0.0000 
     50 NZ         26.7300    6.3700   31.4200 N.4       4 LYS4        0.0000 
     51 CZ         19.7500   10.2200   32.7100 C.ar      5 PHE5        0.0000 
     52 CZ         24.1500    5.4200   28.9900 C.ar      5 PHE5        0.0000 
     53 CZ         26.0000    3.8200   35.0500 C.ar      5 PHE5        0.0000 
     54 CZ         25.7800    4.6500   33.1100 C.ar      5 PHE5        0.0000 
     55 CZ         26.3100    4.3200   31.7500 C.ar      5 PHE5        0.0000 
     56 CZ         26.9600    5.5400   33.3600 C.ar      5 PHE5        0.0000 
     57 CZ         27.4900    5.2100   31.9900 C.ar      5 PHE5        0.0000 
     58 CA         20.9200    7.1800   28.9600 C.3       6 GLY6        0.0000 
     59 CA         21.6800    6.0200   29.5300 C.3       6 GLY6        0.0000 
     60 CA         22.4300    4.8600   30.1100 C.3       6 GLY6        0.0000 
     61 CA         24.3700    4.5900   30.9300 C.3       6 GLY6        0.0000 
     62 CA         21.8800    8.9000   27.2600 C.3       6 GLY6        0.0000 
     63 DU         23.5300    4.4200   35.5900 H         7 CUB7        0.0000 
     64 DU         24.2900    3.2600   36.1700 H         7 CUB7        0.0000 
     65 DU         24.0600    4.0900   34.2300 H         7 CUB7        0.0000 
     66 DU         23.6100    5.7500   30.3500 H         7 CUB7        0.0000 
     67 DU         22.2200    9.6200   32.1700 H         7 CUB7        0.0000 
     68 DU         24.4900    6.1400   33.9000 H         7 CUB7        0.0000 
     69 DU         25.2500    4.9800   34.4700 H         7 CUB7        0.0000 
     70 DU         22.7500    9.2900   30.8100 H         7 CUB7        0.0000 
     71 DU         23.5100    8.1300   31.3800 H         7 CUB7        0.0000 
     72 DU         24.2600    6.9700   31.9600 H         7 CUB7        0.0000 
     73 DU         25.0200    5.8100   32.5400 H         7 CUB7        0.0000 
     74 DU         25.5500    5.4800   31.1700 H         7 CUB7        0.0000 
     75 DU         25.4500    7.8600   32.2000 H         7 CUB7        0.0000 
     76 DU         26.2000    6.7000   32.7800 H         7 CUB7        0.0000 
@<TRIPOS>BOND
@<TRIPOS>SUBSTRUCTURE
     1 SER1        1 GROUP   
     2 ALA2        5 GROUP   
     3 ASP3       10 GROUP   
     4 LYS4       47 GROUP   
     5 PHE5       51 GROUP   
     6 GLY6       58 GROUP   
     7 CUB7       63 GROUP   
@<TRIPOS>SET

