#    Name: 6sls_2_FAD
#    Modification time : Fri May 22 19:26:21 2020

@<TRIPOS>MOLECULE
6sls_2_FAD
   53    58     1     0     1
SMALL
NO_CHARGES


@<TRIPOS>ATOM
      1 PA        -20.5750  -90.8990  -28.7070 P.3       1 FAD604      0.0000 
      2 O1A       -19.5080  -91.6250  -27.9470 O.co2     1 FAD604      0.0000 
      3 O2A       -20.9290  -91.3360  -30.0930 O.co2     1 FAD604      0.0000 
      4 O5B       -21.8930  -90.8730  -27.7970 O.3       1 FAD604      0.0000 
      5 C5B       -23.1940  -90.6220  -28.3910 C.3       1 FAD604      0.0000 
      6 C4B       -24.2380  -90.8200  -27.3200 C.3       1 FAD604      0.0000 
      7 O4B       -25.5400  -90.4340  -27.8280 O.3       1 FAD604      0.0000 
      8 C3B       -24.4030  -92.2600  -26.8130 C.3       1 FAD604      0.0000 
      9 O3B       -24.4410  -92.2690  -25.3940 O.3       1 FAD604      0.0000 
     10 C2B       -25.7660  -92.6950  -27.3570 C.3       1 FAD604      0.0000 
     11 O2B       -26.4310  -93.5810  -26.4870 O.3       1 FAD604      0.0000 
     12 C1B       -26.4930  -91.3610  -27.3710 C.3       1 FAD604      0.0000 
     13 N9A       -27.6450  -91.2630  -28.2230 N.pl3     1 FAD604      0.0000 
     14 C8A       -27.6750  -91.0260  -29.5830 C.2       1 FAD604      0.0000 
     15 N7A       -28.9000  -90.9380  -30.0460 N.2       1 FAD604      0.0000 
     16 C5A       -29.7110  -91.1310  -28.9280 C.ar      1 FAD604      0.0000 
     17 C6A       -31.1090  -91.1630  -28.7550 C.ar      1 FAD604      0.0000 
     18 N6A       -31.9750  -90.9750  -29.7450 N.pl3     1 FAD604      0.0000 
     19 N1A       -31.5820  -91.3620  -27.5020 N.ar      1 FAD604      0.0000 
     20 C2A       -30.7070  -91.5500  -26.5060 C.ar      1 FAD604      0.0000 
     21 N3A       -29.3770  -91.5430  -26.5480 N.ar      1 FAD604      0.0000 
     22 C4A       -28.9420  -91.3240  -27.8010 C.ar      1 FAD604      0.0000 
     23 N1        -10.3780  -88.0520  -28.7910 N.2       1 FAD604      0.0000 
     24 C2         -9.2220  -87.9280  -28.1080 C.2       1 FAD604      0.0000 
     25 O2         -9.0790  -87.0540  -27.2540 O.2       1 FAD604      0.0000 
     26 N3         -8.1790  -88.7860  -28.3000 N.am      1 FAD604      0.0000 
     27 C4         -8.2180  -89.7890  -29.2390 C.2       1 FAD604      0.0000 
     28 O4         -7.2670  -90.5510  -29.3510 O.2       1 FAD604      0.0000 
     29 C4X        -9.3900  -89.9080  -30.0190 C.2       1 FAD604      0.0000 
     30 N5         -9.4410  -90.8480  -30.9310 N.2       1 FAD604      0.0000 
     31 C5X       -10.5680  -90.9130  -31.7040 C.ar      1 FAD604      0.0000 
     32 C6        -10.6110  -91.8760  -32.7280 C.ar      1 FAD604      0.0000 
     33 C7        -11.6950  -91.9850  -33.5680 C.ar      1 FAD604      0.0000 
     34 C7M       -11.6930  -93.0150  -34.6670 C.3       1 FAD604      0.0000 
     35 C8        -12.8230  -91.1460  -33.3590 C.ar      1 FAD604      0.0000 
     36 C8M       -14.0470  -91.2560  -34.2330 C.3       1 FAD604      0.0000 
     37 C9        -12.8080  -90.2250  -32.3280 C.ar      1 FAD604      0.0000 
     38 C9A       -11.6820  -90.0650  -31.4990 C.ar      1 FAD604      0.0000 
     39 N10       -11.6080  -89.1010  -30.4850 N.pl3     1 FAD604      0.0000 
     40 C10       -10.4550  -88.9790  -29.7240 C.2       1 FAD604      0.0000 
     41 C1'       -12.7680  -88.2360  -30.1700 C.3       1 FAD604      0.0000 
     42 C2'       -13.4810  -88.7490  -28.8850 C.3       1 FAD604      0.0000 
     43 O2'       -13.6760  -90.1720  -28.9730 O.3       1 FAD604      0.0000 
     44 C3'       -14.8480  -88.1400  -28.5630 C.3       1 FAD604      0.0000 
     45 O3'       -14.7030  -86.7450  -28.4120 O.3       1 FAD604      0.0000 
     46 C4'       -15.5120  -88.7340  -27.3110 C.3       1 FAD604      0.0000 
     47 O4'       -14.7530  -89.8310  -26.7890 O.3       1 FAD604      0.0000 
     48 C5'       -16.8880  -89.3010  -27.5620 C.3       1 FAD604      0.0000 
     49 O5'       -17.7420  -88.3880  -28.2830 O.3       1 FAD604      0.0000 
     50 P         -19.3110  -88.2960  -27.9210 P.3       1 FAD604      0.0000 
     51 O1P       -19.4400  -88.6810  -26.4890 O.co2     1 FAD604      0.0000 
     52 O2P       -19.6860  -86.9500  -28.4490 O.co2     1 FAD604      0.0000 
     53 O3P       -20.1320  -89.3520  -28.8330 O.3       1 FAD604      0.0000 
@<TRIPOS>BOND
     1    1    2 ar   
     2    1    3 ar   
     3    1    4 1    
     4    1   53 1    
     5    4    5 1    
     6    5    6 1    
     7    6    7 1    
     8    6    8 1    
     9    7   12 1    
    10    8    9 1    
    11    8   10 1    
    12   10   11 1    
    13   10   12 1    
    14   12   13 1    
    15   13   14 1    
    16   13   22 1    
    17   14   15 2    
    18   15   16 1    
    19   16   17 ar   
    20   16   22 ar   
    21   17   18 1    
    22   17   19 ar   
    23   19   20 ar   
    24   20   21 ar   
    25   21   22 ar   
    26   23   24 1    
    27   23   40 2    
    28   24   25 2    
    29   24   26 am   
    30   26   27 am   
    31   27   28 2    
    32   27   29 1    
    33   29   30 2    
    34   29   40 1    
    35   30   31 1    
    36   31   32 ar   
    37   31   38 ar   
    38   32   33 ar   
    39   33   34 1    
    40   33   35 ar   
    41   35   36 1    
    42   35   37 ar   
    43   37   38 ar   
    44   38   39 1    
    45   39   40 1    
    46   39   41 1    
    47   41   42 1    
    48   42   43 1    
    49   42   44 1    
    50   44   45 1    
    51   44   46 1    
    52   46   47 1    
    53   46   48 1    
    54   48   49 1    
    55   49   50 1    
    56   50   51 ar   
    57   50   52 ar   
    58   50   53 1    
@<TRIPOS>SUBSTRUCTURE
     1 FAD604      1 GROUP   
@<TRIPOS>SET
ATOM$ORANGE STATIC     ATOMS   COLORGROUP SYSTEM 
54 5 5 6 6 8 8 10 10 12 12 14 14 16 16 17 17 20 \
20 22 22 24 24 27 27 29 29 31 31 32 32 33 33 34 34 35 \
35 36 36 37 37 38 38 40 40 41 41 42 42 44 44 46 46 48 \
48 

