#    Name: 6sls_1_FAD
#    Modification time : Fri May 22 19:26:15 2020

@<TRIPOS>MOLECULE
6sls_1_FAD
   53    58     1     0     1
SMALL
NO_CHARGES


@<TRIPOS>ATOM
      1 PA         12.8600  -35.9900  -31.3450 P.3       1 FAD606      0.0000 
      2 O1A        12.9250  -35.8480  -29.8540 O.co2     1 FAD606      0.0000 
      3 O2A        12.2140  -34.9030  -32.1400 O.co2     1 FAD606      0.0000 
      4 O5B        14.3330  -36.2940  -31.9270 O.3       1 FAD606      0.0000 
      5 C5B        14.6980  -35.8440  -33.2650 C.3       1 FAD606      0.0000 
      6 C4B        16.1990  -35.8850  -33.4310 C.3       1 FAD606      0.0000 
      7 O4B        16.5360  -35.8220  -34.8460 O.3       1 FAD606      0.0000 
      8 C3B        16.9990  -34.7470  -32.7690 C.3       1 FAD606      0.0000 
      9 O3B        18.1330  -35.2990  -32.1100 O.3       1 FAD606      0.0000 
     10 C2B        17.3960  -33.8690  -33.9630 C.3       1 FAD606      0.0000 
     11 O2B        18.6020  -33.1440  -33.8920 O.3       1 FAD606      0.0000 
     12 C1B        17.6240  -34.9470  -35.0050 C.3       1 FAD606      0.0000 
     13 N9A        17.6290  -34.4360  -36.3510 N.pl3     1 FAD606      0.0000 
     14 C8A        16.5760  -33.9100  -37.0370 C.2       1 FAD606      0.0000 
     15 N7A        16.9010  -33.5340  -38.2470 N.2       1 FAD606      0.0000 
     16 C5A        18.2510  -33.8250  -38.3520 C.ar      1 FAD606      0.0000 
     17 C6A        19.1780  -33.6490  -39.3910 C.ar      1 FAD606      0.0000 
     18 N6A        18.8760  -33.1160  -40.5710 N.pl3     1 FAD606      0.0000 
     19 N1A        20.4460  -34.0440  -39.1490 N.ar      1 FAD606      0.0000 
     20 C2A        20.7410  -34.5850  -37.9570 C.ar      1 FAD606      0.0000 
     21 N3A        19.9540  -34.7840  -36.9070 N.ar      1 FAD606      0.0000 
     22 C4A        18.7090  -34.3790  -37.1810 C.ar      1 FAD606      0.0000 
     23 N1          5.9510  -40.3850  -24.6970 N.2       1 FAD606      0.0000 
     24 C2          5.7710  -40.9900  -23.4990 C.2       1 FAD606      0.0000 
     25 O2          6.1310  -42.1670  -23.2980 O.2       1 FAD606      0.0000 
     26 N3          5.1850  -40.3430  -22.4720 N.am      1 FAD606      0.0000 
     27 C4          4.7090  -39.0590  -22.5720 C.2       1 FAD606      0.0000 
     28 O4          4.2180  -38.5260  -21.5800 O.2       1 FAD606      0.0000 
     29 C4X         4.8410  -38.4050  -23.8230 C.2       1 FAD606      0.0000 
     30 N5          4.3840  -37.1850  -23.9680 N.2       1 FAD606      0.0000 
     31 C5X         4.4810  -36.6050  -25.2050 C.ar      1 FAD606      0.0000 
     32 C6          3.9460  -35.3140  -25.3830 C.ar      1 FAD606      0.0000 
     33 C7          3.9890  -34.6690  -26.6030 C.ar      1 FAD606      0.0000 
     34 C7M         3.3840  -33.2940  -26.7600 C.3       1 FAD606      0.0000 
     35 C8          4.6320  -35.3030  -27.6930 C.ar      1 FAD606      0.0000 
     36 C8M         4.7190  -34.6200  -29.0340 C.3       1 FAD606      0.0000 
     37 C9          5.1940  -36.5600  -27.5200 C.ar      1 FAD606      0.0000 
     38 C9A         5.1110  -37.2430  -26.2930 C.ar      1 FAD606      0.0000 
     39 N10         5.6140  -38.5280  -26.0890 N.pl3     1 FAD606      0.0000 
     40 C10         5.4870  -39.1610  -24.8630 C.2       1 FAD606      0.0000 
     41 C1'         6.3340  -39.2320  -27.1590 C.3       1 FAD606      0.0000 
     42 C2'         7.8260  -39.1760  -26.8610 C.3       1 FAD606      0.0000 
     43 O2'         8.2280  -37.8500  -26.5310 O.3       1 FAD606      0.0000 
     44 C3'         8.7110  -39.5830  -28.0260 C.3       1 FAD606      0.0000 
     45 O3'         8.4190  -40.9330  -28.4380 O.3       1 FAD606      0.0000 
     46 C4'        10.1520  -39.3830  -27.5650 C.3       1 FAD606      0.0000 
     47 O4'        10.2850  -38.0620  -27.0280 O.3       1 FAD606      0.0000 
     48 C5'        11.1450  -39.6060  -28.6800 C.3       1 FAD606      0.0000 
     49 O5'        11.0970  -38.6030  -29.7330 O.3       1 FAD606      0.0000 
     50 P          12.0900  -38.8220  -30.9910 P.3       1 FAD606      0.0000 
     51 O1P        13.4280  -39.0880  -30.3950 O.co2     1 FAD606      0.0000 
     52 O2P        11.4800  -39.7900  -31.9650 O.co2     1 FAD606      0.0000 
     53 O3P        12.1170  -37.3650  -31.6930 O.3       1 FAD606      0.0000 
@<TRIPOS>BOND
     1    1    2 ar   
     2    1    3 ar   
     3    1    4 1    
     4    1   53 1    
     5    4    5 1    
     6    5    6 1    
     7    6    7 1    
     8    6    8 1    
     9    7   12 1    
    10    8    9 1    
    11    8   10 1    
    12   10   11 1    
    13   10   12 1    
    14   12   13 1    
    15   13   14 1    
    16   13   22 1    
    17   14   15 2    
    18   15   16 1    
    19   16   17 ar   
    20   16   22 ar   
    21   17   18 1    
    22   17   19 ar   
    23   19   20 ar   
    24   20   21 ar   
    25   21   22 ar   
    26   23   24 1    
    27   23   40 2    
    28   24   25 2    
    29   24   26 am   
    30   26   27 am   
    31   27   28 2    
    32   27   29 1    
    33   29   30 2    
    34   29   40 1    
    35   30   31 1    
    36   31   32 ar   
    37   31   38 ar   
    38   32   33 ar   
    39   33   34 1    
    40   33   35 ar   
    41   35   36 1    
    42   35   37 ar   
    43   37   38 ar   
    44   38   39 1    
    45   39   40 1    
    46   39   41 1    
    47   41   42 1    
    48   42   43 1    
    49   42   44 1    
    50   44   45 1    
    51   44   46 1    
    52   46   47 1    
    53   46   48 1    
    54   48   49 1    
    55   49   50 1    
    56   50   51 ar   
    57   50   52 ar   
    58   50   53 1    
@<TRIPOS>SUBSTRUCTURE
     1 FAD606      1 GROUP   
@<TRIPOS>SET
ATOM$ORANGE STATIC     ATOMS   COLORGROUP SYSTEM 
54 5 5 6 6 8 8 10 10 12 12 14 14 16 16 17 17 20 \
20 22 22 24 24 27 27 29 29 31 31 32 32 33 33 34 34 35 \
35 36 36 37 37 38 38 40 40 41 41 42 42 44 44 46 46 48 \
48 

