#    Name: 6iro_1_ADP
#    Modification time : Fri May 22 19:32:02 2020

@<TRIPOS>MOLECULE
6iro_1_ADP
   27    29     1     0     1
SMALL
NO_CHARGES


@<TRIPOS>ATOM
      1 PB         87.4840   99.5540   98.3380 P.3       1 ADP2000     0.0000 
      2 O1B        88.6790  100.4620   98.2020 O.co2     1 ADP2000     0.0000 
      3 O2B        87.8220   98.0910   98.4630 O.co2     1 ADP2000     0.0000 
      4 O3B        86.4400  100.0570   99.3020 O.co2     1 ADP2000     0.0000 
      5 PA         85.5030   98.7050   96.5660 P.3       1 ADP2000     0.0000 
      6 O1A        85.9780   97.2870   96.3700 O.co2     1 ADP2000     0.0000 
      7 O2A        84.4060   99.0160   97.5530 O.co2     1 ADP2000     0.0000 
      8 O3A        86.7690   99.6300   96.9050 O.3       1 ADP2000     0.0000 
      9 O5'        85.0710   99.3090   95.1420 O.3       1 ADP2000     0.0000 
     10 C5'        83.7000   99.5610   94.8600 C.3       1 ADP2000     0.0000 
     11 C4'        83.4910   99.5440   93.3540 C.3       1 ADP2000     0.0000 
     12 O4'        82.9400   98.2900   92.9400 O.3       1 ADP2000     0.0000 
     13 C3'        82.5090  100.6180   92.9250 C.3       1 ADP2000     0.0000 
     14 O3'        83.1970  101.6510   92.2160 O.3       1 ADP2000     0.0000 
     15 C2'        81.5140   99.9340   92.0110 C.3       1 ADP2000     0.0000 
     16 O2'        81.5200  100.5420   90.7170 O.3       1 ADP2000     0.0000 
     17 C1'        81.9730   98.4900   91.9060 C.3       1 ADP2000     0.0000 
     18 N9         80.7990   97.6040   92.0850 N.pl3     1 ADP2000     0.0000 
     19 C8         80.4760   96.9240   93.1990 C.2       1 ADP2000     0.0000 
     20 N7         79.3350   96.2110   93.0190 N.2       1 ADP2000     0.0000 
     21 C5         78.9070   96.4360   91.7650 C.ar      1 ADP2000     0.0000 
     22 C6         77.7680   96.0000   90.9250 C.ar      1 ADP2000     0.0000 
     23 N6         76.8200   95.1540   91.3960 N.pl3     1 ADP2000     0.0000 
     24 N1         77.7000   96.4750   89.6650 N.ar      1 ADP2000     0.0000 
     25 C2         78.6260   97.3160   89.1730 C.ar      1 ADP2000     0.0000 
     26 N3         79.6840   97.7510   89.8770 N.ar      1 ADP2000     0.0000 
     27 C4         79.8770   97.3550   91.1550 C.ar      1 ADP2000     0.0000 
@<TRIPOS>BOND
     1    1    2 ar   
     2    1    3 ar   
     3    1    4 ar   
     4    1    8 1    
     5    5    6 ar   
     6    5    7 ar   
     7    5    8 1    
     8    5    9 1    
     9    9   10 1    
    10   10   11 1    
    11   11   12 1    
    12   11   13 1    
    13   12   17 1    
    14   13   14 1    
    15   13   15 1    
    16   15   16 1    
    17   15   17 1    
    18   17   18 1    
    19   18   19 1    
    20   18   27 1    
    21   19   20 2    
    22   20   21 1    
    23   21   22 ar   
    24   21   27 ar   
    25   22   23 1    
    26   22   24 ar   
    27   24   25 ar   
    28   25   26 ar   
    29   26   27 ar   
@<TRIPOS>SUBSTRUCTURE
     1 ADP2000     1 GROUP   
@<TRIPOS>SET
ATOM$ORANGE STATIC     ATOMS   COLORGROUP SYSTEM 
20 10 10 11 11 13 13 15 15 17 17 19 19 21 21 22 22 25 \
25 27 27 

