#    Name: 6iro_1_ADP_CAVITY_N1_12
#    Modification time : Fri May 22 19:32:03 2020

@<TRIPOS>MOLECULE
6iro_1_ADP_CAVITY_N1_12
   77     0     7     0     0
SMALL
NO_CHARGES


@<TRIPOS>ATOM
      1 OG         84.1900  103.5500   96.2700 O.3       1 SER1        0.0000 
      2 OG         86.1400   99.7800   97.7900 O.3       1 SER1        0.0000 
      3 OG         86.3300  100.9700   96.0500 O.3       1 SER1        0.0000 
      4 OG         86.3600  100.6700   99.7100 O.3       1 SER1        0.0000 
      5 OG         85.9000  103.1100   97.4600 O.3       1 SER1        0.0000 
      6 OG         86.5500  101.8600   97.9600 O.3       1 SER1        0.0000 
      7 OG         87.2000  100.6000   98.4700 O.3       1 SER1        0.0000 
      8 OG         86.7700  102.7400   99.8800 O.3       1 SER1        0.0000 
      9 OG         87.6100  102.6800   98.6400 O.3       1 SER1        0.0000 
     10 O          84.8600   98.0800   95.2000 O.2       2 ALA2        0.0000 
     11 O          85.0800   98.9600   97.1200 O.2       2 ALA2        0.0000 
     12 O          85.7300   97.7100   97.6200 O.2       2 ALA2        0.0000 
     13 O          85.9200   98.9000   95.8800 O.2       2 ALA2        0.0000 
     14 O          86.5700   97.6400   96.3800 O.2       2 ALA2        0.0000 
     15 O          86.7600   98.8300   94.6400 O.2       2 ALA2        0.0000 
     16 O          85.6800  102.2300   95.5400 O.2       2 ALA2        0.0000 
     17 O          87.6300   98.4600   97.0600 O.2       2 ALA2        0.0000 
     18 O          88.4700   98.4000   95.8200 O.2       2 ALA2        0.0000 
     19 O          85.2500  104.3700   96.9500 O.2       2 ALA2        0.0000 
     20 O          86.7400  103.0500   96.2200 O.2       2 ALA2        0.0000 
     21 O          87.3900  101.7900   96.7200 O.2       2 ALA2        0.0000 
     22 O          88.2300  101.7300   95.4800 O.2       2 ALA2        0.0000 
     23 O          86.9600  103.9300   98.1300 O.2       2 ALA2        0.0000 
     24 O          87.8000  103.8700   96.8900 O.2       2 ALA2        0.0000 
     25 O          88.4500  102.6100   97.4000 O.2       2 ALA2        0.0000 
     26 O          89.2900  102.5500   96.1600 O.2       2 ALA2        0.0000 
     27 O          89.7000  104.6200   96.3200 O.2       2 ALA2        0.0000 
     28 O          90.5400  104.5500   95.0800 O.2       2 ALA2        0.0000 
     29 N          93.3500  100.4200   99.0200 N.am      2 ALA2        0.0000 
     30 OD1        86.7900   98.5300   98.3000 O.co2     3 ASP3        0.0000 
     31 OD1        87.8400   99.3500   98.9700 O.co2     3 ASP3        0.0000 
     32 NZ         87.4200  101.4900  100.3800 N.4       4 LYS4        0.0000 
     33 NZ         88.0600  100.2300  100.8900 N.4       4 LYS4        0.0000 
     34 NZ         88.2600  101.4200   99.1400 N.4       4 LYS4        0.0000 
     35 NZ         88.9000  100.1700   99.6500 N.4       4 LYS4        0.0000 
     36 NZ         89.5500   98.9100  100.1600 N.4       4 LYS4        0.0000 
     37 NZ         89.7500  100.1000   98.4100 N.4       4 LYS4        0.0000 
     38 NZ         87.8300  103.5600  100.5500 N.4       4 LYS4        0.0000 
     39 NZ         89.3200  102.2400   99.8200 N.4       4 LYS4        0.0000 
     40 NZ         90.1600  102.1800   98.5800 N.4       4 LYS4        0.0000 
     41 NZ         90.8100  100.9200   99.0800 N.4       4 LYS4        0.0000 
     42 NZ         91.4500   99.6700   99.5900 N.4       4 LYS4        0.0000 
     43 NZ         91.8700  101.7400   99.7600 N.4       4 LYS4        0.0000 
     44 CZ         86.1200  104.0000   99.3700 C.ar      5 PHE5        0.0000 
     45 CA         85.9400   98.6000   99.5400 C.3       6 GLY6        0.0000 
     46 CA         87.0000   99.4200  100.2100 C.3       6 GLY6        0.0000 
     47 CA         88.6900   99.2800   97.7300 C.3       6 GLY6        0.0000 
     48 CA         89.5300   99.2200   96.4900 C.3       6 GLY6        0.0000 
     49 CA         90.3700   99.1500   95.2500 C.3       6 GLY6        0.0000 
     50 CA         86.3100  105.1900   97.6200 C.3       6 GLY6        0.0000 
     51 CA         90.3900   98.8500   98.9100 C.3       6 GLY6        0.0000 
     52 CA         90.5900  100.0400   97.1700 C.3       6 GLY6        0.0000 
     53 CA         90.1300  102.4800   94.9200 C.3       6 GLY6        0.0000 
     54 CA         90.7800  101.2300   95.4200 C.3       6 GLY6        0.0000 
     55 CA         91.4300   99.9700   95.9300 C.3       6 GLY6        0.0000 
     56 CA         88.0200  104.7500   98.8100 C.3       6 GLY6        0.0000 
     57 CA         88.6700  103.5000   99.3100 C.3       6 GLY6        0.0000 
     58 CA         88.8600  104.6900   97.5700 C.3       6 GLY6        0.0000 
     59 CA         89.5100  103.4300   98.0700 C.3       6 GLY6        0.0000 
     60 CA         90.3500  103.3700   96.8300 C.3       6 GLY6        0.0000 
     61 CA         91.0000  102.1100   97.3400 C.3       6 GLY6        0.0000 
     62 CA         92.2900   99.6000   98.3500 C.3       6 GLY6        0.0000 
     63 CA         91.1900  103.3000   95.5900 C.3       6 GLY6        0.0000 
     64 CA         92.4900  100.7900   96.6000 C.3       6 GLY6        0.0000 
     65 CA         93.1400   99.5400   97.1100 C.3       6 GLY6        0.0000 
     66 CA         91.2200  103.0000   99.2500 C.3       6 GLY6        0.0000 
     67 CA         92.0600  102.9300   98.0100 C.3       6 GLY6        0.0000 
     68 DU         85.2700  100.1500   95.3700 H         7 CUB7        0.0000 
     69 DU         86.9800   99.7200   96.5500 H         7 CUB7        0.0000 
     70 DU         87.1700  100.9100   94.8100 H         7 CUB7        0.0000 
     71 DU         87.8200   99.6500   95.3100 H         7 CUB7        0.0000 
     72 DU         88.0400  100.5400   97.2300 H         7 CUB7        0.0000 
     73 DU         88.8800  100.4700   95.9900 H         7 CUB7        0.0000 
     74 DU         89.7200  100.4100   94.7500 H         7 CUB7        0.0000 
     75 DU         89.1000  101.3600   97.9000 H         7 CUB7        0.0000 
     76 DU         89.9400  101.2900   96.6600 H         7 CUB7        0.0000 
     77 DU         91.6500  100.8600   97.8400 H         7 CUB7        0.0000 
@<TRIPOS>BOND
@<TRIPOS>SUBSTRUCTURE
     1 SER1        1 GROUP   
     2 ALA2       10 GROUP   
     3 ASP3       30 GROUP   
     4 LYS4       32 GROUP   
     5 PHE5       44 GROUP   
     6 GLY6       45 GROUP   
     7 CUB7       68 GROUP   
@<TRIPOS>SET

