#    Name: 5o98_1_NAP
#    Modification time : Fri May 22 19:19:04 2020

@<TRIPOS>MOLECULE
5o98_1_NAP
   48    52     1     0     1
SMALL
NO_CHARGES


@<TRIPOS>ATOM
      1 PA        -10.6440  -18.2100   64.5130 P.3       1 NAP501      0.0000 
      2 O1A        -9.7630  -19.4100   64.7670 O.co2     1 NAP501      0.0000 
      3 O2A       -11.2180  -17.3900   65.6450 O.co2     1 NAP501      0.0000 
      4 O5B        -9.8210  -17.2700   63.4870 O.3       1 NAP501      0.0000 
      5 C5B       -10.2830  -15.9550   63.2150 C.3       1 NAP501      0.0000 
      6 C4B        -9.1820  -15.2070   62.5020 C.3       1 NAP501      0.0000 
      7 O4B        -9.7010  -13.9170   62.1270 O.3       1 NAP501      0.0000 
      8 C3B        -7.9840  -14.9730   63.4190 C.3       1 NAP501      0.0000 
      9 O3B        -6.7530  -14.9910   62.6820 O.3       1 NAP501      0.0000 
     10 C2B        -8.2810  -13.5830   63.9290 C.3       1 NAP501      0.0000 
     11 O2B        -7.1550  -12.8930   64.4610 O.3       1 NAP501      0.0000 
     12 C1B        -8.8100  -12.9560   62.6380 C.3       1 NAP501      0.0000 
     13 N9A        -9.4270  -11.6510   62.9010 N.pl3     1 NAP501      0.0000 
     14 C8A       -10.3880  -11.3480   63.7990 C.2       1 NAP501      0.0000 
     15 N7A       -10.6530  -10.0200   63.7630 N.2       1 NAP501      0.0000 
     16 C5A        -9.8400   -9.4730   62.8290 C.ar      1 NAP501      0.0000 
     17 C6A        -9.5780   -8.1250   62.2790 C.ar      1 NAP501      0.0000 
     18 N6A       -10.2550   -7.0520   62.7180 N.pl3     1 NAP501      0.0000 
     19 N1A        -8.6570   -7.9940   61.2960 N.ar      1 NAP501      0.0000 
     20 C2A        -7.9570   -9.0480   60.8320 C.ar      1 NAP501      0.0000 
     21 N3A        -8.1300  -10.3000   61.2860 N.ar      1 NAP501      0.0000 
     22 C4A        -9.0430  -10.5550   62.2650 C.ar      1 NAP501      0.0000 
     23 O3        -11.9550  -18.6630   63.6750 O.3       1 NAP501      0.0000 
     24 PN        -12.1440  -19.5200   62.3250 P.3       1 NAP501      0.0000 
     25 O1N       -13.1430  -20.5980   62.6530 O.co2     1 NAP501      0.0000 
     26 O2N       -10.8160  -19.8870   61.7030 O.co2     1 NAP501      0.0000 
     27 O5D       -12.8820  -18.4130   61.4100 O.3       1 NAP501      0.0000 
     28 C5D       -12.4340  -18.0650   60.0880 C.3       1 NAP501      0.0000 
     29 C4D       -13.6700  -17.7550   59.2530 C.3       1 NAP501      0.0000 
     30 O4D       -14.4570  -18.9560   59.1190 O.3       1 NAP501      0.0000 
     31 C3D       -14.5870  -16.6970   59.8620 C.3       1 NAP501      0.0000 
     32 O3D       -15.0720  -15.8260   58.8210 O.3       1 NAP501      0.0000 
     33 C2D       -15.7340  -17.5160   60.4060 C.3       1 NAP501      0.0000 
     34 O2D       -16.9480  -16.7630   60.4490 O.3       1 NAP501      0.0000 
     35 C1D       -15.8090  -18.6450   59.3990 C.3       1 NAP501      0.0000 
     36 N1N       -16.5220  -19.8510   59.8180 N.pl3     1 NAP501      0.0000 
     37 C2N       -16.0230  -20.6350   60.7970 C.ar      1 NAP501      0.0000 
     38 C3N       -16.7160  -21.7800   61.1940 C.ar      1 NAP501      0.0000 
     39 C7N       -16.2260  -22.6900   62.2820 C.2       1 NAP501      0.0000 
     40 O7N       -17.0240  -23.5340   62.7040 O.2       1 NAP501      0.0000 
     41 N7N       -14.9750  -22.6060   62.7600 N.am      1 NAP501      0.0000 
     42 C4N       -17.9150  -22.0930   60.5490 C.ar      1 NAP501      0.0000 
     43 C5N       -18.4030  -21.2770   59.5490 C.ar      1 NAP501      0.0000 
     44 C6N       -17.6660  -20.1670   59.1910 C.ar      1 NAP501      0.0000 
     45 P2B        -6.8000  -12.8470   66.0670 P.3       1 NAP501      0.0000 
     46 O1X        -6.0460  -11.5280   66.1580 O.co2     1 NAP501      0.0000 
     47 O2X        -8.1240  -12.8090   66.8140 O.co2     1 NAP501      0.0000 
     48 O3X        -5.9540  -14.0770   66.3330 O.co2     1 NAP501      0.0000 
@<TRIPOS>BOND
     1    1    2 ar   
     2    1    3 ar   
     3    1    4 1    
     4    1   23 1    
     5    4    5 1    
     6    5    6 1    
     7    6    7 1    
     8    6    8 1    
     9    7   12 1    
    10    8    9 1    
    11    8   10 1    
    12   10   11 1    
    13   10   12 1    
    14   11   45 1    
    15   12   13 1    
    16   13   14 1    
    17   13   22 1    
    18   14   15 2    
    19   15   16 1    
    20   16   17 ar   
    21   16   22 ar   
    22   17   18 1    
    23   17   19 ar   
    24   19   20 ar   
    25   20   21 ar   
    26   21   22 ar   
    27   23   24 1    
    28   24   25 ar   
    29   24   26 ar   
    30   24   27 1    
    31   27   28 1    
    32   28   29 1    
    33   29   30 1    
    34   29   31 1    
    35   30   35 1    
    36   31   32 1    
    37   31   33 1    
    38   33   34 1    
    39   33   35 1    
    40   35   36 1    
    41   36   37 ar   
    42   36   44 ar   
    43   37   38 ar   
    44   38   39 1    
    45   38   42 ar   
    46   39   40 2    
    47   39   41 am   
    48   42   43 ar   
    49   43   44 ar   
    50   45   46 ar   
    51   45   47 ar   
    52   45   48 ar   
@<TRIPOS>SUBSTRUCTURE
     1 NAP501      1 GROUP   
@<TRIPOS>SET
ATOM$ORANGE STATIC     ATOMS   COLORGROUP SYSTEM 
42 5 5 6 6 8 8 10 10 12 12 14 14 16 16 17 17 20 \
20 22 22 28 28 29 29 31 31 33 33 35 35 37 37 38 38 39 \
39 42 42 43 43 44 44 

