#    Name: 5o98_2_NAP
#    Modification time : Fri May 22 19:19:07 2020

@<TRIPOS>MOLECULE
5o98_2_NAP
   48    52     1     0     1
SMALL
NO_CHARGES


@<TRIPOS>ATOM
      1 PA        -35.3380  -32.7990   74.1430 P.3       1 NAP501      0.0000 
      2 O1A       -35.8900  -31.5510   74.6690 O.co2     1 NAP501      0.0000 
      3 O2A       -34.1430  -33.4830   74.7440 O.co2     1 NAP501      0.0000 
      4 O5B       -36.5570  -33.8700   74.0640 O.3       1 NAP501      0.0000 
      5 C5B       -36.3060  -35.2250   73.7660 C.3       1 NAP501      0.0000 
      6 C4B       -37.5970  -35.9850   74.0690 C.3       1 NAP501      0.0000 
      7 O4B       -37.3860  -37.3290   73.6550 O.3       1 NAP501      0.0000 
      8 C3B       -37.9510  -35.9700   75.5590 C.3       1 NAP501      0.0000 
      9 O3B       -39.3840  -36.0000   75.7600 O.3       1 NAP501      0.0000 
     10 C2B       -37.3330  -37.2710   76.0150 C.3       1 NAP501      0.0000 
     11 O2B       -37.8810  -37.7570   77.2650 O.3       1 NAP501      0.0000 
     12 C1B       -37.6760  -38.1300   74.8010 C.3       1 NAP501      0.0000 
     13 N9A       -36.9910  -39.4090   74.8210 N.pl3     1 NAP501      0.0000 
     14 C8A       -35.6850  -39.6700   75.0020 C.2       1 NAP501      0.0000 
     15 N7A       -35.4610  -40.9960   75.0230 N.2       1 NAP501      0.0000 
     16 C5A       -36.6680  -41.5890   74.8960 C.ar      1 NAP501      0.0000 
     17 C6A       -37.1320  -42.9860   74.8840 C.ar      1 NAP501      0.0000 
     18 N6A       -36.2380  -43.9770   75.0010 N.pl3     1 NAP501      0.0000 
     19 N1A       -38.4560  -43.1960   74.7220 N.ar      1 NAP501      0.0000 
     20 C2A       -39.3290  -42.1750   74.6220 C.ar      1 NAP501      0.0000 
     21 N3A       -38.9870  -40.8660   74.6470 N.ar      1 NAP501      0.0000 
     22 C4A       -37.6720  -40.5510   74.7770 C.ar      1 NAP501      0.0000 
     23 O3        -34.9090  -32.6930   72.5860 O.3       1 NAP501      0.0000 
     24 PN        -35.6140  -32.0150   71.3270 P.3       1 NAP501      0.0000 
     25 O1N       -34.6620  -30.9210   70.8580 O.co2     1 NAP501      0.0000 
     26 O2N       -37.0260  -31.5890   71.6040 O.co2     1 NAP501      0.0000 
     27 O5D       -35.4810  -33.2300   70.3500 O.3       1 NAP501      0.0000 
     28 C5D       -36.6020  -33.8170   69.6590 C.3       1 NAP501      0.0000 
     29 C4D       -36.1460  -34.3560   68.3280 C.3       1 NAP501      0.0000 
     30 O4D       -35.6510  -33.2570   67.5400 O.3       1 NAP501      0.0000 
     31 C3D       -35.0090  -35.3650   68.4350 C.3       1 NAP501      0.0000 
     32 O3D       -35.1960  -36.4550   67.5440 O.3       1 NAP501      0.0000 
     33 C2D       -33.7930  -34.5750   67.9900 C.3       1 NAP501      0.0000 
     34 O2D       -32.7770  -35.4000   67.4210 O.3       1 NAP501      0.0000 
     35 C1D       -34.4260  -33.6540   66.9640 C.3       1 NAP501      0.0000 
     36 N1N       -33.6180  -32.4540   66.6690 N.pl3     1 NAP501      0.0000 
     37 C2N       -33.4620  -31.4880   67.5760 C.ar      1 NAP501      0.0000 
     38 C3N       -32.6710  -30.3640   67.2850 C.ar      1 NAP501      0.0000 
     39 C7N       -32.4450  -29.2780   68.2840 C.2       1 NAP501      0.0000 
     40 O7N       -31.5700  -28.4530   68.0170 O.2       1 NAP501      0.0000 
     41 N7N       -33.1310  -29.1810   69.4430 N.am      1 NAP501      0.0000 
     42 C4N       -32.0820  -30.2830   66.0040 C.ar      1 NAP501      0.0000 
     43 C5N       -32.2510  -31.3030   65.0960 C.ar      1 NAP501      0.0000 
     44 C6N       -33.0420  -32.3940   65.4490 C.ar      1 NAP501      0.0000 
     45 P2B       -37.1560  -37.4930   78.6930 P.3       1 NAP501      0.0000 
     46 O1X       -37.6190  -38.7430   79.4600 O.co2     1 NAP501      0.0000 
     47 O2X       -35.6700  -37.5250   78.4310 O.co2     1 NAP501      0.0000 
     48 O3X       -37.7230  -36.2380   79.1860 O.co2     1 NAP501      0.0000 
@<TRIPOS>BOND
     1    1    2 ar   
     2    1    3 ar   
     3    1    4 1    
     4    1   23 1    
     5    4    5 1    
     6    5    6 1    
     7    6    7 1    
     8    6    8 1    
     9    7   12 1    
    10    8    9 1    
    11    8   10 1    
    12   10   11 1    
    13   10   12 1    
    14   11   45 1    
    15   12   13 1    
    16   13   14 1    
    17   13   22 1    
    18   14   15 2    
    19   15   16 1    
    20   16   17 ar   
    21   16   22 ar   
    22   17   18 1    
    23   17   19 ar   
    24   19   20 ar   
    25   20   21 ar   
    26   21   22 ar   
    27   23   24 1    
    28   24   25 ar   
    29   24   26 ar   
    30   24   27 1    
    31   27   28 1    
    32   28   29 1    
    33   29   30 1    
    34   29   31 1    
    35   30   35 1    
    36   31   32 1    
    37   31   33 1    
    38   33   34 1    
    39   33   35 1    
    40   35   36 1    
    41   36   37 ar   
    42   36   44 ar   
    43   37   38 ar   
    44   38   39 1    
    45   38   42 ar   
    46   39   40 2    
    47   39   41 am   
    48   42   43 ar   
    49   43   44 ar   
    50   45   46 ar   
    51   45   47 ar   
    52   45   48 ar   
@<TRIPOS>SUBSTRUCTURE
     1 NAP501      1 GROUP   
@<TRIPOS>SET
ATOM$ORANGE STATIC     ATOMS   COLORGROUP SYSTEM 
42 5 5 6 6 8 8 10 10 12 12 14 14 16 16 17 17 20 \
20 22 22 28 28 29 29 31 31 33 33 35 35 37 37 38 38 39 \
39 42 42 43 43 44 44 

