#    Name: 6foq_4_FAD_CAVITY_N1_12
#    Modification time : Fri May 22 19:27:24 2020

@<TRIPOS>MOLECULE
6foq_4_FAD_CAVITY_N1_12
   70     0     6     0     0
SMALL
NO_CHARGES


@<TRIPOS>ATOM
      1 OG        189.5400  430.0200   34.7900 O.3       1 SER1        0.0000 
      2 OG        194.9600  425.2400   37.2900 O.3       1 SER1        0.0000 
      3 OG        195.9500  424.5000   36.4400 O.3       1 SER1        0.0000 
      4 OG        193.6300  426.8600   36.9800 O.3       1 SER1        0.0000 
      5 OG        194.6200  426.1200   36.1300 O.3       1 SER1        0.0000 
      6 OG        194.7100  427.8300   37.3900 O.3       1 SER1        0.0000 
      7 OG        195.6900  427.0900   36.5300 O.3       1 SER1        0.0000 
      8 OG        193.3800  429.4500   37.0800 O.3       1 SER1        0.0000 
      9 N         189.3600  426.6200   32.2700 N.am      2 ALA2        0.0000 
     10 N         192.1200  425.0800   34.1500 N.am      2 ALA2        0.0000 
     11 N         190.7900  426.7000   33.8400 N.am      2 ALA2        0.0000 
     12 N         191.7700  425.9600   32.9800 N.am      2 ALA2        0.0000 
     13 O         190.0900  428.4600   31.5100 O.2       2 ALA2        0.0000 
     14 N         190.3300  429.9700   38.3800 N.am      2 ALA2        0.0000 
     15 N         189.9800  430.8500   37.2100 N.am      2 ALA2        0.0000 
     16 N         191.4000  430.9300   38.7800 N.am      2 ALA2        0.0000 
     17 O         193.8100  430.2700   39.5000 O.2       2 ALA2        0.0000 
     18 O         194.8000  429.5300   38.6500 O.2       2 ALA2        0.0000 
     19 NZ        191.2800  425.6200   40.6100 N.4       3 LYS4        0.0000 
     20 NZ        192.3600  426.5900   41.0200 N.4       3 LYS4        0.0000 
     21 NZ        193.3400  425.8500   40.1600 N.4       3 LYS4        0.0000 
     22 CZ        190.1500  426.5600   35.8600 C.ar      4 PHE5        0.0000 
     23 CZ        188.8100  428.1800   35.5500 C.ar      4 PHE5        0.0000 
     24 CZ        190.9300  426.5000   39.4500 C.ar      4 PHE5        0.0000 
     25 CZ        191.5700  426.6400   37.4300 C.ar      4 PHE5        0.0000 
     26 CZ        189.2500  429.0000   37.9700 C.ar      4 PHE5        0.0000 
     27 CZ        190.2400  428.2600   37.1200 C.ar      4 PHE5        0.0000 
     28 CZ        191.2200  427.5200   36.2600 C.ar      4 PHE5        0.0000 
     29 CZ        188.9000  429.8800   36.8100 C.ar      4 PHE5        0.0000 
     30 CZ        189.8900  429.1400   35.9500 C.ar      4 PHE5        0.0000 
     31 CZ        195.3100  424.3600   38.4500 C.ar      4 PHE5        0.0000 
     32 CZ        191.0200  428.2100   40.7100 C.ar      4 PHE5        0.0000 
     33 CZ        192.0100  427.4700   39.8500 C.ar      4 PHE5        0.0000 
     34 CZ        190.6700  429.0900   39.5400 C.ar      4 PHE5        0.0000 
     35 CZ        191.6600  428.3500   38.6900 C.ar      4 PHE5        0.0000 
     36 CZ        191.3100  429.2300   37.5200 C.ar      4 PHE5        0.0000 
     37 CZ        193.4300  427.5500   41.4200 C.ar      4 PHE5        0.0000 
     38 CZ        194.4200  426.8100   40.5700 C.ar      4 PHE5        0.0000 
     39 CA        191.1300  425.8200   35.0000 C.3       5 GLY6        0.0000 
     40 CA        189.8000  427.4400   34.6900 C.3       5 GLY6        0.0000 
     41 CA        189.4500  428.3200   33.5300 C.3       5 GLY6        0.0000 
     42 CA        190.4400  427.5800   32.6700 C.3       5 GLY6        0.0000 
     43 CA        191.4200  426.8400   31.8200 C.3       5 GLY6        0.0000 
     44 CA        193.2500  424.1400   38.9000 C.3       5 GLY6        0.0000 
     45 CA        191.9200  425.7600   38.5900 C.3       5 GLY6        0.0000 
     46 CA        193.8900  424.2800   36.8800 C.3       5 GLY6        0.0000 
     47 CA        192.5600  425.9000   36.5700 C.3       5 GLY6        0.0000 
     48 CA        193.5400  425.1600   35.7200 C.3       5 GLY6        0.0000 
     49 CA        192.2100  426.7800   35.4100 C.3       5 GLY6        0.0000 
     50 CA        193.1900  426.0400   34.5500 C.3       5 GLY6        0.0000 
     51 CA        190.8800  428.4000   35.1000 C.3       5 GLY6        0.0000 
     52 CA        191.8600  427.6600   34.2400 C.3       5 GLY6        0.0000 
     53 CA        192.8500  426.9200   33.3900 C.3       5 GLY6        0.0000 
     54 CA        190.5300  429.2800   33.9300 C.3       5 GLY6        0.0000 
     55 CA        193.9800  425.9800   38.1400 C.3       5 GLY6        0.0000 
     56 CA        193.2800  427.7400   35.8200 C.3       5 GLY6        0.0000 
     57 CA        194.2700  427.0000   34.9600 C.3       5 GLY6        0.0000 
     58 CA        190.9700  430.1100   36.3600 C.3       5 GLY6        0.0000 
     59 CA        191.9500  429.3600   35.5100 C.3       5 GLY6        0.0000 
     60 CA        193.0800  428.4300   40.2600 C.3       5 GLY6        0.0000 
     61 CA        194.0700  427.6900   39.4000 C.3       5 GLY6        0.0000 
     62 CA        195.0600  426.9500   38.5500 C.3       5 GLY6        0.0000 
     63 CA        196.0400  426.2100   37.7000 C.3       5 GLY6        0.0000 
     64 CA        192.7400  429.3100   39.0900 C.3       5 GLY6        0.0000 
     65 CA        192.3900  430.1900   37.9300 C.3       5 GLY6        0.0000 
     66 CA        195.1500  428.6500   39.8100 C.3       5 GLY6        0.0000 
     67 DU        192.9900  426.7300   39.0000 H         6 CUB7        0.0000 
     68 DU        192.6500  427.6100   37.8300 H         6 CUB7        0.0000 
     69 DU        192.3000  428.4800   36.6700 H         6 CUB7        0.0000 
     70 DU        193.7200  428.5700   38.2400 H         6 CUB7        0.0000 
@<TRIPOS>BOND
@<TRIPOS>SUBSTRUCTURE
     1 SER1        1 GROUP   
     2 ALA2        9 GROUP   
     3 LYS4       19 GROUP   
     4 PHE5       22 GROUP   
     5 GLY6       39 GROUP   
     6 CUB7       67 GROUP   
@<TRIPOS>SET

