#    Name: 6foq_4_FAD
#    Modification time : Fri May 22 19:27:20 2020

@<TRIPOS>MOLECULE
6foq_4_FAD
   53    58     1     0     1
SMALL
NO_CHARGES


@<TRIPOS>ATOM
      1 PA        193.2790  425.5220   26.9290 P.3       1 FAD501      0.0000 
      2 O1A       193.2910  424.0850   27.2890 O.co2     1 FAD501      0.0000 
      3 O2A       194.3080  425.9490   26.0070 O.co2     1 FAD501      0.0000 
      4 O5B       191.9060  425.8620   26.3770 O.3       1 FAD501      0.0000 
      5 C5B       190.7200  425.6990   27.1850 C.3       1 FAD501      0.0000 
      6 C4B       189.4600  425.8740   26.3690 C.3       1 FAD501      0.0000 
      7 O4B       189.3830  427.2160   25.8050 O.3       1 FAD501      0.0000 
      8 C3B       189.3590  424.9420   25.1750 C.3       1 FAD501      0.0000 
      9 O3B       187.9890  424.6650   24.9200 O.3       1 FAD501      0.0000 
     10 C2B       190.0000  425.7690   24.0590 C.3       1 FAD501      0.0000 
     11 O2B       189.5110  425.4130   22.7810 O.3       1 FAD501      0.0000 
     12 C1B       189.5040  427.1700   24.3880 C.3       1 FAD501      0.0000 
     13 N9A       190.3850  428.2830   23.9940 N.pl3     1 FAD501      0.0000 
     14 C8A       191.5810  428.6350   24.5550 C.2       1 FAD501      0.0000 
     15 N7A       192.0530  429.7780   24.0880 N.2       1 FAD501      0.0000 
     16 C5A       191.1110  430.1710   23.1560 C.ar      1 FAD501      0.0000 
     17 C6A       191.0220  431.2960   22.3120 C.ar      1 FAD501      0.0000 
     18 N6A       191.9390  432.2610   22.2700 N.pl3     1 FAD501      0.0000 
     19 N1A       189.9300  431.3920   21.5090 N.ar      1 FAD501      0.0000 
     20 C2A       189.0000  430.4310   21.5640 C.ar      1 FAD501      0.0000 
     21 N3A       188.9830  429.3390   22.3220 N.ar      1 FAD501      0.0000 
     22 C4A       190.0630  429.2700   23.1110 C.ar      1 FAD501      0.0000 
     23 N1        190.1390  429.4410   36.2890 N.2       1 FAD501      0.0000 
     24 C2        189.7020  430.5670   36.9610 C.2       1 FAD501      0.0000 
     25 O2        188.7070  431.2040   36.5970 O.2       1 FAD501      0.0000 
     26 N3        190.4470  431.0500   38.0260 N.am      1 FAD501      0.0000 
     27 C4        191.5940  430.5260   38.4870 C.2       1 FAD501      0.0000 
     28 O4        192.1480  430.9950   39.4680 O.2       1 FAD501      0.0000 
     29 C4X       192.0380  429.3370   37.7840 C.2       1 FAD501      0.0000 
     30 N5        193.1630  428.7870   38.1680 N.2       1 FAD501      0.0000 
     31 C5X       193.6390  427.7350   37.4690 C.ar      1 FAD501      0.0000 
     32 C6        194.8430  427.1740   37.8750 C.ar      1 FAD501      0.0000 
     33 C7        195.3910  426.1070   37.1950 C.ar      1 FAD501      0.0000 
     34 C7M       196.7010  425.5070   37.6510 C.3       1 FAD501      0.0000 
     35 C8        194.7030  425.5940   36.0960 C.ar      1 FAD501      0.0000 
     36 C8M       195.1390  424.3360   35.4630 C.3       1 FAD501      0.0000 
     37 C9        193.4970  426.1440   35.6810 C.ar      1 FAD501      0.0000 
     38 C9A       192.9410  427.1900   36.3880 C.ar      1 FAD501      0.0000 
     39 N10       191.7210  427.7710   36.0140 N.pl3     1 FAD501      0.0000 
     40 C10       191.2490  428.8970   36.6840 C.2       1 FAD501      0.0000 
     41 C1'       190.9090  427.1740   34.9660 C.3       1 FAD501      0.0000 
     42 C2'       191.0440  427.8140   33.6230 C.3       1 FAD501      0.0000 
     43 O2'       190.1050  428.8900   33.5590 O.3       1 FAD501      0.0000 
     44 C3'       190.6570  426.7990   32.5650 C.3       1 FAD501      0.0000 
     45 O3'       191.5390  425.6760   32.7030 O.3       1 FAD501      0.0000 
     46 C4'       190.8290  427.4390   31.2010 C.3       1 FAD501      0.0000 
     47 O4'       190.0800  426.7080   30.2360 O.3       1 FAD501      0.0000 
     48 C5'       192.3110  427.5390   30.8920 C.3       1 FAD501      0.0000 
     49 O5'       192.5030  428.1720   29.6230 O.3       1 FAD501      0.0000 
     50 P         193.7590  427.8280   28.7610 P.3       1 FAD501      0.0000 
     51 O1P       193.7830  428.7350   27.5570 O.co2     1 FAD501      0.0000 
     52 O2P       194.9360  427.7050   29.5900 O.co2     1 FAD501      0.0000 
     53 O3P       193.3580  426.3250   28.2850 O.3       1 FAD501      0.0000 
@<TRIPOS>BOND
     1    1    2 ar   
     2    1    3 ar   
     3    1    4 1    
     4    1   53 1    
     5    4    5 1    
     6    5    6 1    
     7    6    7 1    
     8    6    8 1    
     9    7   12 1    
    10    8    9 1    
    11    8   10 1    
    12   10   11 1    
    13   10   12 1    
    14   12   13 1    
    15   13   14 1    
    16   13   22 1    
    17   14   15 2    
    18   15   16 1    
    19   16   17 ar   
    20   16   22 ar   
    21   17   18 1    
    22   17   19 ar   
    23   19   20 ar   
    24   20   21 ar   
    25   21   22 ar   
    26   23   24 1    
    27   23   40 2    
    28   24   25 2    
    29   24   26 am   
    30   26   27 am   
    31   27   28 2    
    32   27   29 1    
    33   29   30 2    
    34   29   40 1    
    35   30   31 1    
    36   31   32 ar   
    37   31   38 ar   
    38   32   33 ar   
    39   33   34 1    
    40   33   35 ar   
    41   35   36 1    
    42   35   37 ar   
    43   37   38 ar   
    44   38   39 1    
    45   39   40 1    
    46   39   41 1    
    47   41   42 1    
    48   42   43 1    
    49   42   44 1    
    50   44   45 1    
    51   44   46 1    
    52   46   47 1    
    53   46   48 1    
    54   48   49 1    
    55   49   50 1    
    56   50   51 ar   
    57   50   52 ar   
    58   50   53 1    
@<TRIPOS>SUBSTRUCTURE
     1 FAD501      1 GROUP   
@<TRIPOS>SET
ATOM$ORANGE STATIC     ATOMS   COLORGROUP SYSTEM 
54 5 5 6 6 8 8 10 10 12 12 14 14 16 16 17 17 20 \
20 22 22 24 24 27 27 29 29 31 31 32 32 33 33 34 34 35 \
35 36 36 37 37 38 38 40 40 41 41 42 42 44 44 46 46 48 \
48 

