#    Name: 6fko_1_ATP
#    Modification time : Fri May 22 19:30:48 2020

@<TRIPOS>MOLECULE
6fko_1_ATP
   31    33     1     0     1
SMALL
NO_CHARGES


@<TRIPOS>ATOM
      1 PG          4.8110   64.4110   -0.8400 P.3       1 ATP402      0.0000 
      2 O1G         5.1800   63.8800   -2.2020 O.co2     1 ATP402      0.0000 
      3 O2G         4.1930   63.3730    0.0240 O.co2     1 ATP402      0.0000 
      4 O3G         6.1360   64.9720   -0.2520 O.co2     1 ATP402      0.0000 
      5 PB          2.2880   66.0120   -0.8430 P.3       1 ATP402      0.0000 
      6 O1B         1.4280   65.0750   -1.6120 O.co2     1 ATP402      0.0000 
      7 O2B         1.9060   65.9330    0.6390 O.co2     1 ATP402      0.0000 
      8 O3B         3.8390   65.6710   -1.0310 O.3       1 ATP402      0.0000 
      9 PA          2.1740   68.9840   -0.9770 P.3       1 ATP402      0.0000 
     10 O1A         0.8110   69.5860   -0.5810 O.co2     1 ATP402      0.0000 
     11 O2A         3.1520   69.1130    0.1210 O.co2     1 ATP402      0.0000 
     12 O3A         1.9340   67.4650   -1.3780 O.3       1 ATP402      0.0000 
     13 O5'         2.7750   69.5710   -2.3720 O.3       1 ATP402      0.0000 
     14 C5'         2.0090   70.2130   -3.4120 C.3       1 ATP402      0.0000 
     15 C4'         2.3630   71.6830   -3.4840 C.3       1 ATP402      0.0000 
     16 O4'         1.4090   72.3650   -4.3270 O.3       1 ATP402      0.0000 
     17 C3'         2.3330   72.4650   -2.1700 C.3       1 ATP402      0.0000 
     18 O3'         3.2130   73.5880   -2.2200 O.3       1 ATP402      0.0000 
     19 C2'         0.8600   72.8570   -2.0700 C.3       1 ATP402      0.0000 
     20 O2'         0.6200   73.9580   -1.2050 O.3       1 ATP402      0.0000 
     21 C1'         0.5360   73.1600   -3.5390 C.3       1 ATP402      0.0000 
     22 N9         -0.8320   72.8710   -3.9590 N.pl3     1 ATP402      0.0000 
     23 C8         -1.6690   71.8920   -3.4890 C.2       1 ATP402      0.0000 
     24 N7         -2.7790   71.7520   -4.1780 N.2       1 ATP402      0.0000 
     25 C5         -2.6630   72.7160   -5.1740 C.ar      1 ATP402      0.0000 
     26 C6         -3.4940   73.0570   -6.2640 C.ar      1 ATP402      0.0000 
     27 N6         -4.6330   72.4270   -6.5580 N.pl3     1 ATP402      0.0000 
     28 N1         -3.0920   74.0740   -7.0650 N.ar      1 ATP402      0.0000 
     29 C2         -1.9330   74.6890   -6.7970 C.ar      1 ATP402      0.0000 
     30 N3         -1.0580   74.4360   -5.8180 N.ar      1 ATP402      0.0000 
     31 C4         -1.4840   73.4270   -5.0350 C.ar      1 ATP402      0.0000 
@<TRIPOS>BOND
     1    1    2 ar   
     2    1    3 ar   
     3    1    4 ar   
     4    1    8 1    
     5    5    6 ar   
     6    5    7 ar   
     7    5    8 1    
     8    5   12 1    
     9    9   10 ar   
    10    9   11 ar   
    11    9   12 1    
    12    9   13 1    
    13   13   14 1    
    14   14   15 1    
    15   15   16 1    
    16   15   17 1    
    17   16   21 1    
    18   17   18 1    
    19   17   19 1    
    20   19   20 1    
    21   19   21 1    
    22   21   22 1    
    23   22   23 1    
    24   22   31 1    
    25   23   24 2    
    26   24   25 1    
    27   25   26 ar   
    28   25   31 ar   
    29   26   27 1    
    30   26   28 ar   
    31   28   29 ar   
    32   29   30 ar   
    33   30   31 ar   
@<TRIPOS>SUBSTRUCTURE
     1 ATP402      1 GROUP   
@<TRIPOS>SET
ATOM$ORANGE STATIC     ATOMS   COLORGROUP SYSTEM 
20 14 14 15 15 17 17 19 19 21 21 23 23 25 25 26 26 29 \
29 31 31 

