#    Name: 6fko_1_ATP_CAVITY_N1_4
#    Modification time : Fri May 22 19:30:51 2020

@<TRIPOS>MOLECULE
6fko_1_ATP_CAVITY_N1_4
   77     0     6     0     0
SMALL
NO_CHARGES


@<TRIPOS>ATOM
      1 OG          4.1100   68.8100   -2.4700 O.3       1 SER1        0.0000 
      2 OG         -1.0300   77.1200   -9.1100 O.3       1 SER1        0.0000 
      3 OG         -0.1600   75.8300   -7.6600 O.3       1 SER1        0.0000 
      4 OG          2.5100   72.5600   -1.2900 O.3       1 SER1        0.0000 
      5 OG          3.8400   71.8800   -1.1300 O.3       1 SER1        0.0000 
      6 O          -1.7200   70.3500   -3.8200 O.2       2 ALA2        0.0000 
      7 N           1.3900   69.5900   -4.8100 N.am      2 ALA2        0.0000 
      8 O           0.9300   68.9900   -3.5200 O.2       2 ALA2        0.0000 
      9 O           1.8000   67.7000   -2.0700 O.2       2 ALA2        0.0000 
     10 O           1.3400   67.0900   -0.7800 O.2       2 ALA2        0.0000 
     11 N           2.6700   66.4100   -0.6200 N.am      2 ALA2        0.0000 
     12 N           3.9900   65.7300   -0.4700 N.am      2 ALA2        0.0000 
     13 O          -2.0200   75.3200   -8.5600 O.2       2 ALA2        0.0000 
     14 O          -2.4800   74.7200   -7.2600 O.2       2 ALA2        0.0000 
     15 O           1.8700   68.2900   -0.0300 O.2       2 ALA2        0.0000 
     16 N           3.6500   68.2100   -1.1700 N.am      2 ALA2        0.0000 
     17 N           3.1900   67.6000    0.1200 N.am      2 ALA2        0.0000 
     18 O          -2.8200   77.2000   -7.9600 O.2       2 ALA2        0.0000 
     19 O          -1.4900   76.5200   -7.8100 O.2       2 ALA2        0.0000 
     20 N           0.2000   71.4500   -0.8900 N.am      2 ALA2        0.0000 
     21 O           2.8500   70.0800   -0.5800 O.2       2 ALA2        0.0000 
     22 N           4.1800   69.4000   -0.4300 N.am      2 ALA2        0.0000 
     23 OD1         2.1400   65.2200   -1.3700 O.co2     3 ASP3        0.0000 
     24 OD1         3.4700   64.5400   -1.2200 O.co2     3 ASP3        0.0000 
     25 OD1         3.2400   70.1000   -3.9100 O.co2     3 ASP3        0.0000 
     26 OD1         2.9000   72.5800   -4.6200 O.co2     3 ASP3        0.0000 
     27 OD1         3.7700   71.2900   -3.1700 O.co2     3 ASP3        0.0000 
     28 OD1         4.6400   70.0000   -1.7300 O.co2     3 ASP3        0.0000 
     29 OD1         4.3000   72.4800   -2.4300 O.co2     3 ASP3        0.0000 
     30 CZ         -1.1500   74.0400   -7.1100 C.ar      4 PHE5        0.0000 
     31 CZ         -1.6100   73.4300   -5.8200 C.ar      4 PHE5        0.0000 
     32 CZ         -0.7400   72.1500   -4.3700 C.ar      4 PHE5        0.0000 
     33 CZ         -1.2000   71.5400   -3.0800 C.ar      4 PHE5        0.0000 
     34 CZ          0.5900   71.4600   -4.2200 C.ar      4 PHE5        0.0000 
     35 CZ          0.1300   70.8600   -2.9200 C.ar      4 PHE5        0.0000 
     36 CZ          2.3800   71.3900   -5.3600 C.ar      4 PHE5        0.0000 
     37 CZ          1.9200   70.7800   -4.0700 C.ar      4 PHE5        0.0000 
     38 CZ         -0.6200   75.2300   -6.3700 C.ar      4 PHE5        0.0000 
     39 CZ          0.7100   74.5500   -6.2100 C.ar      4 PHE5        0.0000 
     40 CZ          0.2500   73.9400   -4.9200 C.ar      4 PHE5        0.0000 
     41 CZ          1.5800   73.2600   -4.7700 C.ar      4 PHE5        0.0000 
     42 CA         -2.1800   69.7500   -2.5300 C.3       5 GLY6        0.0000 
     43 CA         -0.4000   69.6700   -3.6700 C.3       5 GLY6        0.0000 
     44 CA          2.2600   68.3000   -3.3600 C.3       5 GLY6        0.0000 
     45 CA          3.1300   67.0200   -1.9200 C.3       5 GLY6        0.0000 
     46 CA          4.4500   66.3300   -1.7700 C.3       5 GLY6        0.0000 
     47 CA         -2.9300   74.1200   -5.9700 C.3       5 GLY6        0.0000 
     48 CA         -2.0700   72.8300   -4.5200 C.3       5 GLY6        0.0000 
     49 CA         -2.5200   72.2200   -3.2300 C.3       5 GLY6        0.0000 
     50 CA         -1.6600   70.9400   -1.7800 C.3       5 GLY6        0.0000 
     51 CA         -0.3300   70.2600   -1.6300 C.3       5 GLY6        0.0000 
     52 CA          1.0000   69.5700   -1.4800 C.3       5 GLY6        0.0000 
     53 CA          0.5400   68.9700   -0.1800 C.3       5 GLY6        0.0000 
     54 CA         -3.2700   76.5900   -6.6700 C.3       5 GLY6        0.0000 
     55 CA         -1.9500   75.9100   -6.5200 C.3       5 GLY6        0.0000 
     56 CA         -2.4100   75.3100   -5.2200 C.3       5 GLY6        0.0000 
     57 CA         -1.0800   74.6200   -5.0700 C.3       5 GLY6        0.0000 
     58 CA         -0.2100   73.3400   -3.6300 C.3       5 GLY6        0.0000 
     59 CA         -0.6700   72.7300   -2.3300 C.3       5 GLY6        0.0000 
     60 CA          1.5300   70.7600   -0.7300 C.3       5 GLY6        0.0000 
     61 CA         -0.5500   75.8200   -4.3300 C.3       5 GLY6        0.0000 
     62 CA          0.7800   75.1300   -4.1800 C.3       5 GLY6        0.0000 
     63 CA          0.3200   74.5300   -2.8800 C.3       5 GLY6        0.0000 
     64 CA          1.1900   73.2400   -1.4400 C.3       5 GLY6        0.0000 
     65 CA          0.8400   75.7200   -2.1400 C.3       5 GLY6        0.0000 
     66 DU          1.4600   70.1800   -2.7700 H         6 CUB7        0.0000 
     67 DU          2.7800   69.4900   -2.6200 H         6 CUB7        0.0000 
     68 DU          2.3300   68.8900   -1.3300 H         6 CUB7        0.0000 
     69 DU          1.1200   72.6600   -3.4700 H         6 CUB7        0.0000 
     70 DU          0.6600   72.0500   -2.1800 H         6 CUB7        0.0000 
     71 DU          2.4400   71.9700   -3.3200 H         6 CUB7        0.0000 
     72 DU          1.9900   71.3700   -2.0300 H         6 CUB7        0.0000 
     73 DU          3.3100   70.6900   -1.8800 H         6 CUB7        0.0000 
     74 DU          1.6400   73.8500   -2.7300 H         6 CUB7        0.0000 
     75 DU          2.9700   73.1600   -2.5800 H         6 CUB7        0.0000 
     76 DU          2.1700   75.0400   -1.9900 H         6 CUB7        0.0000 
     77 DU          3.9600   74.9600   -3.1300 H         6 CUB7        0.0000 
@<TRIPOS>BOND
@<TRIPOS>SUBSTRUCTURE
     1 SER1        1 GROUP   
     2 ALA2        6 GROUP   
     3 ASP3       23 GROUP   
     4 PHE5       30 GROUP   
     5 GLY6       42 GROUP   
     6 CUB7       66 GROUP   
@<TRIPOS>SET

