#    Name: 6aj5_6_FMN_CAVITY_N1_4
#    Modification time : Fri May 22 19:27:47 2020

@<TRIPOS>MOLECULE
6aj5_6_FMN_CAVITY_N1_4
   75     0     6     0     0
SMALL
NO_CHARGES


@<TRIPOS>ATOM
      1 OG         78.2700  271.6600  340.8900 O.3       1 SER1        0.0000 
      2 OG         77.8300  270.9600  342.1300 O.3       1 SER1        0.0000 
      3 OG         80.4100  263.8700  340.8600 O.3       1 SER1        0.0000 
      4 OG         80.5700  261.8900  341.6000 O.3       1 SER1        0.0000 
      5 OG         79.9600  263.1700  342.1100 O.3       1 SER1        0.0000 
      6 OG         79.3600  264.4500  342.6100 O.3       1 SER1        0.0000 
      7 OG         80.1200  261.1900  342.8500 O.3       1 SER1        0.0000 
      8 OG         79.5200  262.4600  343.3500 O.3       1 SER1        0.0000 
      9 OG         81.2200  270.1700  339.2900 O.3       1 SER1        0.0000 
     10 OG         80.6200  271.4500  339.8000 O.3       1 SER1        0.0000 
     11 OG         81.9200  271.8000  340.4600 O.3       1 SER1        0.0000 
     12 OG         83.3400  268.4100  346.2700 O.3       1 SER1        0.0000 
     13 O          78.0600  264.0900  341.9500 O.2       2 ALA2        0.0000 
     14 N          79.4800  269.1100  339.8800 N.am      2 ALA2        0.0000 
     15 N          79.6400  267.1300  340.6200 N.am      2 ALA2        0.0000 
     16 N          78.4300  269.6800  341.6300 N.am      2 ALA2        0.0000 
     17 N          79.2000  266.4300  341.8700 N.am      2 ALA2        0.0000 
     18 N          78.5900  267.7000  342.3700 N.am      2 ALA2        0.0000 
     19 O          81.3800  268.1900  340.0400 O.2       2 ALA2        0.0000 
     20 O          80.7800  269.4600  340.5400 O.2       2 ALA2        0.0000 
     21 O          81.5400  266.2100  340.7800 O.2       2 ALA2        0.0000 
     22 O          80.9400  267.4800  341.2800 O.2       2 ALA2        0.0000 
     23 N          80.3300  268.7600  341.7900 N.am      2 ALA2        0.0000 
     24 O          79.1200  271.3100  342.8000 O.2       2 ALA2        0.0000 
     25 O          79.2800  269.3300  343.5400 O.2       2 ALA2        0.0000 
     26 O          78.6800  270.6100  344.0400 O.2       2 ALA2        0.0000 
     27 O          82.2400  267.8400  341.9400 O.2       2 ALA2        0.0000 
     28 O          81.0300  270.3900  342.9500 O.2       2 ALA2        0.0000 
     29 O          80.4200  271.6700  343.4600 O.2       2 ALA2        0.0000 
     30 O          79.8200  272.9400  343.9600 O.2       2 ALA2        0.0000 
     31 O          81.1900  268.4100  343.7000 O.2       2 ALA2        0.0000 
     32 O          80.5800  269.6900  344.2000 O.2       2 ALA2        0.0000 
     33 O          80.7400  267.7100  344.9400 O.2       2 ALA2        0.0000 
     34 N          80.3000  267.0000  346.1900 N.am      2 ALA2        0.0000 
     35 O          81.8800  270.0400  344.8600 O.2       2 ALA2        0.0000 
     36 O          82.0400  268.0600  345.6100 O.2       2 ALA2        0.0000 
     37 N          81.6000  267.3500  346.8500 N.am      2 ALA2        0.0000 
     38 N          84.2300  269.8200  343.7700 N.am      2 ALA2        0.0000 
     39 N          83.1800  270.3900  345.5300 N.am      2 ALA2        0.0000 
     40 OD1        78.5000  264.8000  340.7000 O.co2     3 ASP3        0.0000 
     41 OD1        80.0900  267.8300  339.3700 O.co2     3 ASP3        0.0000 
     42 OD1        80.2500  265.8500  340.1200 O.co2     3 ASP3        0.0000 
     43 OD1        79.8000  265.1500  341.3600 O.co2     3 ASP3        0.0000 
     44 OD1        82.1700  272.7200  342.8700 O.co2     3 ASP3        0.0000 
     45 CZ         80.0100  272.7200  340.3000 C.ar      4 PHE5        0.0000 
     46 CZ         81.3100  273.0800  340.9600 C.ar      4 PHE5        0.0000 
     47 CZ         80.2600  273.6500  342.7200 C.ar      4 PHE5        0.0000 
     48 CZ         82.4000  265.8600  342.6900 C.ar      4 PHE5        0.0000 
     49 CZ         81.7900  267.1300  343.1900 C.ar      4 PHE5        0.0000 
     50 CZ         81.3500  266.4300  344.4400 C.ar      4 PHE5        0.0000 
     51 CZ         83.0900  267.4900  343.8500 C.ar      4 PHE5        0.0000 
     52 CZ         82.4900  268.7600  344.3600 C.ar      4 PHE5        0.0000 
     53 CZ         82.6500  266.7800  345.1000 C.ar      4 PHE5        0.0000 
     54 CZ         82.2000  266.0800  346.3500 C.ar      4 PHE5        0.0000 
     55 CZ         83.7900  269.1200  345.0200 C.ar      4 PHE5        0.0000 
     56 CA         78.2200  262.1100  342.6900 C.3       5 GLY6        0.0000 
     57 CA         81.7100  264.2300  341.5200 C.3       5 GLY6        0.0000 
     58 CA         81.1000  265.5000  342.0300 C.3       5 GLY6        0.0000 
     59 CA         80.5000  266.7800  342.5300 C.3       5 GLY6        0.0000 
     60 CA         79.8900  268.0600  343.0400 C.3       5 GLY6        0.0000 
     61 CA         80.6600  264.8000  343.2700 C.3       5 GLY6        0.0000 
     62 CA         80.0500  266.0800  343.7800 C.3       5 GLY6        0.0000 
     63 CA         82.5200  270.5200  339.9500 C.3       5 GLY6        0.0000 
     64 CA         82.0800  269.8200  341.2000 C.3       5 GLY6        0.0000 
     65 CA         81.6300  269.1100  342.4500 C.3       5 GLY6        0.0000 
     66 CA         82.7700  271.4500  342.3700 C.3       5 GLY6        0.0000 
     67 CA         82.9300  269.4700  343.1100 C.3       5 GLY6        0.0000 
     68 CA         81.7200  272.0200  344.1200 C.3       5 GLY6        0.0000 
     69 CA         83.6200  271.1000  344.2800 C.3       5 GLY6        0.0000 
     70 DU         80.1700  270.7400  341.0400 H         6 CUB7        0.0000 
     71 DU         79.5700  272.0200  341.5500 H         6 CUB7        0.0000 
     72 DU         79.7300  270.0400  342.2900 H         6 CUB7        0.0000 
     73 DU         81.4700  271.0900  341.7100 H         6 CUB7        0.0000 
     74 DU         80.8700  272.3700  342.2100 H         6 CUB7        0.0000 
     75 DU         82.3300  270.7400  343.6200 H         6 CUB7        0.0000 
@<TRIPOS>BOND
@<TRIPOS>SUBSTRUCTURE
     1 SER1        1 GROUP   
     2 ALA2       13 GROUP   
     3 ASP3       40 GROUP   
     4 PHE5       45 GROUP   
     5 GLY6       56 GROUP   
     6 CUB7       70 GROUP   
@<TRIPOS>SET

