#    Name: 6aj5_6_FMN
#    Modification time : Fri May 22 19:27:45 2020

@<TRIPOS>MOLECULE
6aj5_6_FMN
   31    33     1     0     1
SMALL
NO_CHARGES


@<TRIPOS>ATOM
      1 N1         80.2830  268.7890  339.5890 N.2       1 FMN501      0.0000 
      2 C2         80.5160  269.7290  338.6540 C.2       1 FMN501      0.0000 
      3 O2         80.0020  269.5760  337.5210 O.2       1 FMN501      0.0000 
      4 N3         81.2940  270.7990  338.8970 N.am      1 FMN501      0.0000 
      5 C4         81.8780  271.0210  340.0720 C.2       1 FMN501      0.0000 
      6 O4         82.5830  272.0220  340.2560 O.2       1 FMN501      0.0000 
      7 C4A        81.6620  270.0550  341.1490 C.2       1 FMN501      0.0000 
      8 N5         82.2070  270.2120  342.3620 N.2       1 FMN501      0.0000 
      9 C5A        81.9920  269.2960  343.3220 C.ar      1 FMN501      0.0000 
     10 C6         82.5920  269.4990  344.5390 C.ar      1 FMN501      0.0000 
     11 C7         82.4180  268.5960  345.5740 C.ar      1 FMN501      0.0000 
     12 C7M        83.0990  268.8840  346.8840 C.3       1 FMN501      0.0000 
     13 C8         81.5780  267.3740  345.3890 C.ar      1 FMN501      0.0000 
     14 C8M        81.3460  266.3620  346.5090 C.3       1 FMN501      0.0000 
     15 C9         80.9750  267.1750  344.1450 C.ar      1 FMN501      0.0000 
     16 C9A        81.1470  268.0840  343.0890 C.ar      1 FMN501      0.0000 
     17 N10        80.5650  267.9050  341.7960 N.pl3     1 FMN501      0.0000 
     18 C10        80.8150  268.8890  340.8220 C.2       1 FMN501      0.0000 
     19 C1'        79.6640  266.7950  341.4370 C.3       1 FMN501      0.0000 
     20 C2'        80.3690  265.6130  340.8410 C.3       1 FMN501      0.0000 
     21 O2'        80.7120  266.0000  339.5130 O.3       1 FMN501      0.0000 
     22 C3'        79.4880  264.3580  340.8410 C.3       1 FMN501      0.0000 
     23 O3'        78.3430  264.5650  340.0050 O.3       1 FMN501      0.0000 
     24 C4'        79.0470  263.9320  342.2400 C.3       1 FMN501      0.0000 
     25 O4'        80.1920  263.8840  343.0820 O.3       1 FMN501      0.0000 
     26 C5'        78.4190  262.5610  342.2750 C.3       1 FMN501      0.0000 
     27 O5'        79.4470  261.5800  342.1900 O.3       1 FMN501      0.0000 
     28 P          79.9190  260.6770  343.4470 P.3       1 FMN501      0.0000 
     29 O1P        80.4980  259.4230  342.7750 O.co2     1 FMN501      0.0000 
     30 O2P        78.7080  260.4230  344.3230 O.co2     1 FMN501      0.0000 
     31 O3P        80.9090  261.5680  344.1380 O.co2     1 FMN501      0.0000 
@<TRIPOS>BOND
     1    1    2 1    
     2    1   18 2    
     3    2    3 2    
     4    2    4 am   
     5    4    5 am   
     6    5    6 2    
     7    5    7 1    
     8    7    8 2    
     9    7   18 1    
    10    8    9 1    
    11    9   10 ar   
    12    9   16 ar   
    13   10   11 ar   
    14   11   12 1    
    15   11   13 ar   
    16   13   14 1    
    17   13   15 ar   
    18   15   16 ar   
    19   16   17 1    
    20   17   18 1    
    21   17   19 1    
    22   19   20 1    
    23   20   21 1    
    24   20   22 1    
    25   22   23 1    
    26   22   24 1    
    27   24   25 1    
    28   24   26 1    
    29   26   27 1    
    30   27   28 1    
    31   28   29 ar   
    32   28   30 ar   
    33   28   31 ar   
@<TRIPOS>SUBSTRUCTURE
     1 FMN501      1 GROUP   
@<TRIPOS>SET
ATOM$ORANGE STATIC     ATOMS   COLORGROUP SYSTEM 
34 2 2 5 5 7 7 9 9 10 10 11 11 12 12 13 13 14 \
14 15 15 16 16 18 18 19 19 20 20 22 22 24 24 26 26 

