#    Name: 6ac1_4_NAI
#    Modification time : Fri May 22 19:26:05 2020

@<TRIPOS>MOLECULE
6ac1_4_NAI
   44    48     1     0     1
SMALL
NO_CHARGES


@<TRIPOS>ATOM
      1 PA        -19.2700   19.8470   18.6530 P.3       1 NAI1506     0.0000 
      2 O1A       -20.1560   18.8560   19.4020 O.co2     1 NAI1506     0.0000 
      3 O2A       -19.7400   21.2830   18.5440 O.co2     1 NAI1506     0.0000 
      4 O5B       -19.1870   19.4080   17.0990 O.3       1 NAI1506     0.0000 
      5 C5B       -18.1830   20.1010   16.3410 C.3       1 NAI1506     0.0000 
      6 C4B       -18.4880   19.7590   14.8890 C.3       1 NAI1506     0.0000 
      7 O4B       -19.8750   19.9510   14.7280 O.3       1 NAI1506     0.0000 
      8 C3B       -17.8340   20.6140   13.8400 C.3       1 NAI1506     0.0000 
      9 O3B       -16.5140   20.1720   13.5500 O.3       1 NAI1506     0.0000 
     10 C2B       -18.7920   20.4280   12.6790 C.3       1 NAI1506     0.0000 
     11 O2B       -18.7410   19.1360   12.0560 O.3       1 NAI1506     0.0000 
     12 C1B       -20.1150   20.4160   13.3800 C.3       1 NAI1506     0.0000 
     13 N9A       -20.7730   21.7340   13.3900 N.pl3     1 NAI1506     0.0000 
     14 C8A       -21.0490   22.4580   14.5020 C.2       1 NAI1506     0.0000 
     15 N7A       -21.6770   23.5850   14.1760 N.2       1 NAI1506     0.0000 
     16 C5A       -21.7850   23.6010   12.8340 C.ar      1 NAI1506     0.0000 
     17 C6A       -22.3520   24.5030   11.8240 C.ar      1 NAI1506     0.0000 
     18 N6A       -22.8990   25.6450   12.2740 N.pl3     1 NAI1506     0.0000 
     19 N1A       -22.2730   24.1840   10.4970 N.ar      1 NAI1506     0.0000 
     20 C2A       -21.6980   23.0360   10.1020 C.ar      1 NAI1506     0.0000 
     21 N3A       -21.1630   22.1530   10.9780 N.ar      1 NAI1506     0.0000 
     22 C4A       -21.1950   22.3660   12.3130 C.ar      1 NAI1506     0.0000 
     23 O3        -17.7340   19.9510   19.0940 O.3       1 NAI1506     0.0000 
     24 PN        -17.1360   19.8590   20.5970 P.3       1 NAI1506     0.0000 
     25 O1N       -17.8440   20.7980   21.5460 O.co2     1 NAI1506     0.0000 
     26 O2N       -15.6570   19.9910   20.3640 O.co2     1 NAI1506     0.0000 
     27 O5D       -17.2770   18.3130   21.0360 O.3       1 NAI1506     0.0000 
     28 C5D       -16.5280   17.2900   20.3900 C.3       1 NAI1506     0.0000 
     29 C4D       -17.3460   16.0220   20.5740 C.3       1 NAI1506     0.0000 
     30 O4D       -16.7050   14.9470   19.8930 O.3       1 NAI1506     0.0000 
     31 C3D       -17.4410   15.4470   21.9990 C.3       1 NAI1506     0.0000 
     32 O3D       -18.4080   16.0660   22.8010 O.3       1 NAI1506     0.0000 
     33 C2D       -17.7970   13.9840   21.7540 C.3       1 NAI1506     0.0000 
     34 O2D       -19.2100   13.7910   21.7850 O.3       1 NAI1506     0.0000 
     35 C1D       -17.2560   13.6970   20.3340 C.3       1 NAI1506     0.0000 
     36 N1N       -16.2230   12.6400   20.2290 N.pl3     1 NAI1506     0.0000 
     37 C2N       -15.1000   12.7720   20.9760 C.2       1 NAI1506     0.0000 
     38 C3N       -13.8840   12.1600   20.6610 C.2       1 NAI1506     0.0000 
     39 C7N       -12.6530   12.3740   21.5550 C.2       1 NAI1506     0.0000 
     40 O7N       -11.5910   11.8320   21.2700 O.2       1 NAI1506     0.0000 
     41 N7N       -12.6920   13.1820   22.5980 N.am      1 NAI1506     0.0000 
     42 C4N       -13.7580   11.3120   19.4200 C.3       1 NAI1506     0.0000 
     43 C5N       -15.0180   11.2160   18.6770 C.2       1 NAI1506     0.0000 
     44 C6N       -16.1800   11.8620   19.1080 C.2       1 NAI1506     0.0000 
@<TRIPOS>BOND
     1    1    2 ar   
     2    1    3 ar   
     3    1    4 1    
     4    1   23 1    
     5    4    5 1    
     6    5    6 1    
     7    6    7 1    
     8    6    8 1    
     9    7   12 1    
    10    8    9 1    
    11    8   10 1    
    12   10   11 1    
    13   10   12 1    
    14   12   13 1    
    15   13   14 1    
    16   13   22 1    
    17   14   15 2    
    18   15   16 1    
    19   16   17 ar   
    20   16   22 ar   
    21   17   18 1    
    22   17   19 ar   
    23   19   20 ar   
    24   20   21 ar   
    25   21   22 ar   
    26   23   24 1    
    27   24   25 ar   
    28   24   26 ar   
    29   24   27 1    
    30   27   28 1    
    31   28   29 1    
    32   29   30 1    
    33   29   31 1    
    34   30   35 1    
    35   31   32 1    
    36   31   33 1    
    37   33   34 1    
    38   33   35 1    
    39   35   36 1    
    40   36   37 1    
    41   36   44 1    
    42   37   38 2    
    43   38   39 1    
    44   38   42 1    
    45   39   40 2    
    46   39   41 am   
    47   42   43 1    
    48   43   44 2    
@<TRIPOS>SUBSTRUCTURE
     1 NAI1506     1 GROUP   
@<TRIPOS>SET
ATOM$ORANGE STATIC     ATOMS   COLORGROUP SYSTEM 
42 5 5 6 6 8 8 10 10 12 12 14 14 16 16 17 17 20 \
20 22 22 28 28 29 29 31 31 33 33 35 35 37 37 38 38 39 \
39 42 42 43 43 44 44 

