#    Name: 6ac1_3_FAD
#    Modification time : Fri May 22 19:25:42 2020

@<TRIPOS>MOLECULE
6ac1_3_FAD
   53    58     1     0     1
SMALL
NO_CHARGES


@<TRIPOS>ATOM
      1 PA        -22.4630   10.8540   30.1960 P.3       1 FAD1505     0.0000 
      2 O1A       -21.3900   11.8310   29.9200 O.co2     1 FAD1505     0.0000 
      3 O2A       -22.6430   10.2670   31.5490 O.co2     1 FAD1505     0.0000 
      4 O5B       -23.8510   11.6180   29.8190 O.3       1 FAD1505     0.0000 
      5 C5B       -23.8970   12.2820   28.5570 C.3       1 FAD1505     0.0000 
      6 C4B       -25.2180   13.0370   28.3390 C.3       1 FAD1505     0.0000 
      7 O4B       -26.3200   12.1400   28.2010 O.3       1 FAD1505     0.0000 
      8 C3B       -25.5450   13.9080   29.5500 C.3       1 FAD1505     0.0000 
      9 O3B       -26.0570   15.1360   29.0730 O.3       1 FAD1505     0.0000 
     10 C2B       -26.5600   13.1550   30.3570 C.3       1 FAD1505     0.0000 
     11 O2B       -27.4630   13.9670   31.1720 O.3       1 FAD1505     0.0000 
     12 C1B       -27.2690   12.4430   29.2460 C.3       1 FAD1505     0.0000 
     13 N9A       -27.8450   11.1370   29.5200 N.pl3     1 FAD1505     0.0000 
     14 C8A       -27.1790    9.9820   29.7350 C.2       1 FAD1505     0.0000 
     15 N7A       -28.0410    8.9730   29.8470 N.2       1 FAD1505     0.0000 
     16 C5A       -29.2560    9.4770   29.7050 C.ar      1 FAD1505     0.0000 
     17 C6A       -30.6100    8.9150   29.7400 C.ar      1 FAD1505     0.0000 
     18 N6A       -30.7960    7.5930   29.9290 N.pl3     1 FAD1505     0.0000 
     19 N1A       -31.5970    9.8090   29.5550 N.ar      1 FAD1505     0.0000 
     20 C2A       -31.3870   11.1170   29.3530 C.ar      1 FAD1505     0.0000 
     21 N3A       -30.2000   11.7190   29.3090 N.ar      1 FAD1505     0.0000 
     22 C4A       -29.1360   10.9150   29.4990 C.ar      1 FAD1505     0.0000 
     23 N1        -18.7600    9.8520   20.2910 N.2       1 FAD1505     0.0000 
     24 C2        -19.0270    9.4790   19.0190 C.2       1 FAD1505     0.0000 
     25 O2        -20.2000    9.6480   18.5300 O.2       1 FAD1505     0.0000 
     26 N3        -18.0520    8.9480   18.2510 N.am      1 FAD1505     0.0000 
     27 C4        -16.7820    8.7090   18.6690 C.2       1 FAD1505     0.0000 
     28 O4        -15.9300    8.1820   17.9380 O.2       1 FAD1505     0.0000 
     29 C4X       -16.4150    9.1020   20.0260 C.2       1 FAD1505     0.0000 
     30 N5        -15.1850    8.8820   20.5460 N.2       1 FAD1505     0.0000 
     31 C5X       -14.9210    9.2910   21.8130 C.ar      1 FAD1505     0.0000 
     32 C6        -13.6490    9.1740   22.3380 C.ar      1 FAD1505     0.0000 
     33 C7        -13.3230    9.6150   23.6120 C.ar      1 FAD1505     0.0000 
     34 C7M       -11.9100    9.4750   24.1190 C.3       1 FAD1505     0.0000 
     35 C8        -14.3650   10.2260   24.4330 C.ar      1 FAD1505     0.0000 
     36 C8M       -14.0950   10.6620   25.8410 C.3       1 FAD1505     0.0000 
     37 C9        -15.6620   10.3570   23.9310 C.ar      1 FAD1505     0.0000 
     38 C9A       -15.9610    9.9350   22.6160 C.ar      1 FAD1505     0.0000 
     39 N10       -17.2700   10.0640   22.0960 N.pl3     1 FAD1505     0.0000 
     40 C10       -17.5290    9.6840   20.8050 C.2       1 FAD1505     0.0000 
     41 C1'       -18.3460   10.6600   22.9180 C.3       1 FAD1505     0.0000 
     42 C2'       -18.7780    9.8010   24.1500 C.3       1 FAD1505     0.0000 
     43 O2'       -17.8960    8.6980   24.4830 O.3       1 FAD1505     0.0000 
     44 C3'       -20.1450    9.1950   23.9570 C.3       1 FAD1505     0.0000 
     45 O3'       -21.0480   10.2510   23.5430 O.3       1 FAD1505     0.0000 
     46 C4'       -20.6910    8.4340   25.1690 C.3       1 FAD1505     0.0000 
     47 O4'       -21.6140    7.4950   24.6010 O.3       1 FAD1505     0.0000 
     48 C5'       -21.4270    9.2330   26.2250 C.3       1 FAD1505     0.0000 
     49 O5'       -21.9940    8.3100   27.1550 O.3       1 FAD1505     0.0000 
     50 P         -21.7810    8.4240   28.7430 P.3       1 FAD1505     0.0000 
     51 O1P       -22.5640    7.3490   29.4190 O.co2     1 FAD1505     0.0000 
     52 O2P       -20.3040    8.5650   28.9840 O.co2     1 FAD1505     0.0000 
     53 O3P       -22.4450    9.8500   28.9210 O.3       1 FAD1505     0.0000 
@<TRIPOS>BOND
     1    1    2 ar   
     2    1    3 ar   
     3    1    4 1    
     4    1   53 1    
     5    4    5 1    
     6    5    6 1    
     7    6    7 1    
     8    6    8 1    
     9    7   12 1    
    10    8    9 1    
    11    8   10 1    
    12   10   11 1    
    13   10   12 1    
    14   12   13 1    
    15   13   14 1    
    16   13   22 1    
    17   14   15 2    
    18   15   16 1    
    19   16   17 ar   
    20   16   22 ar   
    21   17   18 1    
    22   17   19 ar   
    23   19   20 ar   
    24   20   21 ar   
    25   21   22 ar   
    26   23   24 1    
    27   23   40 2    
    28   24   25 2    
    29   24   26 am   
    30   26   27 am   
    31   27   28 2    
    32   27   29 1    
    33   29   30 2    
    34   29   40 1    
    35   30   31 1    
    36   31   32 ar   
    37   31   38 ar   
    38   32   33 ar   
    39   33   34 1    
    40   33   35 ar   
    41   35   36 1    
    42   35   37 ar   
    43   37   38 ar   
    44   38   39 1    
    45   39   40 1    
    46   39   41 1    
    47   41   42 1    
    48   42   43 1    
    49   42   44 1    
    50   44   45 1    
    51   44   46 1    
    52   46   47 1    
    53   46   48 1    
    54   48   49 1    
    55   49   50 1    
    56   50   51 ar   
    57   50   52 ar   
    58   50   53 1    
@<TRIPOS>SUBSTRUCTURE
     1 FAD1505     1 GROUP   
@<TRIPOS>SET
ATOM$ORANGE STATIC     ATOMS   COLORGROUP SYSTEM 
54 5 5 6 6 8 8 10 10 12 12 14 14 16 16 17 17 20 \
20 22 22 24 24 27 27 29 29 31 31 32 32 33 33 34 34 35 \
35 36 36 37 37 38 38 40 40 41 41 42 42 44 44 46 46 48 \
48 

