#    Name: 5o0y_1_AGS
#    Modification time : Fri May 22 19:12:40 2020

@<TRIPOS>MOLECULE
5o0y_1_AGS
   31    33     1     0     0
SMALL
NO_CHARGES


@<TRIPOS>ATOM
      1 PG         -8.1330  -33.3490   21.2220 P.3       1 AGS801      0.0000 
      2 S1G        -7.7860  -31.3900   20.6210 S.2       1 AGS801      0.0000 
      3 O2G        -7.5650  -33.5650   22.7160 O.3       1 AGS801      0.0000 
      4 O3G        -7.4580  -34.2920   20.3000 O.3       1 AGS801      0.0000 
      5 PB        -10.5370  -33.7440   19.8120 P.3       1 AGS801      0.0000 
      6 O1B       -10.0610  -34.9810   19.0840 O.co2     1 AGS801      0.0000 
      7 O2B       -10.4670  -32.3970   19.1280 O.co2     1 AGS801      0.0000 
      8 O3B        -9.7190  -33.6470   21.1990 O.3       1 AGS801      0.0000 
      9 PA        -12.9720  -33.0310   21.1840 P.3       1 AGS801      0.0000 
     10 O1A       -14.1420  -32.5760   20.3430 O.co2     1 AGS801      0.0000 
     11 O2A       -12.1190  -32.0040   21.8910 O.co2     1 AGS801      0.0000 
     12 O3A       -12.0600  -34.0190   20.2800 O.3       1 AGS801      0.0000 
     13 O5'       -13.5560  -34.0420   22.2970 O.3       1 AGS801      0.0000 
     14 C5'       -14.1320  -35.3010   21.9300 C.3       1 AGS801      0.0000 
     15 C4'       -15.4740  -35.5540   22.6210 C.3       1 AGS801      0.0000 
     16 O4'       -15.6390  -34.7530   23.7980 O.3       1 AGS801      0.0000 
     17 C3'       -16.6730  -35.2540   21.7320 C.3       1 AGS801      0.0000 
     18 O3'       -17.0710  -36.4080   20.9810 O.3       1 AGS801      0.0000 
     19 C2'       -17.7440  -34.7910   22.7010 C.3       1 AGS801      0.0000 
     20 O2'       -18.6100  -35.8690   23.0820 O.3       1 AGS801      0.0000 
     21 C1'       -16.9890  -34.2860   23.9240 C.3       1 AGS801      0.0000 
     22 N9        -17.0460  -32.7980   24.0330 N.pl3     1 AGS801      0.0000 
     23 C8        -16.0750  -31.9170   23.7030 C.2       1 AGS801      0.0000 
     24 N7        -16.4670  -30.6390   23.9420 N.2       1 AGS801      0.0000 
     25 C5        -17.7120  -30.6850   24.4360 C.ar      1 AGS801      0.0000 
     26 C6        -18.7140  -29.6960   24.9000 C.ar      1 AGS801      0.0000 
     27 N6        -18.4420  -28.3690   24.8770 N.pl3     1 AGS801      0.0000 
     28 N1        -19.9050  -30.1690   25.3460 N.ar      1 AGS801      0.0000 
     29 C2        -20.1920  -31.4930   25.3760 C.ar      1 AGS801      0.0000 
     30 N3        -19.3220  -32.4410   24.9680 N.ar      1 AGS801      0.0000 
     31 C4        -18.0900  -32.1090   24.4970 C.ar      1 AGS801      0.0000 
@<TRIPOS>BOND
     1    1    2 2    
     2    1    3 1    
     3    1    4 1    
     4    1    8 1    
     5    5    6 ar   
     6    5    7 ar   
     7    5    8 1    
     8    5   12 1    
     9    9   10 ar   
    10    9   11 ar   
    11    9   12 1    
    12    9   13 1    
    13   13   14 1    
    14   14   15 1    
    15   15   16 1    
    16   15   17 1    
    17   16   21 1    
    18   17   18 1    
    19   17   19 1    
    20   19   20 1    
    21   19   21 1    
    22   21   22 1    
    23   22   23 1    
    24   22   31 1    
    25   23   24 2    
    26   24   25 1    
    27   25   26 ar   
    28   25   31 ar   
    29   26   27 1    
    30   26   28 ar   
    31   28   29 ar   
    32   29   30 ar   
    33   30   31 ar   
@<TRIPOS>SUBSTRUCTURE
     1 AGS801      1 GROUP   
@<TRIPOS>SET

