#    Name: 6d0y_1_GTA_CAVITY_N1_4
#    Modification time : Fri May 22 19:33:55 2020

@<TRIPOS>MOLECULE
6d0y_1_GTA_CAVITY_N1_4
   72     0     6     0     0
SMALL
NO_CHARGES


@<TRIPOS>ATOM
      1 OG         83.7600  138.8300   57.9300 O.3       1 SER1        0.0000 
      2 OG         83.0300  137.9000   59.6900 O.3       1 SER1        0.0000 
      3 OG         82.4800  135.6300   62.1000 O.3       1 SER1        0.0000 
      4 OG         82.0900  138.3000   60.8000 O.3       1 SER1        0.0000 
      5 OG         81.5500  136.0300   63.2000 O.3       1 SER1        0.0000 
      6 OG         82.7100  136.5700   63.9800 O.3       1 SER1        0.0000 
      7 OG         82.5200  137.9100   63.3300 O.3       1 SER1        0.0000 
      8 OG         83.6800  138.4600   64.1100 O.3       1 SER1        0.0000 
      9 OG         83.4900  139.8000   63.4600 O.3       1 SER1        0.0000 
     10 OG         84.8400  139.0000   64.8900 O.3       1 SER1        0.0000 
     11 N          80.5800  134.1500   63.0700 N.am      2 ALA2        0.0000 
     12 O          81.9000  139.6400   60.1500 O.2       2 ALA2        0.0000 
     13 O          81.7100  140.9800   59.5000 O.2       2 ALA2        0.0000 
     14 O          81.1600  138.7100   61.9000 O.2       2 ALA2        0.0000 
     15 O          80.2300  139.1100   63.0100 O.2       2 ALA2        0.0000 
     16 O          80.0400  140.4500   62.3600 O.2       2 ALA2        0.0000 
     17 O          79.5000  138.1700   64.7600 O.2       2 ALA2        0.0000 
     18 O          79.3000  139.5100   64.1100 O.2       2 ALA2        0.0000 
     19 O          83.0600  140.1900   60.9200 O.2       2 ALA2        0.0000 
     20 O          82.1300  140.5900   62.0300 O.2       2 ALA2        0.0000 
     21 O          81.9400  141.9300   61.3800 O.2       2 ALA2        0.0000 
     22 O          81.2000  140.9900   63.1300 O.2       2 ALA2        0.0000 
     23 OD1        82.6700  134.2900   62.7500 O.co2     3 ASP3        0.0000 
     24 OD1        81.7400  134.6900   63.8500 O.co2     3 ASP3        0.0000 
     25 OD1        80.8100  135.0900   64.9600 O.co2     3 ASP3        0.0000 
     26 OD1        80.6200  136.4300   64.3100 O.co2     3 ASP3        0.0000 
     27 OD1        85.6600  140.3100   56.9600 O.co2     3 ASP3        0.0000 
     28 OD1        84.7300  140.7200   58.0600 O.co2     3 ASP3        0.0000 
     29 OD1        83.9100  139.4100   65.9900 O.co2     3 ASP3        0.0000 
     30 OD1        85.0700  139.9500   66.7700 O.co2     3 ASP3        0.0000 
     31 CZ         81.5100  133.7400   61.9700 C.ar      4 PHE5        0.0000 
     32 CZ         81.3200  135.0800   61.3200 C.ar      4 PHE5        0.0000 
     33 CZ         80.3900  135.4800   62.4200 C.ar      4 PHE5        0.0000 
     34 CZ         80.2000  136.8200   61.7700 C.ar      4 PHE5        0.0000 
     35 CZ         79.4600  135.8900   63.5300 C.ar      4 PHE5        0.0000 
     36 CZ         79.2700  137.2300   62.8800 C.ar      4 PHE5        0.0000 
     37 CZ         84.3400  134.8200   59.8900 C.ar      4 PHE5        0.0000 
     38 CZ         84.1500  136.1600   59.2400 C.ar      4 PHE5        0.0000 
     39 CZ         83.9600  137.5000   58.5900 C.ar      4 PHE5        0.0000 
     40 CZ         83.4100  135.2200   60.9900 C.ar      4 PHE5        0.0000 
     41 CZ         83.2200  136.5600   60.3400 C.ar      4 PHE5        0.0000 
     42 CZ         82.2900  136.9600   61.4500 C.ar      4 PHE5        0.0000 
     43 CZ         85.1200  138.0400   59.3600 C.ar      4 PHE5        0.0000 
     44 CZ         84.9200  139.3800   58.7100 C.ar      4 PHE5        0.0000 
     45 CZ         84.1900  138.4400   60.4700 C.ar      4 PHE5        0.0000 
     46 CZ         83.9900  139.7800   59.8200 C.ar      4 PHE5        0.0000 
     47 CZ         83.2600  138.8500   61.5700 C.ar      4 PHE5        0.0000 
     48 CZ         87.0100  139.5200   58.3900 C.ar      4 PHE5        0.0000 
     49 CZ         86.0800  139.9200   59.4900 C.ar      4 PHE5        0.0000 
     50 CZ         85.8900  141.2600   58.8400 C.ar      4 PHE5        0.0000 
     51 CZ         84.4200  139.3900   62.3500 C.ar      4 PHE5        0.0000 
     52 CZ         84.2200  140.7300   61.7000 C.ar      4 PHE5        0.0000 
     53 CZ         84.6500  140.3400   64.2400 C.ar      4 PHE5        0.0000 
     54 CA         79.0700  138.5600   62.2300 C.3       5 GLY6        0.0000 
     55 CA         78.3400  137.6300   63.9800 C.3       5 GLY6        0.0000 
     56 CA         80.4300  137.7700   63.6600 C.3       5 GLY6        0.0000 
     57 CA         83.6100  142.4600   58.5200 C.3       5 GLY6        0.0000 
     58 CA         82.8700  141.5200   60.2700 C.3       5 GLY6        0.0000 
     59 CA         81.5900  138.3200   64.4300 C.3       5 GLY6        0.0000 
     60 CA         81.4000  139.6500   63.7800 C.3       5 GLY6        0.0000 
     61 CA         80.4600  140.0600   64.8900 C.3       5 GLY6        0.0000 
     62 CA         83.1000  142.4700   62.1600 C.3       5 GLY6        0.0000 
     63 CA         82.7500  138.8600   65.2100 C.3       5 GLY6        0.0000 
     64 CA         82.5600  140.2000   64.5600 C.3       5 GLY6        0.0000 
     65 CA         82.3600  141.5400   63.9100 C.3       5 GLY6        0.0000 
     66 CA         81.6300  140.6000   65.6700 C.3       5 GLY6        0.0000 
     67 CA         83.7200  140.7400   65.3400 C.3       5 GLY6        0.0000 
     68 CA         83.5200  142.0800   64.6900 C.3       5 GLY6        0.0000 
     69 CA         82.7900  141.1500   66.4500 C.3       5 GLY6        0.0000 
     70 DU         81.3600  137.3700   62.5500 H         6 CUB7        0.0000 
     71 DU         82.3300  139.2500   62.6800 H         6 CUB7        0.0000 
     72 DU         83.2900  141.1300   62.8100 H         6 CUB7        0.0000 
@<TRIPOS>BOND
@<TRIPOS>SUBSTRUCTURE
     1 SER1        1 GROUP   
     2 ALA2       11 GROUP   
     3 ASP3       23 GROUP   
     4 PHE5       31 GROUP   
     5 GLY6       54 GROUP   
     6 CUB7       70 GROUP   
@<TRIPOS>SET

