#    Name: 6d0y_1_GTA
#    Modification time : Fri May 22 19:33:53 2020

@<TRIPOS>MOLECULE
6d0y_1_GTA
   78    83     1     0     0
SMALL
NO_CHARGES


@<TRIPOS>ATOM
      1 N2         86.3720  132.7720   59.1640 N.pl3     1 GTA201      0.0000 
      2 O6         86.2080  137.4380   58.0110 O.2       1 GTA201      0.0000 
      3 C6         85.7540  136.4980   58.6540 C.2       1 GTA201      0.0000 
      4 C5         84.5820  136.7140   59.5860 C.2       1 GTA201      0.0000 
      5 N7         83.8500  137.8270   59.9000 N.pl3     1 GTA201      0.0000 
      6 C7         83.9160  139.1890   59.4740 C.3       1 GTA201      0.0000 
      7 C8         82.8960  137.4610   60.8040 C.2       1 GTA201      0.0000 
      8 N9         83.0450  136.1270   61.0520 N.pl3     1 GTA201      0.0000 
      9 C4         84.0810  135.6640   60.3020 C.2       1 GTA201      0.0000 
     10 N3         84.6680  134.3330   60.1720 N.2       1 GTA201      0.0000 
     11 C2         85.7900  134.1150   59.2850 C.2       1 GTA201      0.0000 
     12 N1         86.3270  135.2100   58.5310 N.am      1 GTA201      0.0000 
     13 O3A        81.2800  133.7590   64.0620 O.3       1 GTA201      0.0000 
     14 C1A        82.2850  135.3350   61.9010 C.3       1 GTA201      0.0000 
     15 C2A        82.6280  135.5020   63.1690 C.3       1 GTA201      0.0000 
     16 C3A        81.3490  135.0910   63.9180 C.3       1 GTA201      0.0000 
     17 C4A        80.1850  135.6060   62.9850 C.3       1 GTA201      0.0000 
     18 C5A        79.6480  136.9450   63.5180 C.3       1 GTA201      0.0000 
     19 O4A        80.7090  135.7730   61.8020 O.3       1 GTA201      0.0000 
     20 O2A        83.7550  134.6300   63.5270 O.3       1 GTA201      0.0000 
     21 P1         80.6190  139.3470   63.5290 P.3       1 GTA201      0.0000 
     22 O11        80.7280  139.6290   62.0490 O.co2     1 GTA201      0.0000 
     23 O12        79.2650  139.8200   64.0120 O.co2     1 GTA201      0.0000 
     24 O13        81.7790  140.1240   64.3250 O.3       1 GTA201      0.0000 
     25 O15        80.7340  137.7820   63.8230 O.3       1 GTA201      0.0000 
     26 P2         83.3730  139.8030   64.2370 P.3       1 GTA201      0.0000 
     27 O22        83.7680  139.5430   62.8080 O.co2     1 GTA201      0.0000 
     28 O21        83.7010  138.5790   65.0750 O.co2     1 GTA201      0.0000 
     29 O23        84.1800  141.0370   64.7960 O.3       1 GTA201      0.0000 
     30 P3         85.2000  141.9500   63.9550 P.3       1 GTA201      0.0000 
     31 O32        86.3350  141.0820   63.3800 O.co2     1 GTA201      0.0000 
     32 O31        85.8080  143.0000   64.8940 O.co2     1 GTA201      0.0000 
     33 O33        84.4370  142.7060   62.7420 O.3       1 GTA201      0.0000 
     34 C5B        85.2020  143.6280   61.9720 C.3       1 GTA201      0.0000 
     35 C4B        84.3010  144.7270   61.3800 C.3       1 GTA201      0.0000 
     36 O4B        83.8150  145.5340   62.3200 O.3       1 GTA201      0.0000 
     37 C3B        85.1160  145.6510   60.5160 C.3       1 GTA201      0.0000 
     38 O3B        85.2920  145.1370   59.2690 O.3       1 GTA201      0.0000 
     39 C2B        84.2260  146.9230   60.4850 C.3       1 GTA201      0.0000 
     40 O2B        83.1070  146.7410   59.5080 O.3       1 GTA201      0.0000 
     41 C1B        83.7550  147.0170   61.6960 C.3       1 GTA201      0.0000 
     42 N9C        84.5270  147.9280   62.5380 N.pl3     1 GTA201      0.0000 
     43 C8C        84.7770  147.6900   63.8420 C.2       1 GTA201      0.0000 
     44 N7C        85.5040  148.7210   64.3320 N.2       1 GTA201      0.0000 
     45 C5C        85.7030  149.6090   63.3240 C.ar      1 GTA201      0.0000 
     46 C6C        86.3750  150.8260   63.2750 C.ar      1 GTA201      0.0000 
     47 N6C        87.1090  151.6300   64.2120 N.pl3     1 GTA201      0.0000 
     48 N1C        86.4260  151.5220   62.1350 N.ar      1 GTA201      0.0000 
     49 C2C        85.8180  151.0360   61.0130 C.ar      1 GTA201      0.0000 
     50 N3C        85.1580  149.8430   61.0580 N.ar      1 GTA201      0.0000 
     51 C4C        85.1010  149.1280   62.2190 C.ar      1 GTA201      0.0000 
     52 HN21       86.0210  132.0720   59.6520 H         1 GTA201      0.0000 
     53 HN22       87.0950  132.6270   58.5930 H         1 GTA201      0.0000 
     54 H71        84.7970  139.5300   59.6320 H         1 GTA201      0.0000 
     55 H72        83.2630  139.7230   59.9780 H         1 GTA201      0.0000 
     56 H73        83.7090  139.2420   58.5080 H         1 GTA201      0.0000 
     57 H8         82.2260  138.0520   61.2090 H         1 GTA201      0.0000 
     58 HN1        87.0470  135.0730   57.9590 H         1 GTA201      0.0000 
     59 HO3A       80.6350  133.5570   64.6380 H         1 GTA201      0.0000 
     60 H1A        82.3840  134.3840   61.6510 H         1 GTA201      0.0000 
     61 H2A        82.8440  136.4340   63.3450 H         1 GTA201      0.0000 
     62 H3A        81.3080  135.5340   64.7960 H         1 GTA201      0.0000 
     63 H4A        79.4790  134.9560   62.9450 H         1 GTA201      0.0000 
     64 H5A1       79.0850  137.3670   62.8590 H         1 GTA201      0.0000 
     65 H5A2       79.1350  136.7850   64.3160 H         1 GTA201      0.0000 
     66 HO2A       84.1050  134.9000   64.2820 H         1 GTA201      0.0000 
     67 H5B1       85.8730  144.0380   62.5390 H         1 GTA201      0.0000 
     68 H5B2       85.6380  143.1550   61.2560 H         1 GTA201      0.0000 
     69 H4B        83.5840  144.3340   60.8700 H         1 GTA201      0.0000 
     70 H3B        85.9710  145.8430   60.9310 H         1 GTA201      0.0000 
     71 HO3B       86.1050  144.8200   59.1950 H         1 GTA201      0.0000 
     72 H2B        84.7650  147.7200   60.2560 H         1 GTA201      0.0000 
     73 HO2B       83.4390  146.6920   58.6820 H         1 GTA201      0.0000 
     74 H1B        82.8130  147.3210   61.6590 H         1 GTA201      0.0000 
     75 H8C        84.4980  146.9360   64.3270 H         1 GTA201      0.0000 
     76 HN61       86.6820  152.2960   64.6800 H         1 GTA201      0.0000 
     77 HN62       88.0120  151.4770   64.3450 H         1 GTA201      0.0000 
     78 H2C        85.8530  151.5390   60.1880 H         1 GTA201      0.0000 
@<TRIPOS>BOND
     1    1   11 1    
     2    1   52 1    
     3    1   53 1    
     4    2    3 2    
     5    3    4 1    
     6    3   12 am   
     7    4    5 1    
     8    4    9 2    
     9    5    6 1    
    10    5    7 2    
    11    6   54 1    
    12    6   55 1    
    13    6   56 1    
    14    7    8 1    
    15    7   57 1    
    16    8    9 1    
    17    8   14 1    
    18    9   10 1    
    19   10   11 2    
    20   11   12 1    
    21   12   58 1    
    22   13   16 1    
    23   14   15 1    
    24   13   59 1    
    25   14   19 1    
    26   14   60 1    
    27   15   61 1    
    28   15   16 1    
    29   15   20 1    
    30   16   17 1    
    31   16   62 1    
    32   17   18 1    
    33   17   19 1    
    34   17   63 1    
    35   18   25 1    
    36   18   64 1    
    37   18   65 1    
    38   21   22 ar   
    39   20   66 1    
    40   21   23 ar   
    41   21   24 1    
    42   21   25 1    
    43   24   26 1    
    44   26   27 ar   
    45   26   28 ar   
    46   26   29 1    
    47   29   30 1    
    48   30   31 ar   
    49   30   32 ar   
    50   30   33 1    
    51   33   34 1    
    52   34   35 1    
    53   34   67 1    
    54   34   68 1    
    55   35   36 1    
    56   35   37 1    
    57   35   69 1    
    58   36   41 1    
    59   37   38 1    
    60   37   39 1    
    61   37   70 1    
    62   38   71 1    
    63   39   40 1    
    64   39   41 1    
    65   39   72 1    
    66   41   74 1    
    67   41   42 1    
    68   40   73 1    
    69   42   43 1    
    70   42   51 1    
    71   43   44 2    
    72   44   45 1    
    73   43   75 1    
    74   45   46 ar   
    75   45   51 ar   
    76   46   47 1    
    77   46   48 ar   
    78   47   76 1    
    79   47   77 1    
    80   48   49 ar   
    81   49   50 ar   
    82   49   78 1    
    83   50   51 ar   
@<TRIPOS>SUBSTRUCTURE
     1 GTA201      1 GROUP   
@<TRIPOS>SET

