#    Name: 6azy_1_ADP
#    Modification time : Fri May 22 19:29:12 2020

@<TRIPOS>MOLECULE
6azy_1_ADP
   27    29     1     0     1
SMALL
NO_CHARGES


@<TRIPOS>ATOM
      1 PB         15.0290   25.2190   45.4000 P.3       1 ADP901      0.0000 
      2 O1B        14.5920   25.4450   44.0490 O.co2     1 ADP901      0.0000 
      3 O2B        15.3720   23.8080   45.5730 O.co2     1 ADP901      0.0000 
      4 O3B        13.9960   25.6430   46.3760 O.co2     1 ADP901      0.0000 
      5 PA         16.7610   27.0530   46.8840 P.3       1 ADP901      0.0000 
      6 O1A        15.8220   28.2380   47.0330 O.co2     1 ADP901      0.0000 
      7 O2A        16.8550   26.2660   48.1400 O.co2     1 ADP901      0.0000 
      8 O3A        16.3230   26.1180   45.6600 O.3       1 ADP901      0.0000 
      9 O5'        18.1610   27.5390   46.3880 O.3       1 ADP901      0.0000 
     10 C5'        19.3480   26.7570   46.5400 C.3       1 ADP901      0.0000 
     11 C4'        20.3850   27.5450   47.3010 C.3       1 ADP901      0.0000 
     12 O4'        20.7750   28.6970   46.5210 O.3       1 ADP901      0.0000 
     13 C3'        19.9510   28.0920   48.6590 C.3       1 ADP901      0.0000 
     14 O3'        21.0590   28.2550   49.5430 O.3       1 ADP901      0.0000 
     15 C2'        19.4300   29.4840   48.3080 C.3       1 ADP901      0.0000 
     16 O2'        19.5650   30.3540   49.4200 O.3       1 ADP901      0.0000 
     17 C1'        20.3860   29.8880   47.1860 C.3       1 ADP901      0.0000 
     18 N9         19.8070   30.7820   46.1900 N.pl3     1 ADP901      0.0000 
     19 C8         19.0150   30.4440   45.1270 C.2       1 ADP901      0.0000 
     20 N7         18.7360   31.4490   44.3340 N.2       1 ADP901      0.0000 
     21 C5         19.3760   32.5220   44.9250 C.ar      1 ADP901      0.0000 
     22 C6         19.4520   33.8870   44.5890 C.ar      1 ADP901      0.0000 
     23 N6         18.8290   34.4230   43.5370 N.pl3     1 ADP901      0.0000 
     24 N1         20.1670   34.6910   45.4010 N.ar      1 ADP901      0.0000 
     25 C2         20.7510   34.1650   46.4780 C.ar      1 ADP901      0.0000 
     26 N3         20.7400   32.9020   46.9020 N.ar      1 ADP901      0.0000 
     27 C4         20.0380   32.1290   46.0740 C.ar      1 ADP901      0.0000 
@<TRIPOS>BOND
     1    1    2 ar   
     2    1    3 ar   
     3    1    4 ar   
     4    1    8 1    
     5    5    6 ar   
     6    5    7 ar   
     7    5    8 1    
     8    5    9 1    
     9    9   10 1    
    10   10   11 1    
    11   11   12 1    
    12   11   13 1    
    13   12   17 1    
    14   13   14 1    
    15   13   15 1    
    16   15   16 1    
    17   15   17 1    
    18   17   18 1    
    19   18   19 1    
    20   18   27 1    
    21   19   20 2    
    22   20   21 1    
    23   21   22 ar   
    24   21   27 ar   
    25   22   23 1    
    26   22   24 ar   
    27   24   25 ar   
    28   25   26 ar   
    29   26   27 ar   
@<TRIPOS>SUBSTRUCTURE
     1 ADP901      1 GROUP   
@<TRIPOS>SET
ATOM$ORANGE STATIC     ATOMS   COLORGROUP SYSTEM 
20 10 10 11 11 13 13 15 15 17 17 19 19 21 21 22 22 25 \
25 27 27 

