#    Name: 6azy_2_ADP
#    Modification time : Fri May 22 19:29:22 2020

@<TRIPOS>MOLECULE
6azy_2_ADP
   27    29     1     0     1
SMALL
NO_CHARGES


@<TRIPOS>ATOM
      1 PB         32.1080    2.0970   12.7530 P.3       1 ADP902      0.0000 
      2 O1B        31.3690    1.2020   11.7470 O.co2     1 ADP902      0.0000 
      3 O2B        32.9330    3.1630   11.9790 O.co2     1 ADP902      0.0000 
      4 O3B        31.0730    2.8000   13.6760 O.co2     1 ADP902      0.0000 
      5 PA         33.0380    0.9530   15.2560 P.3       1 ADP902      0.0000 
      6 O1A        31.8110    0.0680   15.6280 O.co2     1 ADP902      0.0000 
      7 O2A        32.9820    2.2590   15.9880 O.co2     1 ADP902      0.0000 
      8 O3A        33.0800    1.2020   13.6680 O.3       1 ADP902      0.0000 
      9 O5'        34.3880    0.1800   15.5800 O.3       1 ADP902      0.0000 
     10 C5'        34.4200   -0.9170   16.5290 C.3       1 ADP902      0.0000 
     11 C4'        35.6730   -0.8120   17.3670 C.3       1 ADP902      0.0000 
     12 O4'        36.7710   -0.5150   16.4890 O.3       1 ADP902      0.0000 
     13 C3'        35.6250    0.2750   18.4410 C.3       1 ADP902      0.0000 
     14 O3'        35.5920   -0.3050   19.7420 O.3       1 ADP902      0.0000 
     15 C2'        36.8920    1.1150   18.2190 C.3       1 ADP902      0.0000 
     16 O2'        37.6880    1.1840   19.4020 O.3       1 ADP902      0.0000 
     17 C1'        37.6500    0.4040   17.0880 C.3       1 ADP902      0.0000 
     18 N9         38.1380    1.3120   16.0540 N.pl3     1 ADP902      0.0000 
     19 C8         37.5450    1.5920   14.8530 C.2       1 ADP902      0.0000 
     20 N7         38.1600    2.5070   14.1380 N.2       1 ADP902      0.0000 
     21 C5         39.2470    2.8550   14.9410 C.ar      1 ADP902      0.0000 
     22 C6         40.2780    3.8020   14.7670 C.ar      1 ADP902      0.0000 
     23 N6         40.4450    4.5260   13.6610 N.pl3     1 ADP902      0.0000 
     24 N1         41.1720    3.9350   15.7730 N.ar      1 ADP902      0.0000 
     25 C2         41.0550    3.1480   16.8500 C.ar      1 ADP902      0.0000 
     26 N3         40.1400    2.2100   17.1100 N.ar      1 ADP902      0.0000 
     27 C4         39.2470    2.1240   16.1120 C.ar      1 ADP902      0.0000 
@<TRIPOS>BOND
     1    1    3 ar   
     2    1    4 ar   
     3    1    8 1    
     4    1    2 ar   
     5    5    6 ar   
     6    5    7 ar   
     7    5    8 1    
     8    5    9 1    
     9    9   10 1    
    10   10   11 1    
    11   11   12 1    
    12   11   13 1    
    13   12   17 1    
    14   13   14 1    
    15   13   15 1    
    16   15   16 1    
    17   15   17 1    
    18   17   18 1    
    19   18   19 1    
    20   18   27 1    
    21   19   20 2    
    22   20   21 1    
    23   21   22 ar   
    24   21   27 ar   
    25   22   23 1    
    26   22   24 ar   
    27   24   25 ar   
    28   25   26 ar   
    29   26   27 ar   
@<TRIPOS>SUBSTRUCTURE
     1 ADP902      1 GROUP   
@<TRIPOS>SET
ATOM$ORANGE STATIC     ATOMS   COLORGROUP SYSTEM 
20 10 10 11 11 13 13 15 15 17 17 19 19 21 21 22 22 25 \
25 27 27 

