#    Name: 6j72_1_GTP
#    Modification time : Fri May 22 19:33:24 2020

@<TRIPOS>MOLECULE
6j72_1_GTP
   32    34     1     0     1
SMALL
NO_CHARGES


@<TRIPOS>ATOM
      1 PG          3.8910    9.7550   43.8640 P.3       1 GTP701      0.0000 
      2 O1G         2.6210   10.5530   43.6950 O.co2     1 GTP701      0.0000 
      3 O2G         3.9040    8.6050   42.8870 O.co2     1 GTP701      0.0000 
      4 O3G         5.0830   10.6470   43.6060 O.co2     1 GTP701      0.0000 
      5 O3B         3.9700    9.1840   45.3700 O.3       1 GTP701      0.0000 
      6 PB          3.7490   10.1500   46.6380 P.3       1 GTP701      0.0000 
      7 O1B         2.4620   10.9210   46.4780 O.co2     1 GTP701      0.0000 
      8 O2B         4.9190   11.0850   46.8280 O.co2     1 GTP701      0.0000 
      9 O3A         3.6060    9.1650   47.9020 O.3       1 GTP701      0.0000 
     10 PA          2.1850    8.5520   48.3430 P.3       1 GTP701      0.0000 
     11 O1A         1.4800    9.5170   49.2640 O.co2     1 GTP701      0.0000 
     12 O2A         1.3310    8.2100   47.1460 O.co2     1 GTP701      0.0000 
     13 O5'         2.5800    7.2170   49.1440 O.3       1 GTP701      0.0000 
     14 C5'         3.7760    6.5160   48.8900 C.3       1 GTP701      0.0000 
     15 C4'         3.6680    5.1820   49.6130 C.3       1 GTP701      0.0000 
     16 O4'         4.1380    5.3870   50.9280 O.3       1 GTP701      0.0000 
     17 C3'         2.2180    4.7350   49.7110 C.3       1 GTP701      0.0000 
     18 O3'         2.1110    3.3840   49.3280 O.3       1 GTP701      0.0000 
     19 C2'         1.8470    4.8720   51.1720 C.3       1 GTP701      0.0000 
     20 O2'         1.1510    3.7350   51.6240 O.3       1 GTP701      0.0000 
     21 C1'         3.1750    5.0180   51.8930 C.3       1 GTP701      0.0000 
     22 N9          3.0900    6.0800   52.9090 N.pl3     1 GTP701      0.0000 
     23 C8          2.7950    7.4040   52.7030 C.2       1 GTP701      0.0000 
     24 N7          2.8270    8.0380   53.8980 N.2       1 GTP701      0.0000 
     25 C5          3.1430    7.1400   54.8580 C.2       1 GTP701      0.0000 
     26 C6          3.3090    7.2500   56.2330 C.2       1 GTP701      0.0000 
     27 O6          3.1610    8.3360   56.7910 O.2       1 GTP701      0.0000 
     28 N1          3.6420    6.1290   56.9680 N.am      1 GTP701      0.0000 
     29 C2          3.8030    4.9110   56.3380 C.2       1 GTP701      0.0000 
     30 N2          4.1220    3.8300   57.0440 N.pl3     1 GTP701      0.0000 
     31 N3          3.6360    4.8120   54.9740 N.2       1 GTP701      0.0000 
     32 C4          3.3130    5.9070   54.2470 C.2       1 GTP701      0.0000 
@<TRIPOS>BOND
     1    1    2 ar   
     2    1    3 ar   
     3    1    4 ar   
     4    1    5 1    
     5    5    6 1    
     6    6    7 ar   
     7    6    8 ar   
     8    6    9 1    
     9    9   10 1    
    10   10   11 ar   
    11   10   12 ar   
    12   10   13 1    
    13   13   14 1    
    14   14   15 1    
    15   15   16 1    
    16   15   17 1    
    17   16   21 1    
    18   17   18 1    
    19   17   19 1    
    20   19   20 1    
    21   19   21 1    
    22   21   22 1    
    23   22   23 1    
    24   22   32 1    
    25   23   24 2    
    26   24   25 1    
    27   25   26 1    
    28   25   32 2    
    29   26   27 2    
    30   26   28 am   
    31   28   29 1    
    32   29   30 1    
    33   29   31 2    
    34   31   32 1    
@<TRIPOS>SUBSTRUCTURE
     1 GTP701      1 GROUP   
@<TRIPOS>SET
ATOM$ORANGE STATIC     ATOMS   COLORGROUP SYSTEM 
20 14 14 15 15 17 17 19 19 21 21 23 23 25 25 26 26 29 \
29 32 32 

