#    Name: 6kdy_1_NAD
#    Modification time : Fri May 22 19:27:20 2020

@<TRIPOS>MOLECULE
6kdy_1_NAD
   44    48     1     0     1
SMALL
NO_CHARGES


@<TRIPOS>ATOM
      1 PA         -8.8560    0.2480   -9.1160 P.3       1 NAD401      0.0000 
      2 O1A       -10.2170    0.4610   -9.7280 O.co2     1 NAD401      0.0000 
      3 O2A        -8.9440   -0.8000   -8.0260 O.co2     1 NAD401      0.0000 
      4 O5B        -7.7880   -0.2440  -10.2570 O.3       1 NAD401      0.0000 
      5 C5B        -6.4890    0.2420  -10.0850 C.3       1 NAD401      0.0000 
      6 C4B        -5.4940   -0.6240  -10.9410 C.3       1 NAD401      0.0000 
      7 O4B        -5.6350   -1.9480  -10.7970 O.3       1 NAD401      0.0000 
      8 C3B        -5.7960   -0.3100  -12.3880 C.3       1 NAD401      0.0000 
      9 O3B        -4.6390   -0.5660  -13.1030 O.3       1 NAD401      0.0000 
     10 C2B        -6.8420   -1.3910  -12.7010 C.3       1 NAD401      0.0000 
     11 O2B        -6.9810   -1.6430  -14.1530 O.3       1 NAD401      0.0000 
     12 C1B        -6.3450   -2.4390  -12.1470 C.3       1 NAD401      0.0000 
     13 N9A        -7.3440   -3.4310  -11.7630 N.pl3     1 NAD401      0.0000 
     14 C8A        -8.2170   -3.2010  -10.8040 C.2       1 NAD401      0.0000 
     15 N7A        -9.0350   -4.2210  -10.7160 N.2       1 NAD401      0.0000 
     16 C5A        -8.6560   -5.1370  -11.6320 C.ar      1 NAD401      0.0000 
     17 C6A        -9.1370   -6.3700  -11.9800 C.ar      1 NAD401      0.0000 
     18 N6A       -10.2690   -6.9960  -11.3680 N.pl3     1 NAD401      0.0000 
     19 N1A        -8.5590   -7.0780  -12.9380 N.ar      1 NAD401      0.0000 
     20 C2A        -7.4780   -6.5680  -13.5800 C.ar      1 NAD401      0.0000 
     21 N3A        -7.0100   -5.3760  -13.2600 N.ar      1 NAD401      0.0000 
     22 C4A        -7.5760   -4.6440  -12.2910 C.ar      1 NAD401      0.0000 
     23 O3         -8.2440    1.6590   -8.5360 O.3       1 NAD401      0.0000 
     24 PN         -8.4640    3.1740   -9.1180 P.3       1 NAD401      0.0000 
     25 O1N        -7.8570    3.3740  -10.4950 O.co2     1 NAD401      0.0000 
     26 O2N        -7.8750    4.2020   -8.1740 O.co2     1 NAD401      0.0000 
     27 O5D       -10.0720    3.3410   -9.2850 O.3       1 NAD401      0.0000 
     28 C5D       -10.7650    3.5600   -8.0990 C.3       1 NAD401      0.0000 
     29 C4D       -12.1240    4.0900   -8.3900 C.3       1 NAD401      0.0000 
     30 O4D       -12.9700    3.1100   -8.1170 O.3       1 NAD401      0.0000 
     31 C3D       -12.5180    5.3380   -7.3860 C.3       1 NAD401      0.0000 
     32 O3D       -13.7190    6.0300   -7.8290 O.3       1 NAD401      0.0000 
     33 C2D       -12.7900    4.7320   -6.2840 C.3       1 NAD401      0.0000 
     34 O2D       -13.6940    5.4830   -5.3560 O.3       1 NAD401      0.0000 
     35 C1D       -13.4250    3.3240   -6.7070 C.3       1 NAD401      0.0000 
     36 N1N       -13.0710    2.3460   -5.8950 N.pl3     1 NAD401      0.0000 
     37 C2N       -14.0610    1.5010   -5.4370 C.ar      1 NAD401      0.0000 
     38 C3N       -13.7820    0.5610   -4.4880 C.ar      1 NAD401      0.0000 
     39 C7N       -14.9220   -0.3700   -4.0280 C.2       1 NAD401      0.0000 
     40 O7N       -14.7440   -1.1230   -3.1070 O.2       1 NAD401      0.0000 
     41 N7N       -16.2410   -0.3770   -4.6240 N.am      1 NAD401      0.0000 
     42 C4N       -12.5130    0.3980   -4.0040 C.ar      1 NAD401      0.0000 
     43 C5N       -11.5560    1.2670   -4.4750 C.ar      1 NAD401      0.0000 
     44 C6N       -11.8240    2.2150   -5.4040 C.ar      1 NAD401      0.0000 
@<TRIPOS>BOND
     1    1    2 ar   
     2    1    3 ar   
     3    1    4 1    
     4    1   23 1    
     5    4    5 1    
     6    5    6 1    
     7    6    7 1    
     8    6    8 1    
     9    7   12 1    
    10    8    9 1    
    11    8   10 1    
    12   10   11 1    
    13   10   12 1    
    14   12   13 1    
    15   13   14 1    
    16   13   22 1    
    17   14   15 2    
    18   15   16 1    
    19   16   17 ar   
    20   16   22 ar   
    21   17   18 1    
    22   17   19 ar   
    23   19   20 ar   
    24   20   21 ar   
    25   21   22 ar   
    26   23   24 1    
    27   24   25 ar   
    28   24   26 ar   
    29   24   27 1    
    30   27   28 1    
    31   28   29 1    
    32   29   30 1    
    33   29   31 1    
    34   30   35 1    
    35   31   32 1    
    36   31   33 1    
    37   33   34 1    
    38   33   35 1    
    39   35   36 1    
    40   36   37 ar   
    41   36   44 ar   
    42   37   38 ar   
    43   38   39 1    
    44   38   42 ar   
    45   39   40 2    
    46   39   41 am   
    47   42   43 ar   
    48   43   44 ar   
@<TRIPOS>SUBSTRUCTURE
     1 NAD401      1 GROUP   
@<TRIPOS>SET
ATOM$ORANGE STATIC     ATOMS   COLORGROUP SYSTEM 
42 5 5 6 6 8 8 10 10 12 12 14 14 16 16 17 17 20 \
20 22 22 28 28 29 29 31 31 33 33 35 35 37 37 38 38 39 \
39 42 42 43 43 44 44 

