#    Name: 6kdy_3_NAD
#    Modification time : Fri May 22 19:27:43 2020

@<TRIPOS>MOLECULE
6kdy_3_NAD
   44    48     1     0     1
SMALL
NO_CHARGES


@<TRIPOS>ATOM
      1 PA         77.7780  -44.0900   40.4780 P.3       1 NAD401      0.0000 
      2 O1A        77.2450  -43.1000   39.4810 O.co2     1 NAD401      0.0000 
      3 O2A        78.9200  -43.5010   41.2500 O.co2     1 NAD401      0.0000 
      4 O5B        78.2470  -45.4530   39.6760 O.3       1 NAD401      0.0000 
      5 C5B        77.2680  -46.4580   39.7660 C.3       1 NAD401      0.0000 
      6 C4B        77.7350  -47.7410   38.9980 C.3       1 NAD401      0.0000 
      7 O4B        78.7750  -47.4920   38.2000 O.3       1 NAD401      0.0000 
      8 C3B        78.2230  -48.6830   40.0900 C.3       1 NAD401      0.0000 
      9 O3B        78.0270  -49.9780   39.6440 O.3       1 NAD401      0.0000 
     10 C2B        79.7290  -48.3010   40.1910 C.3       1 NAD401      0.0000 
     11 O2B        80.5540  -49.3810   40.8300 O.3       1 NAD401      0.0000 
     12 C1B        80.0730  -48.0890   38.9700 C.3       1 NAD401      0.0000 
     13 N9A        81.2030  -47.1590   38.7260 N.pl3     1 NAD401      0.0000 
     14 C8A        81.1420  -45.8330   38.8420 C.2       1 NAD401      0.0000 
     15 N7A        82.3200  -45.2970   38.5900 N.2       1 NAD401      0.0000 
     16 C5A        83.1550  -46.3150   38.2840 C.ar      1 NAD401      0.0000 
     17 C6A        84.4920  -46.3870   37.9310 C.ar      1 NAD401      0.0000 
     18 N6A        85.3840  -45.2740   37.8020 N.pl3     1 NAD401      0.0000 
     19 N1A        85.0740  -47.5580   37.6710 N.ar      1 NAD401      0.0000 
     20 C2A        84.3320  -48.7050   37.7600 C.ar      1 NAD401      0.0000 
     21 N3A        83.0470  -48.6600   38.0950 N.ar      1 NAD401      0.0000 
     22 C4A        82.4470  -47.4880   38.3570 C.ar      1 NAD401      0.0000 
     23 O3         76.6590  -44.6540   41.5380 O.3       1 NAD401      0.0000 
     24 PN         75.4450  -43.9000   42.3320 P.3       1 NAD401      0.0000 
     25 O1N        74.9360  -44.7850   43.4400 O.co2     1 NAD401      0.0000 
     26 O2N        74.3350  -43.6340   41.3550 O.co2     1 NAD401      0.0000 
     27 O5D        75.9570  -42.4760   42.9530 O.3       1 NAD401      0.0000 
     28 C5D        76.6040  -42.4330   44.1960 C.3       1 NAD401      0.0000 
     29 C4D        76.9070  -41.0460   44.5820 C.3       1 NAD401      0.0000 
     30 O4D        77.7250  -40.4840   43.6890 O.3       1 NAD401      0.0000 
     31 C3D        75.5310  -40.1480   44.6480 C.3       1 NAD401      0.0000 
     32 O3D        75.3020  -39.6990   46.0230 O.3       1 NAD401      0.0000 
     33 C2D        75.6660  -39.2130   43.7950 C.3       1 NAD401      0.0000 
     34 O2D        75.0480  -37.9200   44.2690 O.3       1 NAD401      0.0000 
     35 C1D        77.2220  -39.0950   43.5360 C.3       1 NAD401      0.0000 
     36 N1N        77.4760  -38.6490   42.3250 N.pl3     1 NAD401      0.0000 
     37 C2N        78.4430  -37.6390   42.2420 C.ar      1 NAD401      0.0000 
     38 C3N        78.7560  -37.1050   40.9650 C.ar      1 NAD401      0.0000 
     39 C7N        79.8420  -36.0260   40.6410 C.2       1 NAD401      0.0000 
     40 O7N        80.8900  -36.1880   40.0150 O.2       1 NAD401      0.0000 
     41 N7N        79.7840  -34.7850   41.3890 N.am      1 NAD401      0.0000 
     42 C4N        78.0930  -37.5890   39.9130 C.ar      1 NAD401      0.0000 
     43 C5N        77.1750  -38.5790   40.0090 C.ar      1 NAD401      0.0000 
     44 C6N        76.8220  -39.1050   41.1960 C.ar      1 NAD401      0.0000 
@<TRIPOS>BOND
     1    1    2 ar   
     2    1    3 ar   
     3    1    4 1    
     4    1   23 1    
     5    4    5 1    
     6    5    6 1    
     7    6    7 1    
     8    6    8 1    
     9    7   12 1    
    10    8    9 1    
    11    8   10 1    
    12   10   11 1    
    13   10   12 1    
    14   12   13 1    
    15   13   14 1    
    16   13   22 1    
    17   14   15 2    
    18   15   16 1    
    19   16   17 ar   
    20   16   22 ar   
    21   17   18 1    
    22   17   19 ar   
    23   19   20 ar   
    24   20   21 ar   
    25   21   22 ar   
    26   23   24 1    
    27   24   25 ar   
    28   24   26 ar   
    29   24   27 1    
    30   27   28 1    
    31   28   29 1    
    32   29   30 1    
    33   29   31 1    
    34   30   35 1    
    35   31   32 1    
    36   31   33 1    
    37   33   34 1    
    38   33   35 1    
    39   35   36 1    
    40   36   37 ar   
    41   36   44 ar   
    42   37   38 ar   
    43   38   39 1    
    44   38   42 ar   
    45   39   40 2    
    46   39   41 am   
    47   42   43 ar   
    48   43   44 ar   
@<TRIPOS>SUBSTRUCTURE
     1 NAD401      1 GROUP   
@<TRIPOS>SET
ATOM$ORANGE STATIC     ATOMS   COLORGROUP SYSTEM 
42 5 5 6 6 8 8 10 10 12 12 14 14 16 16 17 17 20 \
20 22 22 28 28 29 29 31 31 33 33 35 35 37 37 38 38 39 \
39 42 42 43 43 44 44 

