#    Name: 6kdy_4_NAD
#    Modification time : Fri May 22 19:27:55 2020

@<TRIPOS>MOLECULE
6kdy_4_NAD
   44    48     1     0     1
SMALL
NO_CHARGES


@<TRIPOS>ATOM
      1 PA         18.3810  -38.3410  -37.9550 P.3       1 NAD401      0.0000 
      2 O1A        19.1850  -39.4620  -37.3610 O.co2     1 NAD401      0.0000 
      3 O2A        17.8010  -38.8450  -39.2370 O.co2     1 NAD401      0.0000 
      4 O5B        19.3380  -37.0160  -38.1870 O.3       1 NAD401      0.0000 
      5 C5B        19.0390  -35.9430  -37.3130 C.3       1 NAD401      0.0000 
      6 C4B        19.7300  -34.6110  -37.7990 C.3       1 NAD401      0.0000 
      7 O4B        20.7170  -34.8370  -38.6760 O.3       1 NAD401      0.0000 
      8 C3B        18.6550  -33.8070  -38.5350 C.3       1 NAD401      0.0000 
      9 O3B        18.8920  -32.4550  -38.3780 O.3       1 NAD401      0.0000 
     10 C2B        18.8720  -34.2170  -40.0180 C.3       1 NAD401      0.0000 
     11 O2B        18.4470  -33.1460  -40.9600 O.3       1 NAD401      0.0000 
     12 C1B        20.1400  -34.3750  -40.1220 C.3       1 NAD401      0.0000 
     13 N9A        20.5600  -35.3360  -41.1660 N.pl3     1 NAD401      0.0000 
     14 C8A        20.5280  -36.6510  -40.9870 C.2       1 NAD401      0.0000 
     15 N7A        20.9060  -37.2620  -42.0900 N.2       1 NAD401      0.0000 
     16 C5A        21.2080  -36.3130  -43.0070 C.ar      1 NAD401      0.0000 
     17 C6A        21.6510  -36.3620  -44.3230 C.ar      1 NAD401      0.0000 
     18 N6A        21.9150  -37.5540  -45.0770 N.pl3     1 NAD401      0.0000 
     19 N1A        21.8770  -35.2420  -45.0090 N.ar      1 NAD401      0.0000 
     20 C2A        21.6610  -34.0290  -44.4010 C.ar      1 NAD401      0.0000 
     21 N3A        21.2360  -33.9600  -43.1400 N.ar      1 NAD401      0.0000 
     22 C4A        21.0010  -35.0840  -42.4230 C.ar      1 NAD401      0.0000 
     23 O3         17.1770  -37.7300  -37.0150 O.3       1 NAD401      0.0000 
     24 PN         16.3510  -38.4180  -35.7650 P.3       1 NAD401      0.0000 
     25 O1N        17.2620  -39.3670  -35.0310 O.co2     1 NAD401      0.0000 
     26 O2N        15.8140  -37.4050  -34.7860 O.co2     1 NAD401      0.0000 
     27 O5D        15.0870  -39.2420  -36.3530 O.3       1 NAD401      0.0000 
     28 C5D        15.4970  -40.4160  -36.9720 C.3       1 NAD401      0.0000 
     29 C4D        14.3750  -41.2780  -37.4010 C.3       1 NAD401      0.0000 
     30 O4D        14.9260  -42.0670  -38.3110 O.3       1 NAD401      0.0000 
     31 C3D        13.8550  -42.2500  -36.1740 C.3       1 NAD401      0.0000 
     32 O3D        12.4500  -42.6240  -36.3290 O.3       1 NAD401      0.0000 
     33 C2D        14.6450  -43.2540  -36.1760 C.3       1 NAD401      0.0000 
     34 O2D        14.0010  -44.5250  -35.7000 O.3       1 NAD401      0.0000 
     35 C1D        15.1370  -43.4060  -37.6750 C.3       1 NAD401      0.0000 
     36 N1N        16.4010  -43.7710  -37.7230 N.pl3     1 NAD401      0.0000 
     37 C2N        16.7390  -44.6800  -38.7010 C.ar      1 NAD401      0.0000 
     38 C3N        18.0130  -45.1430  -38.7800 C.ar      1 NAD401      0.0000 
     39 C7N        18.3680  -46.1710  -39.8870 C.2       1 NAD401      0.0000 
     40 O7N        19.4900  -46.6170  -40.0020 O.2       1 NAD401      0.0000 
     41 N7N        17.3620  -46.6420  -40.8100 N.am      1 NAD401      0.0000 
     42 C4N        18.9750  -44.6920  -37.8970 C.ar      1 NAD401      0.0000 
     43 C5N        18.5990  -43.7680  -36.9470 C.ar      1 NAD401      0.0000 
     44 C6N        17.3330  -43.3190  -36.8440 C.ar      1 NAD401      0.0000 
@<TRIPOS>BOND
     1    1    2 ar   
     2    1    3 ar   
     3    1    4 1    
     4    1   23 1    
     5    4    5 1    
     6    5    6 1    
     7    6    7 1    
     8    6    8 1    
     9    7   12 1    
    10    8    9 1    
    11    8   10 1    
    12   10   11 1    
    13   10   12 1    
    14   12   13 1    
    15   13   14 1    
    16   13   22 1    
    17   14   15 2    
    18   15   16 1    
    19   16   17 ar   
    20   16   22 ar   
    21   17   18 1    
    22   17   19 ar   
    23   19   20 ar   
    24   20   21 ar   
    25   21   22 ar   
    26   23   24 1    
    27   24   25 ar   
    28   24   26 ar   
    29   24   27 1    
    30   27   28 1    
    31   28   29 1    
    32   29   30 1    
    33   29   31 1    
    34   30   35 1    
    35   31   32 1    
    36   31   33 1    
    37   33   34 1    
    38   33   35 1    
    39   35   36 1    
    40   36   37 ar   
    41   36   44 ar   
    42   37   38 ar   
    43   38   39 1    
    44   38   42 ar   
    45   39   40 2    
    46   39   41 am   
    47   42   43 ar   
    48   43   44 ar   
@<TRIPOS>SUBSTRUCTURE
     1 NAD401      1 GROUP   
@<TRIPOS>SET
ATOM$ORANGE STATIC     ATOMS   COLORGROUP SYSTEM 
42 5 5 6 6 8 8 10 10 12 12 14 14 16 16 17 17 20 \
20 22 22 28 28 29 29 31 31 33 33 35 35 37 37 38 38 39 \
39 42 42 43 43 44 44 

