#    Name: 6kdy_2_NAD
#    Modification time : Fri May 22 19:27:32 2020

@<TRIPOS>MOLECULE
6kdy_2_NAD
   44    48     1     0     1
SMALL
NO_CHARGES


@<TRIPOS>ATOM
      1 PA         30.1640   -1.9830   46.6470 P.3       1 NAD401      0.0000 
      2 O1A        31.1350   -0.9360   46.1870 O.co2     1 NAD401      0.0000 
      3 O2A        29.1780   -2.3520   45.5740 O.co2     1 NAD401      0.0000 
      4 O5B        29.3360   -1.2760   47.8730 O.3       1 NAD401      0.0000 
      5 C5B        28.4880   -2.1950   48.4990 C.3       1 NAD401      0.0000 
      6 C4B        28.0000   -1.5110   49.8100 C.3       1 NAD401      0.0000 
      7 O4B        28.2790   -0.2000   49.7640 O.3       1 NAD401      0.0000 
      8 C3B        26.4810   -1.6340   49.6890 C.3       1 NAD401      0.0000 
      9 O3B        25.9230   -1.4550   50.9460 O.3       1 NAD401      0.0000 
     10 C2B        26.1830   -0.4560   48.7340 C.3       1 NAD401      0.0000 
     11 O2B        24.7580   -0.0150   48.7460 O.3       1 NAD401      0.0000 
     12 C1B        26.9420    0.4740   49.1960 C.3       1 NAD401      0.0000 
     13 N9A        27.3540    1.5480   48.2600 N.pl3     1 NAD401      0.0000 
     14 C8A        28.4770    1.4870   47.5630 C.2       1 NAD401      0.0000 
     15 N7A        28.5930    2.5550   46.8070 N.2       1 NAD401      0.0000 
     16 C5A        27.5240    3.3440   47.0390 C.ar      1 NAD401      0.0000 
     17 C6A        27.1350    4.5660   46.5280 C.ar      1 NAD401      0.0000 
     18 N6A        27.8560    5.3350   45.5540 N.pl3     1 NAD401      0.0000 
     19 N1A        26.0050    5.1350   46.9350 N.ar      1 NAD401      0.0000 
     20 C2A        25.2420    4.4820   47.8630 C.ar      1 NAD401      0.0000 
     21 N3A        25.5980    3.3030   48.3620 N.ar      1 NAD401      0.0000 
     22 C4A        26.7330    2.7170   47.9690 C.ar      1 NAD401      0.0000 
     23 O3         30.8510   -3.3590   47.2050 O.3       1 NAD401      0.0000 
     24 PN         30.3150   -4.8640   46.8890 P.3       1 NAD401      0.0000 
     25 O1N        28.8620   -4.9930   47.2520 O.co2     1 NAD401      0.0000 
     26 O2N        31.1490   -5.8770   47.6430 O.co2     1 NAD401      0.0000 
     27 O5D        30.5330   -4.9460   45.2720 O.3       1 NAD401      0.0000 
     28 C5D        29.8410   -5.7670   44.3700 C.3       1 NAD401      0.0000 
     29 C4D        30.5490   -5.6830   43.0730 C.3       1 NAD401      0.0000 
     30 O4D        31.1230   -4.4880   42.8220 O.3       1 NAD401      0.0000 
     31 C3D        31.7780   -6.7560   43.1950 C.3       1 NAD401      0.0000 
     32 O3D        31.6020   -7.8620   42.2500 O.3       1 NAD401      0.0000 
     33 C2D        32.8630   -6.1260   42.9940 C.3       1 NAD401      0.0000 
     34 O2D        33.7780   -6.9440   42.1400 O.3       1 NAD401      0.0000 
     35 C1D        32.4930   -4.7560   42.2800 C.3       1 NAD401      0.0000 
     36 N1N        33.3260   -3.8020   42.5530 N.pl3     1 NAD401      0.0000 
     37 C2N        33.8250   -3.0080   41.5050 C.ar      1 NAD401      0.0000 
     38 C3N        34.8230   -2.0310   41.7850 C.ar      1 NAD401      0.0000 
     39 C7N        35.3970   -1.0790   40.6770 C.2       1 NAD401      0.0000 
     40 O7N        36.0190   -1.5890   39.8400 O.2       1 NAD401      0.0000 
     41 N7N        35.2110    0.3980   40.5740 N.am      1 NAD401      0.0000 
     42 C4N        35.2400   -1.8880   43.0470 C.ar      1 NAD401      0.0000 
     43 C5N        34.7710   -2.6660   44.0400 C.ar      1 NAD401      0.0000 
     44 C6N        33.7990   -3.6280   43.8090 C.ar      1 NAD401      0.0000 
@<TRIPOS>BOND
     1    1    2 ar   
     2    1    3 ar   
     3    1    4 1    
     4    1   23 1    
     5    4    5 1    
     6    5    6 1    
     7    6    7 1    
     8    6    8 1    
     9    7   12 1    
    10    8    9 1    
    11    8   10 1    
    12   10   11 1    
    13   10   12 1    
    14   12   13 1    
    15   13   14 1    
    16   13   22 1    
    17   14   15 2    
    18   15   16 1    
    19   16   17 ar   
    20   16   22 ar   
    21   17   18 1    
    22   17   19 ar   
    23   19   20 ar   
    24   20   21 ar   
    25   21   22 ar   
    26   23   24 1    
    27   24   25 ar   
    28   24   26 ar   
    29   24   27 1    
    30   27   28 1    
    31   28   29 1    
    32   29   30 1    
    33   29   31 1    
    34   30   35 1    
    35   31   32 1    
    36   31   33 1    
    37   33   34 1    
    38   33   35 1    
    39   35   36 1    
    40   36   37 ar   
    41   36   44 ar   
    42   37   38 ar   
    43   38   39 1    
    44   38   42 ar   
    45   39   40 2    
    46   39   41 am   
    47   42   43 ar   
    48   43   44 ar   
@<TRIPOS>SUBSTRUCTURE
     1 NAD401      1 GROUP   
@<TRIPOS>SET
ATOM$ORANGE STATIC     ATOMS   COLORGROUP SYSTEM 
42 5 5 6 6 8 8 10 10 12 12 14 14 16 16 17 17 20 \
20 22 22 28 28 29 29 31 31 33 33 35 35 37 37 38 38 39 \
39 42 42 43 43 44 44 

