#    Name: 5ood_3_ADP
#    Modification time : Fri May 22 19:17:50 2020

@<TRIPOS>MOLECULE
5ood_3_ADP
   27    29     1     0     1
SMALL
NO_CHARGES


@<TRIPOS>ATOM
      1 PB        173.4030  150.3280  138.5790 P.3       1 ADP401      0.0000 
      2 O1B       171.9820  150.0860  138.2980 O.co2     1 ADP401      0.0000 
      3 O2B       174.3050  149.1470  138.5530 O.co2     1 ADP401      0.0000 
      4 O3B       173.6580  151.0800  139.8880 O.co2     1 ADP401      0.0000 
      5 PA        174.9140  152.2460  137.8080 P.3       1 ADP401      0.0000 
      6 O1A       174.2810  153.3810  138.4890 O.co2     1 ADP401      0.0000 
      7 O2A       176.0180  151.5750  138.4970 O.co2     1 ADP401      0.0000 
      8 O3A       173.8770  151.2340  137.4990 O.3       1 ADP401      0.0000 
      9 O5'       175.3800  152.7720  136.4330 O.3       1 ADP401      0.0000 
     10 C5'       174.3310  153.1530  135.5930 C.3       1 ADP401      0.0000 
     11 C4'       173.6340  154.3410  136.1610 C.3       1 ADP401      0.0000 
     12 O4'       174.5670  155.3260  136.4690 O.3       1 ADP401      0.0000 
     13 C3'       172.8280  154.9960  135.1150 C.3       1 ADP401      0.0000 
     14 O3'       171.8960  155.8510  135.7160 O.3       1 ADP401      0.0000 
     15 C2'       173.8490  155.7240  134.3980 C.3       1 ADP401      0.0000 
     16 O2'       173.3490  156.6810  133.4960 O.3       1 ADP401      0.0000 
     17 C1'       174.4530  156.3760  135.5470 C.3       1 ADP401      0.0000 
     18 N9        175.7230  156.8360  135.0640 N.pl3     1 ADP401      0.0000 
     19 C8        176.6990  156.1140  134.5590 C.2       1 ADP401      0.0000 
     20 N7        177.7290  156.8840  134.1890 N.2       1 ADP401      0.0000 
     21 C5        177.3720  158.1120  134.4670 C.ar      1 ADP401      0.0000 
     22 C6        177.9420  159.4180  134.3270 C.ar      1 ADP401      0.0000 
     23 N6        179.1330  159.6320  133.7680 N.pl3     1 ADP401      0.0000 
     24 N1        177.2360  160.4290  134.7620 N.ar      1 ADP401      0.0000 
     25 C2        176.0620  160.2540  135.2940 C.ar      1 ADP401      0.0000 
     26 N3        175.4650  159.1200  135.4360 N.ar      1 ADP401      0.0000 
     27 C4        176.0650  158.0490  135.0480 C.ar      1 ADP401      0.0000 
@<TRIPOS>BOND
     1    1    2 ar   
     2    1    3 ar   
     3    1    4 ar   
     4    1    8 1    
     5    5    6 ar   
     6    5    7 ar   
     7    5    8 1    
     8    5    9 1    
     9    9   10 1    
    10   10   11 1    
    11   11   12 1    
    12   11   13 1    
    13   12   17 1    
    14   13   14 1    
    15   13   15 1    
    16   15   16 1    
    17   15   17 1    
    18   17   18 1    
    19   18   19 1    
    20   18   27 1    
    21   19   20 2    
    22   20   21 1    
    23   21   22 ar   
    24   21   27 ar   
    25   22   23 1    
    26   22   24 ar   
    27   24   25 ar   
    28   25   26 ar   
    29   26   27 ar   
@<TRIPOS>SUBSTRUCTURE
     1 ADP401      1 GROUP   
@<TRIPOS>SET
ATOM$ORANGE STATIC     ATOMS   COLORGROUP SYSTEM 
20 10 10 11 11 13 13 15 15 17 17 19 19 21 21 22 22 25 \
25 27 27 

