#    Name: 5ood_4_ADP
#    Modification time : Fri May 22 19:17:54 2020

@<TRIPOS>MOLECULE
5ood_4_ADP
   27    29     1     0     1
SMALL
NO_CHARGES


@<TRIPOS>ATOM
      1 PB        144.1490  168.5040  111.2490 P.3       1 ADP401      0.0000 
      2 O1B       145.5870  168.4090  110.9660 O.co2     1 ADP401      0.0000 
      3 O2B       143.5460  169.8620  111.2260 O.co2     1 ADP401      0.0000 
      4 O3B       143.7270  167.8300  112.5570 O.co2     1 ADP401      0.0000 
      5 PA        142.2330  166.9910  110.4770 P.3       1 ADP401      0.0000 
      6 O1A       142.5850  165.7380  111.1560 O.co2     1 ADP401      0.0000 
      7 O2A       141.3160  167.8980  111.1690 O.co2     1 ADP401      0.0000 
      8 O3A       143.4770  167.7340  110.1680 O.3       1 ADP401      0.0000 
      9 O5'       141.6560  166.5890  109.1020 O.3       1 ADP401      0.0000 
     10 C5'       142.5870  165.9760  108.2600 C.3       1 ADP401      0.0000 
     11 C4'       142.9900  164.6580  108.8260 C.3       1 ADP401      0.0000 
     12 O4'       141.8530  163.9160  109.1340 O.3       1 ADP401      0.0000 
     13 C3'       143.6210  163.8350  107.7780 C.3       1 ADP401      0.0000 
     14 O3'       144.3290  162.7860  108.3760 O.3       1 ADP401      0.0000 
     15 C2'       142.4570  163.3650  107.0610 C.3       1 ADP401      0.0000 
     16 O2'       142.7210  162.3200  106.1570 O.3       1 ADP401      0.0000 
     17 C1'       141.7200  162.8700  108.2100 C.3       1 ADP401      0.0000 
     18 N9        140.3770  162.7180  107.7290 N.pl3     1 ADP401      0.0000 
     19 C8        139.5950  163.6480  107.2260 C.2       1 ADP401      0.0000 
     20 N7        138.4140  163.1390  106.8560 N.2       1 ADP401      0.0000 
     21 C5        138.4770  161.8610  107.1320 C.ar      1 ADP401      0.0000 
     22 C6        137.6180  160.7240  106.9910 C.ar      1 ADP401      0.0000 
     23 N6        136.4100  160.7930  106.4330 N.pl3     1 ADP401      0.0000 
     24 N1        138.0710  159.5760  107.4240 N.ar      1 ADP401      0.0000 
     25 C2        139.2530  159.4720  107.9550 C.ar      1 ADP401      0.0000 
     26 N3        140.0980  160.4370  108.0980 N.ar      1 ADP401      0.0000 
     27 C4        139.7630  161.6180  107.7110 C.ar      1 ADP401      0.0000 
@<TRIPOS>BOND
     1    1    2 ar   
     2    1    3 ar   
     3    1    4 ar   
     4    1    8 1    
     5    5    6 ar   
     6    5    7 ar   
     7    5    8 1    
     8    5    9 1    
     9    9   10 1    
    10   10   11 1    
    11   11   12 1    
    12   11   13 1    
    13   12   17 1    
    14   13   14 1    
    15   13   15 1    
    16   15   16 1    
    17   15   17 1    
    18   17   18 1    
    19   18   19 1    
    20   18   27 1    
    21   19   20 2    
    22   20   21 1    
    23   21   22 ar   
    24   21   27 ar   
    25   22   23 1    
    26   22   24 ar   
    27   24   25 ar   
    28   25   26 ar   
    29   26   27 ar   
@<TRIPOS>SUBSTRUCTURE
     1 ADP401      1 GROUP   
@<TRIPOS>SET
ATOM$ORANGE STATIC     ATOMS   COLORGROUP SYSTEM 
20 10 10 11 11 13 13 15 15 17 17 19 19 21 21 22 22 25 \
25 27 27 

