#    Name: 5ood_5_ADP
#    Modification time : Fri May 22 19:18:00 2020

@<TRIPOS>MOLECULE
5ood_5_ADP
   27    29     1     0     1
SMALL
NO_CHARGES


@<TRIPOS>ATOM
      1 PB        168.3530  144.0730   83.8560 P.3       1 ADP401      0.0000 
      2 O1B       166.9760  144.4990   83.5750 O.co2     1 ADP401      0.0000 
      3 O2B       168.6240  142.6110   83.8300 O.co2     1 ADP401      0.0000 
      4 O3B       168.9210  144.6280   85.1640 O.co2     1 ADP401      0.0000 
      5 PA        170.5670  145.1010   83.0840 P.3       1 ADP401      0.0000 
      6 O1A       170.5160  146.3990   83.7650 O.co2     1 ADP401      0.0000 
      7 O2A       171.2500  144.0040   83.7720 O.co2     1 ADP401      0.0000 
      8 O3A       169.1850  144.6670   82.7760 O.3       1 ADP401      0.0000 
      9 O5'       171.2200  145.3590   81.7080 O.3       1 ADP401      0.0000 
     10 C5'       170.4560  146.1730   80.8680 C.3       1 ADP401      0.0000 
     11 C4'       170.3720  147.5480   81.4360 C.3       1 ADP401      0.0000 
     12 O4'       171.6500  148.0050   81.7430 O.3       1 ADP401      0.0000 
     13 C3'       169.9480  148.4960   80.3900 C.3       1 ADP401      0.0000 
     14 O3'       169.5030  149.6800   80.9910 O.3       1 ADP401      0.0000 
     15 C2'       171.1880  148.6840   79.6720 C.3       1 ADP401      0.0000 
     16 O2'       171.1730  149.7630   78.7700 O.3       1 ADP401      0.0000 
     17 C1'       172.0220  148.9930   80.8210 C.3       1 ADP401      0.0000 
     18 N9        173.3620  148.8290   80.3380 N.pl3     1 ADP401      0.0000 
     19 C8        173.9060  147.7440   79.8330 C.2       1 ADP401      0.0000 
     20 N7        175.1730  147.9660   79.4630 N.2       1 ADP401      0.0000 
     21 C5        175.4090  149.2220   79.7390 C.ar      1 ADP401      0.0000 
     22 C6        176.5080  150.1290   79.5990 C.ar      1 ADP401      0.0000 
     23 N6        177.6670  149.7820   79.0400 N.pl3     1 ADP401      0.0000 
     24 N1        176.3350  151.3510   80.0340 N.ar      1 ADP401      0.0000 
     25 C2        175.2100  151.7250   80.5670 C.ar      1 ADP401      0.0000 
     26 N3        174.1640  150.9830   80.7100 N.ar      1 ADP401      0.0000 
     27 C4        174.2150  149.7570   80.3210 C.ar      1 ADP401      0.0000 
@<TRIPOS>BOND
     1    1    2 ar   
     2    1    3 ar   
     3    1    4 ar   
     4    1    8 1    
     5    5    6 ar   
     6    5    7 ar   
     7    5    8 1    
     8    5    9 1    
     9    9   10 1    
    10   10   11 1    
    11   11   12 1    
    12   11   13 1    
    13   12   17 1    
    14   13   14 1    
    15   13   15 1    
    16   15   16 1    
    17   15   17 1    
    18   17   18 1    
    19   18   19 1    
    20   18   27 1    
    21   19   20 2    
    22   20   21 1    
    23   21   22 ar   
    24   21   27 ar   
    25   22   23 1    
    26   22   24 ar   
    27   24   25 ar   
    28   25   26 ar   
    29   26   27 ar   
@<TRIPOS>SUBSTRUCTURE
     1 ADP401      1 GROUP   
@<TRIPOS>SET
ATOM$ORANGE STATIC     ATOMS   COLORGROUP SYSTEM 
20 10 10 11 11 13 13 15 15 17 17 19 19 21 21 22 22 25 \
25 27 27 

