#    Name: 5ood_2_ADP
#    Modification time : Fri May 22 19:17:44 2020

@<TRIPOS>MOLECULE
5ood_2_ADP
   27    29     1     0     1
SMALL
NO_CHARGES


@<TRIPOS>ATOM
      1 PB        140.7640  161.1750  165.9670 P.3       1 ADP401      0.0000 
      2 O1B       142.0890  161.7400  165.6850 O.co2     1 ADP401      0.0000 
      3 O2B       139.6120  162.1150  165.9440 O.co2     1 ADP401      0.0000 
      4 O3B       140.6920  160.3830  167.2750 O.co2     1 ADP401      0.0000 
      5 PA        139.7390  158.9600  165.1950 P.3       1 ADP401      0.0000 
      6 O1A       140.6190  158.0020  165.8730 O.co2     1 ADP401      0.0000 
      7 O2A       138.5100  159.3540  165.8860 O.co2     1 ADP401      0.0000 
      8 O3A       140.5120  160.1850  164.8860 O.3       1 ADP401      0.0000 
      9 O5'       139.4060  158.3420  163.8190 O.3       1 ADP401      0.0000 
     10 C5'       140.5140  158.2150  162.9770 C.3       1 ADP401      0.0000 
     11 C4'       141.4680  157.2210  163.5430 C.3       1 ADP401      0.0000 
     12 O4'       140.7900  156.0460  163.8500 O.3       1 ADP401      0.0000 
     13 C3'       142.4030  156.7730  162.4950 C.3       1 ADP401      0.0000 
     14 O3'       143.5090  156.1570  163.0940 O.3       1 ADP401      0.0000 
     15 C2'       141.5780  155.8280  161.7780 C.3       1 ADP401      0.0000 
     16 O2'       142.2860  155.0150  160.8740 O.3       1 ADP401      0.0000 
     17 C1'       141.1440  155.0520  162.9270 C.3       1 ADP401      0.0000 
     18 N9        140.0150  154.3110  162.4440 N.pl3     1 ADP401      0.0000 
     19 C8        138.8970  154.7870  161.9410 C.2       1 ADP401      0.0000 
     20 N7        138.0740  153.7990  161.5710 N.2       1 ADP401      0.0000 
     21 C5        138.7070  152.6870  161.8460 C.ar      1 ADP401      0.0000 
     22 C6        138.4550  151.2850  161.7050 C.ar      1 ADP401      0.0000 
     23 N6        137.3460  150.8010  161.1470 N.pl3     1 ADP401      0.0000 
     24 N1        139.3770  150.4650  162.1380 N.ar      1 ADP401      0.0000 
     25 C2        140.4790  150.9070  162.6690 C.ar      1 ADP401      0.0000 
     26 N3        140.7970  152.1490  162.8130 N.ar      1 ADP401      0.0000 
     27 C4        139.9640  153.0520  162.4270 C.ar      1 ADP401      0.0000 
@<TRIPOS>BOND
     1    1    2 ar   
     2    1    3 ar   
     3    1    4 ar   
     4    1    8 1    
     5    5    6 ar   
     6    5    7 ar   
     7    5    8 1    
     8    5    9 1    
     9    9   10 1    
    10   10   11 1    
    11   11   12 1    
    12   11   13 1    
    13   12   17 1    
    14   13   14 1    
    15   13   15 1    
    16   15   16 1    
    17   15   17 1    
    18   17   18 1    
    19   18   19 1    
    20   18   27 1    
    21   19   20 2    
    22   20   21 1    
    23   21   22 ar   
    24   21   27 ar   
    25   22   23 1    
    26   22   24 ar   
    27   24   25 ar   
    28   25   26 ar   
    29   26   27 ar   
@<TRIPOS>SUBSTRUCTURE
     1 ADP401      1 GROUP   
@<TRIPOS>SET
ATOM$ORANGE STATIC     ATOMS   COLORGROUP SYSTEM 
20 10 10 11 11 13 13 15 15 17 17 19 19 21 21 22 22 25 \
25 27 27 

