#    Name: 5ood_1_ADP
#    Modification time : Fri May 22 19:17:40 2020

@<TRIPOS>MOLECULE
5ood_1_ADP
   27    29     1     0     1
SMALL
NO_CHARGES


@<TRIPOS>ATOM
      1 PB        175.0670  158.1710  193.3060 P.3       1 ADP401      0.0000 
      2 O1B       173.9090  157.3140  193.0240 O.co2     1 ADP401      0.0000 
      3 O2B       176.4050  157.5250  193.2800 O.co2     1 ADP401      0.0000 
      4 O3B       174.9540  158.9570  194.6140 O.co2     1 ADP401      0.0000 
      5 PA        175.5480  160.5650  192.5360 P.3       1 ADP401      0.0000 
      6 O1A       174.4710  161.2920  193.2170 O.co2     1 ADP401      0.0000 
      7 O2A       176.8360  160.4660  193.2250 O.co2     1 ADP401      0.0000 
      8 O3A       175.0800  159.1940  192.2260 O.3       1 ADP401      0.0000 
      9 O5'       175.7260  161.2450  191.1610 O.3       1 ADP401      0.0000 
     10 C5'       174.6180  161.1120  190.3200 C.3       1 ADP401      0.0000 
     11 C4'       173.4600  161.8570  190.8880 C.3       1 ADP401      0.0000 
     12 O4'       173.8470  163.1570  191.1970 O.3       1 ADP401      0.0000 
     13 C3'       172.4450  162.0770  189.8420 C.3       1 ADP401      0.0000 
     14 O3'       171.2270  162.4180  190.4430 O.3       1 ADP401      0.0000 
     15 C2'       173.0270  163.1880  189.1250 C.3       1 ADP401      0.0000 
     16 O2'       172.1490  163.8150  188.2230 O.3       1 ADP401      0.0000 
     17 C1'       173.2710  164.0420  190.2750 C.3       1 ADP401      0.0000 
     18 N9        174.1960  165.0260  189.7930 N.pl3     1 ADP401      0.0000 
     19 C8        175.3930  164.8240  189.2880 C.2       1 ADP401      0.0000 
     20 N7        175.9640  165.9760  188.9190 N.2       1 ADP401      0.0000 
     21 C5        175.0900  166.9100  189.1960 C.ar      1 ADP401      0.0000 
     22 C6        175.0090  168.3330  189.0570 C.ar      1 ADP401      0.0000 
     23 N6        175.9750  169.0620  188.4980 N.pl3     1 ADP401      0.0000 
     24 N1        173.9220  168.9150  189.4920 N.ar      1 ADP401      0.0000 
     25 C2        172.9540  168.2290  190.0230 C.ar      1 ADP401      0.0000 
     26 N3        172.9340  166.9470  190.1650 N.ar      1 ADP401      0.0000 
     27 C4        173.9530  166.2630  189.7770 C.ar      1 ADP401      0.0000 
@<TRIPOS>BOND
     1    1    2 ar   
     2    1    3 ar   
     3    1    4 ar   
     4    1    8 1    
     5    5    6 ar   
     6    5    7 ar   
     7    5    8 1    
     8    5    9 1    
     9    9   10 1    
    10   10   11 1    
    11   11   12 1    
    12   11   13 1    
    13   12   17 1    
    14   13   14 1    
    15   13   15 1    
    16   15   16 1    
    17   15   17 1    
    18   17   18 1    
    19   18   19 1    
    20   18   27 1    
    21   19   20 2    
    22   20   21 1    
    23   21   22 ar   
    24   21   27 ar   
    25   22   23 1    
    26   22   24 ar   
    27   24   25 ar   
    28   25   26 ar   
    29   26   27 ar   
@<TRIPOS>SUBSTRUCTURE
     1 ADP401      1 GROUP   
@<TRIPOS>SET
ATOM$ORANGE STATIC     ATOMS   COLORGROUP SYSTEM 
20 10 10 11 11 13 13 15 15 17 17 19 19 21 21 22 22 25 \
25 27 27 

