#    Name: 6ftl_2_CAP
#    Modification time : Fri May 22 19:25:13 2020

@<TRIPOS>MOLECULE
6ftl_2_CAP
   21    20     1     0     0
SMALL
NO_CHARGES


@<TRIPOS>ATOM
      1 C1         34.4530   36.9340   20.4620 C.3       1 CAP502      0.0000 
      2 C2         34.5320   37.8820   19.2660 C.3       1 CAP502      0.0000 
      3 C3         35.4590   37.3210   18.1570 C.3       1 CAP502      0.0000 
      4 C4         34.9270   36.0520   17.4620 C.3       1 CAP502      0.0000 
      5 C5         35.6350   35.7020   16.1750 C.3       1 CAP502      0.0000 
      6 C          33.1720   38.2550   18.6600 C.2       1 CAP502      0.0000 
      7 O1         33.8840   37.6270   21.5610 O.3       1 CAP502      0.0000 
      8 O2         35.0810   39.0940   19.7960 O.3       1 CAP502      0.0000 
      9 O3         35.7000   38.3730   17.2190 O.3       1 CAP502      0.0000 
     10 O4         35.1640   34.9110   18.2900 O.3       1 CAP502      0.0000 
     11 O5         35.2610   34.3820   15.7890 O.3       1 CAP502      0.0000 
     12 O6         33.1990   39.1760   17.8140 O.co2     1 CAP502      0.0000 
     13 O7         32.1050   37.6780   18.9800 O.co2     1 CAP502      0.0000 
     14 P1         33.4760   36.8140   22.8900 P.3       1 CAP502      0.0000 
     15 P2         36.3700   33.3280   15.3210 P.3       1 CAP502      0.0000 
     16 O1P        32.6020   35.7050   22.3640 O.co2     1 CAP502      0.0000 
     17 O2P        34.7960   36.3440   23.4290 O.co2     1 CAP502      0.0000 
     18 O3P        32.7520   37.8500   23.7020 O.co2     1 CAP502      0.0000 
     19 O4P        36.8990   33.8990   14.0280 O.co2     1 CAP502      0.0000 
     20 O5P        35.6500   32.0320   15.0600 O.co2     1 CAP502      0.0000 
     21 O6P        37.3020   33.3130   16.5170 O.co2     1 CAP502      0.0000 
@<TRIPOS>BOND
     1    1    2 1    
     2    1    7 1    
     3    2    3 1    
     4    2    6 1    
     5    2    8 1    
     6    3    4 1    
     7    3    9 1    
     8    4    5 1    
     9    4   10 1    
    10    5   11 1    
    11    6   12 ar   
    12    6   13 ar   
    13    7   14 1    
    14   11   15 1    
    15   14   16 ar   
    16   14   17 ar   
    17   14   18 ar   
    18   15   19 ar   
    19   15   20 ar   
    20   15   21 ar   
@<TRIPOS>SUBSTRUCTURE
     1 CAP502      1 GROUP   
@<TRIPOS>SET

