#    Name: 6ftl_1_CAP_CAVITY_N1_8
#    Modification time : Fri May 22 19:25:07 2020

@<TRIPOS>MOLECULE
6ftl_1_CAP_CAVITY_N1_8
   88     0     7     0     0
SMALL
NO_CHARGES


@<TRIPOS>ATOM
      1 OG         33.3000   89.7000   17.5800 O.3       1 SER1        0.0000 
      2 OG         36.3900   89.8200   16.2700 O.3       1 SER1        0.0000 
      3 OG         35.3200   90.2400   17.2500 O.3       1 SER1        0.0000 
      4 OG         34.2600   90.6600   18.2200 O.3       1 SER1        0.0000 
      5 OG         34.3400   93.7700   16.9600 O.3       1 SER1        0.0000 
      6 OG         35.8400   92.2800   16.9400 O.3       1 SER1        0.0000 
      7 OG         34.7800   92.7000   17.9100 O.3       1 SER1        0.0000 
      8 OG         37.3500   90.7800   16.9100 O.3       1 SER1        0.0000 
      9 OG         37.6200   87.9800   20.7300 O.3       1 SER1        0.0000 
     10 OG         39.6400   88.5200   20.3900 O.3       1 SER1        0.0000 
     11 OG         40.0800   87.4400   21.3400 O.3       1 SER1        0.0000 
     12 OG         39.0200   87.8600   22.3100 O.3       1 SER1        0.0000 
     13 OG         40.6000   89.4800   21.0300 O.3       1 SER1        0.0000 
     14 OG         39.9800   88.8200   22.9500 O.3       1 SER1        0.0000 
     15 OG         40.4200   87.7500   23.9000 O.3       1 SER1        0.0000 
     16 OG         41.3800   88.7100   24.5400 O.3       1 SER1        0.0000 
     17 O          37.0100   90.4800   14.3500 O.2       2 ALA2        0.0000 
     18 N          37.4500   89.4100   15.3000 N.am      2 ALA2        0.0000 
     19 N          37.8900   88.3300   16.2500 N.am      2 ALA2        0.0000 
     20 O          37.9700   91.4400   14.9900 O.2       2 ALA2        0.0000 
     21 O          38.4100   90.3600   15.9400 O.2       2 ALA2        0.0000 
     22 O          40.4400   90.9000   15.6100 O.2       2 ALA2        0.0000 
     23 O          41.7300   89.0100   27.0900 O.2       2 ALA2        0.0000 
     24 O          41.6200   90.3900   28.7000 O.2       2 ALA2        0.0000 
     25 OD1        35.7700   89.1700   18.1900 O.co2     3 ASP3        0.0000 
     26 OD1        34.7000   89.5900   19.1700 O.co2     3 ASP3        0.0000 
     27 OD1        36.2100   88.0900   19.1400 O.co2     3 ASP3        0.0000 
     28 OD1        36.6500   87.0200   20.0900 O.co2     3 ASP3        0.0000 
     29 OD1        41.0400   88.4000   21.9800 O.co2     3 ASP3        0.0000 
     30 OD1        41.1200   91.5100   20.7200 O.co2     3 ASP3        0.0000 
     31 OD1        41.5600   90.4400   21.6700 O.co2     3 ASP3        0.0000 
     32 OD1        40.9400   89.7800   23.5900 O.co2     3 ASP3        0.0000 
     33 OD1        42.0800   92.4700   21.3600 O.co2     3 ASP3        0.0000 
     34 OD1        41.0200   92.8900   22.3300 O.co2     3 ASP3        0.0000 
     35 OD1        42.5200   91.3900   22.3100 O.co2     3 ASP3        0.0000 
     36 OD1        41.4600   91.8100   23.2800 O.co2     3 ASP3        0.0000 
     37 OD1        41.9000   90.7400   24.2300 O.co2     3 ASP3        0.0000 
     38 OD1        42.3500   89.6600   25.1700 O.co2     3 ASP3        0.0000 
     39 OD1        41.2800   90.0800   26.1500 O.co2     3 ASP3        0.0000 
     40 OD1        42.4200   92.7700   23.9200 O.co2     3 ASP3        0.0000 
     41 OD1        42.2400   91.0400   26.7800 O.co2     3 ASP3        0.0000 
     42 OD1        41.1800   91.4600   27.7600 O.co2     3 ASP3        0.0000 
     43 OD1        42.1400   92.4200   28.3900 O.co2     3 ASP3        0.0000 
     44 NZ         41.2200   90.1300   19.1100 N.4       4 LYS4        0.0000 
     45 NZ         42.1800   91.0900   19.7500 N.4       4 LYS4        0.0000 
     46 CZ         38.8500   89.2900   16.8900 C.ar      5 PHE5        0.0000 
     47 CZ         39.3000   88.2100   17.8400 C.ar      5 PHE5        0.0000 
     48 CZ         38.2300   88.6300   18.8100 C.ar      5 PHE5        0.0000 
     49 CZ         40.8800   89.8300   16.5500 C.ar      5 PHE5        0.0000 
     50 CZ         39.8200   90.2500   17.5300 C.ar      5 PHE5        0.0000 
     51 CZ         40.2600   89.1700   18.4700 C.ar      5 PHE5        0.0000 
     52 CZ         39.2000   89.5900   19.4500 C.ar      5 PHE5        0.0000 
     53 CA         36.8300   88.7500   17.2200 C.3       6 GLY6        0.0000 
     54 CA         37.2700   87.6700   18.1700 C.3       6 GLY6        0.0000 
     55 CA         37.5200   92.5100   14.0400 C.3       6 GLY6        0.0000 
     56 CA         36.4600   92.9300   15.0200 C.3       6 GLY6        0.0000 
     57 CA         36.9100   91.8600   15.9600 C.3       6 GLY6        0.0000 
     58 CA         33.7200   93.1100   18.8800 C.3       6 GLY6        0.0000 
     59 CA         36.2900   91.2000   17.8800 C.3       6 GLY6        0.0000 
     60 CA         35.2200   91.6200   18.8600 C.3       6 GLY6        0.0000 
     61 CA         36.7300   90.1300   18.8300 C.3       6 GLY6        0.0000 
     62 CA         37.1700   89.0500   19.7800 C.3       6 GLY6        0.0000 
     63 CA         36.1100   89.4700   20.7500 C.3       6 GLY6        0.0000 
     64 CA         36.5500   88.4000   21.7000 C.3       6 GLY6        0.0000 
     65 CA         35.7400   93.6500   18.5500 C.3       6 GLY6        0.0000 
     66 CA         34.6800   94.0700   19.5200 C.3       6 GLY6        0.0000 
     67 CA         37.2500   92.1600   18.5200 C.3       6 GLY6        0.0000 
     68 CA         37.6900   91.0900   19.4700 C.3       6 GLY6        0.0000 
     69 CA         38.1300   90.0100   20.4200 C.3       6 GLY6        0.0000 
     70 CA         38.5800   88.9400   21.3700 C.3       6 GLY6        0.0000 
     71 CA         41.8400   90.7900   17.1900 C.3       6 GLY6        0.0000 
     72 CA         38.6500   92.0500   20.1100 C.3       6 GLY6        0.0000 
     73 CA         39.0900   90.9700   21.0600 C.3       6 GLY6        0.0000 
     74 CA         39.5400   89.9000   22.0000 C.3       6 GLY6        0.0000 
     75 CA         38.9200   89.2400   23.9200 C.3       6 GLY6        0.0000 
     76 CA         40.0600   91.9300   21.6900 C.3       6 GLY6        0.0000 
     77 CA         40.5000   90.8500   22.6400 C.3       6 GLY6        0.0000 
     78 CA         39.8800   90.2000   24.5600 C.3       6 GLY6        0.0000 
     79 CA         40.3200   89.1200   25.5100 C.3       6 GLY6        0.0000 
     80 CA         42.6900   89.9700   27.7300 C.3       6 GLY6        0.0000 
     81 CA         43.2100   92.0000   27.4200 C.3       6 GLY6        0.0000 
     82 DU         37.7900   89.7100   17.8600 H         7 CUB7        0.0000 
     83 DU         39.3700   91.3200   16.5800 H         7 CUB7        0.0000 
     84 DU         38.3100   91.7400   17.5500 H         7 CUB7        0.0000 
     85 DU         38.7500   90.6700   18.5000 H         7 CUB7        0.0000 
     86 DU         40.7800   91.2100   18.1600 H         7 CUB7        0.0000 
     87 DU         39.7100   91.6300   19.1400 H         7 CUB7        0.0000 
     88 DU         40.1600   90.5500   20.0800 H         7 CUB7        0.0000 
@<TRIPOS>BOND
@<TRIPOS>SUBSTRUCTURE
     1 SER1        1 GROUP   
     2 ALA2       17 GROUP   
     3 ASP3       25 GROUP   
     4 LYS4       44 GROUP   
     5 PHE5       46 GROUP   
     6 GLY6       53 GROUP   
     7 CUB7       82 GROUP   
@<TRIPOS>SET

