#    Name: 6ftl_3_CAP_CAVITY_N1_ALL
#    Modification time : Fri May 22 19:25:21 2020

@<TRIPOS>MOLECULE
6ftl_3_CAP_CAVITY_N1_ALL
   85     0     7     0     0
SMALL
NO_CHARGES


@<TRIPOS>ATOM
      1 OG         90.2300   31.3100    5.4600 O.3       1 SER1        0.0000 
      2 OG         87.4900   31.5000    9.3300 O.3       1 SER1        0.0000 
      3 OG         86.4200   31.9100   10.3000 O.3       1 SER1        0.0000 
      4 OG         89.0700   33.1100    8.0500 O.3       1 SER1        0.0000 
      5 OG         88.0000   33.5300    9.0200 O.3       1 SER1        0.0000 
      6 OG         93.7600   30.3600    5.1100 O.3       1 SER1        0.0000 
      7 OG         92.7000   30.7800    6.0800 O.3       1 SER1        0.0000 
      8 OG         88.4500   32.4500    9.9700 O.3       1 SER1        0.0000 
      9 OG         87.3800   32.8700   10.9400 O.3       1 SER1        0.0000 
     10 OG         87.8300   31.8000   11.8900 O.3       1 SER1        0.0000 
     11 OG         87.2100   31.1400   13.8100 O.3       1 SER1        0.0000 
     12 OG         90.0300   34.0700    8.6800 O.3       1 SER1        0.0000 
     13 OG         89.4100   33.4100   10.6000 O.3       1 SER1        0.0000 
     14 OG         88.7900   32.7600   12.5200 O.3       1 SER1        0.0000 
     15 O          87.8700   30.4700    3.2400 O.2       2 ALA2        0.0000 
     16 O          87.7600   31.8500    4.8500 O.2       2 ALA2        0.0000 
     17 N          88.7200   32.8100    5.4900 N.am      2 ALA2        0.0000 
     18 O          86.5100   27.3800   16.9800 O.2       2 ALA2        0.0000 
     19 O          94.2000   29.2900    6.0500 O.2       2 ALA2        0.0000 
     20 O          88.0900   28.9900   15.7000 O.2       2 ALA2        0.0000 
     21 O          87.0300   29.4100   16.6700 O.2       2 ALA2        0.0000 
     22 O          88.5400   27.9200   16.6500 O.2       2 ALA2        0.0000 
     23 N          89.8500   32.3400   11.5500 N.am      2 ALA2        0.0000 
     24 OD1        83.9800   27.9600    9.3300 O.co2     3 ASP3        0.0000 
     25 OD1        84.9400   28.9200    9.9700 O.co2     3 ASP3        0.0000 
     26 OD1        85.3900   27.8500   10.9200 O.co2     3 ASP3        0.0000 
     27 OD1        85.9000   29.8800   10.6100 O.co2     3 ASP3        0.0000 
     28 OD1        86.3500   28.8100   11.5600 O.co2     3 ASP3        0.0000 
     29 OD1        85.2800   29.2300   12.5300 O.co2     3 ASP3        0.0000 
     30 OD1        94.3100   27.9100    4.4400 O.co2     3 ASP3        0.0000 
     31 OD1        86.8700   30.8400   11.2500 O.co2     3 ASP3        0.0000 
     32 OD1        87.3100   29.7700   12.2000 O.co2     3 ASP3        0.0000 
     33 OD1        86.2500   30.1800   13.1700 O.co2     3 ASP3        0.0000 
     34 OD1        86.6900   29.1100   14.1200 O.co2     3 ASP3        0.0000 
     35 OD1        87.5800   26.9600   16.0100 O.co2     3 ASP3        0.0000 
     36 OD1        91.1900   32.2700    6.1000 O.co2     3 ASP3        0.0000 
     37 OD1        90.1300   32.6900    7.0700 O.co2     3 ASP3        0.0000 
     38 OD1        93.6600   31.7400    6.7200 O.co2     3 ASP3        0.0000 
     39 OD1        92.6000   32.1600    7.6900 O.co2     3 ASP3        0.0000 
     40 OD1        91.5300   32.5800    8.6600 O.co2     3 ASP3        0.0000 
     41 NZ         85.1200   30.6500    7.1000 N.4       4 LYS4        0.0000 
     42 NZ         85.5600   29.5800    8.0500 N.4       4 LYS4        0.0000 
     43 NZ         84.5000   30.0000    9.0200 N.4       4 LYS4        0.0000 
     44 NZ         86.5200   30.5400    8.6900 N.4       4 LYS4        0.0000 
     45 NZ         85.4600   30.9600    9.6600 N.4       4 LYS4        0.0000 
     46 NZ         86.7600   32.2200   12.8600 N.4       4 LYS4        0.0000 
     47 CZ         85.7400   31.3100    5.1800 C.ar      5 PHE5        0.0000 
     48 CZ         86.7000   32.2700    5.8200 C.ar      5 PHE5        0.0000 
     49 CZ         87.1400   31.1900    6.7700 C.ar      5 PHE5        0.0000 
     50 CZ         86.0800   31.6100    7.7400 C.ar      5 PHE5        0.0000 
     51 CZ         87.6600   33.2300    6.4600 C.ar      5 PHE5        0.0000 
     52 CZ         88.1000   32.1500    7.4100 C.ar      5 PHE5        0.0000 
     53 CZ         88.3400   33.8300   11.5800 C.ar      5 PHE5        0.0000 
     54 CA         91.8400   28.4400    3.8300 C.3       6 GLY6        0.0000 
     55 CA         90.7800   28.8600    4.8000 C.3       6 GLY6        0.0000 
     56 CA         88.6500   29.7000    6.7500 C.3       6 GLY6        0.0000 
     57 CA         87.5900   30.1200    7.7200 C.3       6 GLY6        0.0000 
     58 CA         88.0300   29.0400    8.6700 C.3       6 GLY6        0.0000 
     59 CA         88.4700   27.9700    9.6100 C.3       6 GLY6        0.0000 
     60 CA         87.4100   28.3900   10.5900 C.3       6 GLY6        0.0000 
     61 CA         85.1100   27.4900   15.4000 C.3       6 GLY6        0.0000 
     62 CA         85.5500   26.4200   16.3500 C.3       6 GLY6        0.0000 
     63 CA         89.1700   31.7300    6.4400 C.3       6 GLY6        0.0000 
     64 CA         91.7400   29.8200    5.4400 C.3       6 GLY6        0.0000 
     65 CA         89.6100   30.6600    7.3800 C.3       6 GLY6        0.0000 
     66 CA         88.5500   31.0800    8.3600 C.3       6 GLY6        0.0000 
     67 CA         93.2400   28.3300    5.4200 C.3       6 GLY6        0.0000 
     68 CA         88.9900   30.0000    9.3000 C.3       6 GLY6        0.0000 
     69 CA         87.9300   30.4200   10.2800 C.3       6 GLY6        0.0000 
     70 CA         88.3700   29.3500   11.2200 C.3       6 GLY6        0.0000 
     71 CA         86.0700   28.4500   16.0400 C.3       6 GLY6        0.0000 
     72 CA         89.6900   33.7700    6.1300 C.3       6 GLY6        0.0000 
     73 CA         91.6400   31.2000    7.0500 C.3       6 GLY6        0.0000 
     74 CA         90.5700   31.6200    8.0200 C.3       6 GLY6        0.0000 
     75 CA         89.5100   32.0400    8.9900 C.3       6 GLY6        0.0000 
     76 CA         88.8900   31.3800   10.9100 C.3       6 GLY6        0.0000 
     77 CA         88.2700   30.7200   12.8300 C.3       6 GLY6        0.0000 
     78 CA         87.6500   30.0700   14.7500 C.3       6 GLY6        0.0000 
     79 CA         86.5900   30.4900   15.7300 C.3       6 GLY6        0.0000 
     80 CA         90.4700   32.9900    9.6300 C.3       6 GLY6        0.0000 
     81 DU         86.6300   29.1600    7.0800 H         7 CUB7        0.0000 
     82 DU         86.0100   28.5000    9.0000 H         7 CUB7        0.0000 
     83 DU         89.2700   30.3500    4.8300 H         7 CUB7        0.0000 
     84 DU         88.2100   30.7700    5.8000 H         7 CUB7        0.0000 
     85 DU         86.9700   29.4600    9.6400 H         7 CUB7        0.0000 
@<TRIPOS>BOND
@<TRIPOS>SUBSTRUCTURE
     1 SER1        1 GROUP   
     2 ALA2       15 GROUP   
     3 ASP3       24 GROUP   
     4 LYS4       41 GROUP   
     5 PHE5       47 GROUP   
     6 GLY6       54 GROUP   
     7 CUB7       81 GROUP   
@<TRIPOS>SET

