#    Name: 6ftl_1_CAP
#    Modification time : Fri May 22 19:25:06 2020

@<TRIPOS>MOLECULE
6ftl_1_CAP
   21    20     1     0     0
SMALL
NO_CHARGES


@<TRIPOS>ATOM
      1 C1         41.4330   89.4980   25.3380 C.3       1 CAP501      0.0000 
      2 C2         42.0070   89.2850   23.9500 C.3       1 CAP501      0.0000 
      3 C3         41.0810   88.4040   23.0780 C.3       1 CAP501      0.0000 
      4 C4         39.7270   88.9990   22.6570 C.3       1 CAP501      0.0000 
      5 C5         39.1530   88.3230   21.4100 C.3       1 CAP501      0.0000 
      6 C          42.3160   90.6430   23.3360 C.2       1 CAP501      0.0000 
      7 O1         42.3450   90.2590   26.1330 O.3       1 CAP501      0.0000 
      8 O2         43.2260   88.5100   24.0680 O.3       1 CAP501      0.0000 
      9 O3         41.8330   87.9480   21.9340 O.3       1 CAP501      0.0000 
     10 O4         38.7880   88.7410   23.6900 O.3       1 CAP501      0.0000 
     11 O5         37.7660   88.6470   21.2800 O.3       1 CAP501      0.0000 
     12 O6         43.3510   90.6940   22.6410 O.co2     1 CAP501      0.0000 
     13 O7         41.5900   91.6460   23.5370 O.co2     1 CAP501      0.0000 
     14 P1         41.9610   90.4740   27.6770 P.3       1 CAP501      0.0000 
     15 P2         36.6530   87.5250   21.0500 P.3       1 CAP501      0.0000 
     16 O1P        40.7410   91.3320   27.5480 O.co2     1 CAP501      0.0000 
     17 O2P        41.6580   89.0590   28.1550 O.co2     1 CAP501      0.0000 
     18 O3P        43.1090   91.2010   28.3580 O.co2     1 CAP501      0.0000 
     19 O4P        37.0480   87.0810   19.6520 O.co2     1 CAP501      0.0000 
     20 O5P        35.3330   88.2670   21.0990 O.co2     1 CAP501      0.0000 
     21 O6P        36.8510   86.5090   22.1770 O.co2     1 CAP501      0.0000 
@<TRIPOS>BOND
     1    1    2 1    
     2    1    7 1    
     3    2    3 1    
     4    2    6 1    
     5    2    8 1    
     6    3    4 1    
     7    3    9 1    
     8    4    5 1    
     9    4   10 1    
    10    5   11 1    
    11    6   12 ar   
    12    6   13 ar   
    13    7   14 1    
    14   11   15 1    
    15   14   16 ar   
    16   14   17 ar   
    17   14   18 ar   
    18   15   19 ar   
    19   15   20 ar   
    20   15   21 ar   
@<TRIPOS>SUBSTRUCTURE
     1 CAP501      1 GROUP   
@<TRIPOS>SET

