#    Name: 6ftl_1_CAP_CAVITY_N1_4
#    Modification time : Fri May 22 19:25:07 2020

@<TRIPOS>MOLECULE
6ftl_1_CAP_CAVITY_N1_4
   60     0     7     0     0
SMALL
NO_CHARGES


@<TRIPOS>ATOM
      1 OG         34.2600   90.6600   18.2200 O.3       1 SER1        0.0000 
      2 OG         37.6200   87.9800   20.7300 O.3       1 SER1        0.0000 
      3 OG         39.6400   88.5200   20.3900 O.3       1 SER1        0.0000 
      4 OG         40.0800   87.4400   21.3400 O.3       1 SER1        0.0000 
      5 OG         39.0200   87.8600   22.3100 O.3       1 SER1        0.0000 
      6 OG         40.6000   89.4800   21.0300 O.3       1 SER1        0.0000 
      7 OG         39.9800   88.8200   22.9500 O.3       1 SER1        0.0000 
      8 OG         40.4200   87.7500   23.9000 O.3       1 SER1        0.0000 
      9 OG         41.3800   88.7100   24.5400 O.3       1 SER1        0.0000 
     10 N          37.8900   88.3300   16.2500 N.am      2 ALA2        0.0000 
     11 O          41.7300   89.0100   27.0900 O.2       2 ALA2        0.0000 
     12 O          41.6200   90.3900   28.7000 O.2       2 ALA2        0.0000 
     13 OD1        35.7700   89.1700   18.1900 O.co2     3 ASP3        0.0000 
     14 OD1        34.7000   89.5900   19.1700 O.co2     3 ASP3        0.0000 
     15 OD1        36.2100   88.0900   19.1400 O.co2     3 ASP3        0.0000 
     16 OD1        36.6500   87.0200   20.0900 O.co2     3 ASP3        0.0000 
     17 OD1        41.0400   88.4000   21.9800 O.co2     3 ASP3        0.0000 
     18 OD1        41.1200   91.5100   20.7200 O.co2     3 ASP3        0.0000 
     19 OD1        41.5600   90.4400   21.6700 O.co2     3 ASP3        0.0000 
     20 OD1        40.9400   89.7800   23.5900 O.co2     3 ASP3        0.0000 
     21 OD1        42.0800   92.4700   21.3600 O.co2     3 ASP3        0.0000 
     22 OD1        41.0200   92.8900   22.3300 O.co2     3 ASP3        0.0000 
     23 OD1        42.5200   91.3900   22.3100 O.co2     3 ASP3        0.0000 
     24 OD1        41.4600   91.8100   23.2800 O.co2     3 ASP3        0.0000 
     25 OD1        41.9000   90.7400   24.2300 O.co2     3 ASP3        0.0000 
     26 OD1        42.3500   89.6600   25.1700 O.co2     3 ASP3        0.0000 
     27 OD1        41.2800   90.0800   26.1500 O.co2     3 ASP3        0.0000 
     28 OD1        42.4200   92.7700   23.9200 O.co2     3 ASP3        0.0000 
     29 OD1        42.2400   91.0400   26.7800 O.co2     3 ASP3        0.0000 
     30 OD1        41.1800   91.4600   27.7600 O.co2     3 ASP3        0.0000 
     31 OD1        42.1400   92.4200   28.3900 O.co2     3 ASP3        0.0000 
     32 NZ         41.2200   90.1300   19.1100 N.4       4 LYS4        0.0000 
     33 NZ         42.1800   91.0900   19.7500 N.4       4 LYS4        0.0000 
     34 CZ         38.8500   89.2900   16.8900 C.ar      5 PHE5        0.0000 
     35 CZ         39.3000   88.2100   17.8400 C.ar      5 PHE5        0.0000 
     36 CZ         38.2300   88.6300   18.8100 C.ar      5 PHE5        0.0000 
     37 CZ         40.2600   89.1700   18.4700 C.ar      5 PHE5        0.0000 
     38 CZ         39.2000   89.5900   19.4500 C.ar      5 PHE5        0.0000 
     39 CA         36.8300   88.7500   17.2200 C.3       6 GLY6        0.0000 
     40 CA         37.2700   87.6700   18.1700 C.3       6 GLY6        0.0000 
     41 CA         36.7300   90.1300   18.8300 C.3       6 GLY6        0.0000 
     42 CA         37.1700   89.0500   19.7800 C.3       6 GLY6        0.0000 
     43 CA         36.1100   89.4700   20.7500 C.3       6 GLY6        0.0000 
     44 CA         36.5500   88.4000   21.7000 C.3       6 GLY6        0.0000 
     45 CA         37.6900   91.0900   19.4700 C.3       6 GLY6        0.0000 
     46 CA         38.1300   90.0100   20.4200 C.3       6 GLY6        0.0000 
     47 CA         38.5800   88.9400   21.3700 C.3       6 GLY6        0.0000 
     48 CA         38.6500   92.0500   20.1100 C.3       6 GLY6        0.0000 
     49 CA         39.0900   90.9700   21.0600 C.3       6 GLY6        0.0000 
     50 CA         39.5400   89.9000   22.0000 C.3       6 GLY6        0.0000 
     51 CA         38.9200   89.2400   23.9200 C.3       6 GLY6        0.0000 
     52 CA         40.0600   91.9300   21.6900 C.3       6 GLY6        0.0000 
     53 CA         40.5000   90.8500   22.6400 C.3       6 GLY6        0.0000 
     54 CA         39.8800   90.2000   24.5600 C.3       6 GLY6        0.0000 
     55 CA         40.3200   89.1200   25.5100 C.3       6 GLY6        0.0000 
     56 CA         42.6900   89.9700   27.7300 C.3       6 GLY6        0.0000 
     57 CA         43.2100   92.0000   27.4200 C.3       6 GLY6        0.0000 
     58 DU         37.7900   89.7100   17.8600 H         7 CUB7        0.0000 
     59 DU         38.7500   90.6700   18.5000 H         7 CUB7        0.0000 
     60 DU         40.1600   90.5500   20.0800 H         7 CUB7        0.0000 
@<TRIPOS>BOND
@<TRIPOS>SUBSTRUCTURE
     1 SER1        1 GROUP   
     2 ALA2       10 GROUP   
     3 ASP3       13 GROUP   
     4 LYS4       32 GROUP   
     5 PHE5       34 GROUP   
     6 GLY6       39 GROUP   
     7 CUB7       58 GROUP   
@<TRIPOS>SET

