#    Name: 6ftl_3_CAP
#    Modification time : Fri May 22 19:25:20 2020

@<TRIPOS>MOLECULE
6ftl_3_CAP
   21    20     1     0     0
SMALL
NO_CHARGES


@<TRIPOS>ATOM
      1 C1         87.1220   30.5270   14.0510 C.3       1 CAP502      0.0000 
      2 C2         86.1700   31.0210   12.9540 C.3       1 CAP502      0.0000 
      3 C3         86.8110   32.1600   12.1520 C.3       1 CAP502      0.0000 
      4 C4         88.0650   31.7400   11.3490 C.3       1 CAP502      0.0000 
      5 C5         88.4040   32.7060   10.2140 C.3       1 CAP502      0.0000 
      6 C          85.7260   29.9170   12.0430 C.2       1 CAP502      0.0000 
      7 O1         86.3780   29.8860   15.0880 O.3       1 CAP502      0.0000 
      8 O2         84.9140   31.4650   13.5040 O.3       1 CAP502      0.0000 
      9 O3         85.7960   32.6850   11.3060 O.3       1 CAP502      0.0000 
     10 O4         89.2140   31.6140   12.2220 O.3       1 CAP502      0.0000 
     11 O5         89.6610   32.3460    9.6300 O.3       1 CAP502      0.0000 
     12 O6         84.6530   30.1540   11.4680 O.co2     1 CAP502      0.0000 
     13 O7         86.3790   28.8530   11.9190 O.co2     1 CAP502      0.0000 
     14 P1         87.1580   29.2660   16.3280 P.3       1 CAP502      0.0000 
     15 P2         90.7580   33.4580    9.4020 P.3       1 CAP502      0.0000 
     16 O1P        88.1300   28.3160   15.6940 O.co2     1 CAP502      0.0000 
     17 O2P        87.8320   30.4710   16.9750 O.co2     1 CAP502      0.0000 
     18 O3P        86.1230   28.5510   17.1540 O.co2     1 CAP502      0.0000 
     19 O4P        90.1670   34.4830    8.4820 O.co2     1 CAP502      0.0000 
     20 O5P        91.8970   32.7160    8.7850 O.co2     1 CAP502      0.0000 
     21 O6P        90.8810   33.9810   10.8080 O.co2     1 CAP502      0.0000 
@<TRIPOS>BOND
     1    1    2 1    
     2    1    7 1    
     3    2    3 1    
     4    2    6 1    
     5    2    8 1    
     6    3    4 1    
     7    3    9 1    
     8    4    5 1    
     9    4   10 1    
    10    5   11 1    
    11    6   12 ar   
    12    6   13 ar   
    13    7   14 1    
    14   11   15 1    
    15   14   16 ar   
    16   14   17 ar   
    17   14   18 ar   
    18   15   19 ar   
    19   15   20 ar   
    20   15   21 ar   
@<TRIPOS>SUBSTRUCTURE
     1 CAP502      1 GROUP   
@<TRIPOS>SET

