#    Name: 5y8n_4_NAD
#    Modification time : Fri May 22 19:13:01 2020

@<TRIPOS>MOLECULE
5y8n_4_NAD
   44    48     1     0     1
SMALL
NO_CHARGES


@<TRIPOS>ATOM
      1 PA          8.1070   38.9680   25.2230 P.3       1 NAD301      0.0000 
      2 O1A         7.2460   39.1900   26.4410 O.co2     1 NAD301      0.0000 
      3 O2A         7.8020   39.5960   23.8780 O.co2     1 NAD301      0.0000 
      4 O5B         8.2030   37.3830   25.0290 O.3       1 NAD301      0.0000 
      5 C5B         8.2220   36.4580   26.1020 C.3       1 NAD301      0.0000 
      6 C4B         7.4040   35.2560   25.6520 C.3       1 NAD301      0.0000 
      7 O4B         7.5610   34.1690   26.5640 O.3       1 NAD301      0.0000 
      8 C3B         5.9170   35.5720   25.6000 C.3       1 NAD301      0.0000 
      9 O3B         5.4040   35.3340   24.2860 O.3       1 NAD301      0.0000 
     10 C2B         5.2880   34.6380   26.6190 C.3       1 NAD301      0.0000 
     11 O2B         3.9830   34.2010   26.2240 O.3       1 NAD301      0.0000 
     12 C1B         6.3030   33.5090   26.6680 C.3       1 NAD301      0.0000 
     13 N9A         6.2520   32.6120   27.8420 N.pl3     1 NAD301      0.0000 
     14 C8A         5.9220   32.8940   29.1260 C.2       1 NAD301      0.0000 
     15 N7A         6.0070   31.7630   29.8990 N.2       1 NAD301      0.0000 
     16 C5A         6.3990   30.7450   29.1030 C.ar      1 NAD301      0.0000 
     17 C6A         6.6940   29.2990   29.2460 C.ar      1 NAD301      0.0000 
     18 N6A         6.6030   28.6700   30.4390 N.pl3     1 NAD301      0.0000 
     19 N1A         7.0700   28.6050   28.1440 N.ar      1 NAD301      0.0000 
     20 C2A         7.1960   29.1910   26.9290 C.ar      1 NAD301      0.0000 
     21 N3A         6.9560   30.4990   26.7330 N.ar      1 NAD301      0.0000 
     22 C4A         6.5660   31.3150   27.7530 C.ar      1 NAD301      0.0000 
     23 O3          9.6170   39.3550   25.6230 O.3       1 NAD301      0.0000 
     24 PN         10.7760   39.5970   24.5080 P.3       1 NAD301      0.0000 
     25 O1N        10.6950   41.0350   24.0380 O.co2     1 NAD301      0.0000 
     26 O2N        10.8140   38.4570   23.5260 O.co2     1 NAD301      0.0000 
     27 O5D        12.0810   39.4790   25.4360 O.3       1 NAD301      0.0000 
     28 C5D        12.3850   38.2740   26.1250 C.3       1 NAD301      0.0000 
     29 C4D        13.6420   38.4780   26.9640 C.3       1 NAD301      0.0000 
     30 O4D        14.6520   39.1240   26.1680 O.3       1 NAD301      0.0000 
     31 C3D        13.3880   39.3620   28.1800 C.3       1 NAD301      0.0000 
     32 O3D        13.9670   38.7650   29.3400 O.3       1 NAD301      0.0000 
     33 C2D        14.0520   40.6870   27.8230 C.3       1 NAD301      0.0000 
     34 O2D        14.5910   41.3780   28.9630 O.3       1 NAD301      0.0000 
     35 C1D        15.1500   40.2710   26.8430 C.3       1 NAD301      0.0000 
     36 N1N        15.5710   41.3020   25.8810 N.pl3     1 NAD301      0.0000 
     37 C2N        14.6680   41.9970   25.1430 C.ar      1 NAD301      0.0000 
     38 C3N        15.0720   42.9830   24.2280 C.ar      1 NAD301      0.0000 
     39 C7N        14.0790   43.7540   23.4060 C.2       1 NAD301      0.0000 
     40 O7N        14.3830   44.9050   23.0680 O.2       1 NAD301      0.0000 
     41 N7N        12.8970   43.2170   23.0550 N.am      1 NAD301      0.0000 
     42 C4N        16.4370   43.2430   24.0810 C.ar      1 NAD301      0.0000 
     43 C5N        17.3560   42.5160   24.8380 C.ar      1 NAD301      0.0000 
     44 C6N        16.8970   41.5450   25.7410 C.ar      1 NAD301      0.0000 
@<TRIPOS>BOND
     1    1    2 ar   
     2    1    3 ar   
     3    1    4 1    
     4    1   23 1    
     5    4    5 1    
     6    5    6 1    
     7    6    7 1    
     8    6    8 1    
     9    7   12 1    
    10    8    9 1    
    11    8   10 1    
    12   10   11 1    
    13   10   12 1    
    14   12   13 1    
    15   13   14 1    
    16   13   22 1    
    17   14   15 2    
    18   15   16 1    
    19   16   17 ar   
    20   16   22 ar   
    21   17   18 1    
    22   17   19 ar   
    23   19   20 ar   
    24   20   21 ar   
    25   21   22 ar   
    26   23   24 1    
    27   24   25 ar   
    28   24   26 ar   
    29   24   27 1    
    30   27   28 1    
    31   28   29 1    
    32   29   30 1    
    33   29   31 1    
    34   30   35 1    
    35   31   32 1    
    36   31   33 1    
    37   33   34 1    
    38   33   35 1    
    39   35   36 1    
    40   36   37 ar   
    41   36   44 ar   
    42   37   38 ar   
    43   38   39 1    
    44   38   42 ar   
    45   39   40 2    
    46   39   41 am   
    47   42   43 ar   
    48   43   44 ar   
@<TRIPOS>SUBSTRUCTURE
     1 NAD301      1 GROUP   
@<TRIPOS>SET
ATOM$ORANGE STATIC     ATOMS   COLORGROUP SYSTEM 
42 5 5 6 6 8 8 10 10 12 12 14 14 16 16 17 17 20 \
20 22 22 28 28 29 29 31 31 33 33 35 35 37 37 38 38 39 \
39 42 42 43 43 44 44 

