#    Name: 5y8n_3_NAD
#    Modification time : Fri May 22 19:12:56 2020

@<TRIPOS>MOLECULE
5y8n_3_NAD
   44    48     1     0     1
SMALL
NO_CHARGES


@<TRIPOS>ATOM
      1 PA         49.6240   77.1130   38.0990 P.3       1 NAD301      0.0000 
      2 O1A        49.1190   77.5130   39.4570 O.co2     1 NAD301      0.0000 
      3 O2A        50.7570   76.1220   37.9480 O.co2     1 NAD301      0.0000 
      4 O5B        50.0430   78.4230   37.2890 O.3       1 NAD301      0.0000 
      5 C5B        49.3400   79.6670   37.3390 C.3       1 NAD301      0.0000 
      6 C4B        50.3740   80.7770   37.3950 C.3       1 NAD301      0.0000 
      7 O4B        49.7610   82.0520   37.2680 O.3       1 NAD301      0.0000 
      8 C3B        51.1450   80.7790   38.7160 C.3       1 NAD301      0.0000 
      9 O3B        52.5570   80.6340   38.4730 O.3       1 NAD301      0.0000 
     10 C2B        50.8260   82.1150   39.3570 C.3       1 NAD301      0.0000 
     11 O2B        51.9350   82.6620   40.0870 O.3       1 NAD301      0.0000 
     12 C1B        50.4520   82.9530   38.1390 C.3       1 NAD301      0.0000 
     13 N9A        49.6770   84.2070   38.4010 N.pl3     1 NAD301      0.0000 
     14 C8A        48.8400   84.4880   39.4170 C.2       1 NAD301      0.0000 
     15 N7A        48.3430   85.7450   39.2780 N.2       1 NAD301      0.0000 
     16 C5A        48.8650   86.2840   38.1570 C.ar      1 NAD301      0.0000 
     17 C6A        48.7700   87.5710   37.4140 C.ar      1 NAD301      0.0000 
     18 N6A        47.9730   88.5780   37.8610 N.pl3     1 NAD301      0.0000 
     19 N1A        49.4900   87.7080   36.2720 N.ar      1 NAD301      0.0000 
     20 C2A        50.2820   86.7200   35.8040 C.ar      1 NAD301      0.0000 
     21 N3A        50.4080   85.5260   36.4300 N.ar      1 NAD301      0.0000 
     22 C4A        49.7440   85.2600   37.5820 C.ar      1 NAD301      0.0000 
     23 O3         48.3610   76.5740   37.2510 O.3       1 NAD301      0.0000 
     24 PN         48.4590   75.8400   35.8100 P.3       1 NAD301      0.0000 
     25 O1N        49.4630   76.5750   34.9450 O.co2     1 NAD301      0.0000 
     26 O2N        48.5940   74.3580   36.0560 O.co2     1 NAD301      0.0000 
     27 O5D        47.0030   76.1030   35.1750 O.3       1 NAD301      0.0000 
     28 C5D        46.3930   77.3970   35.1320 C.3       1 NAD301      0.0000 
     29 C4D        44.9850   77.3140   34.5340 C.3       1 NAD301      0.0000 
     30 O4D        44.9380   76.3080   33.5260 O.3       1 NAD301      0.0000 
     31 C3D        43.9020   76.9440   35.5620 C.3       1 NAD301      0.0000 
     32 O3D        42.7350   77.7500   35.3590 O.3       1 NAD301      0.0000 
     33 C2D        43.6290   75.4600   35.3220 C.3       1 NAD301      0.0000 
     34 O2D        42.2850   75.0800   35.6350 O.3       1 NAD301      0.0000 
     35 C1D        43.9430   75.3220   33.8250 C.3       1 NAD301      0.0000 
     36 N1N        44.3870   73.9980   33.3560 N.pl3     1 NAD301      0.0000 
     37 C2N        45.3110   73.2860   34.0420 C.ar      1 NAD301      0.0000 
     38 C3N        45.7510   72.0200   33.5990 C.ar      1 NAD301      0.0000 
     39 C7N        46.7770   71.2270   34.3670 C.2       1 NAD301      0.0000 
     40 O7N        46.7520   70.0190   34.2520 O.2       1 NAD301      0.0000 
     41 N7N        47.6870   71.8080   35.1490 N.am      1 NAD301      0.0000 
     42 C4N        45.1980   71.5220   32.4130 C.ar      1 NAD301      0.0000 
     43 C5N        44.2500   72.2720   31.7190 C.ar      1 NAD301      0.0000 
     44 C6N        43.8680   73.5160   32.2110 C.ar      1 NAD301      0.0000 
@<TRIPOS>BOND
     1    1    2 ar   
     2    1    3 ar   
     3    1    4 1    
     4    1   23 1    
     5    4    5 1    
     6    5    6 1    
     7    6    7 1    
     8    6    8 1    
     9    7   12 1    
    10    8    9 1    
    11    8   10 1    
    12   10   11 1    
    13   10   12 1    
    14   12   13 1    
    15   13   14 1    
    16   13   22 1    
    17   14   15 2    
    18   15   16 1    
    19   16   17 ar   
    20   16   22 ar   
    21   17   18 1    
    22   17   19 ar   
    23   19   20 ar   
    24   20   21 ar   
    25   21   22 ar   
    26   23   24 1    
    27   24   25 ar   
    28   24   26 ar   
    29   24   27 1    
    30   27   28 1    
    31   28   29 1    
    32   29   30 1    
    33   29   31 1    
    34   30   35 1    
    35   31   32 1    
    36   31   33 1    
    37   33   34 1    
    38   33   35 1    
    39   35   36 1    
    40   36   37 ar   
    41   36   44 ar   
    42   37   38 ar   
    43   38   39 1    
    44   38   42 ar   
    45   39   40 2    
    46   39   41 am   
    47   42   43 ar   
    48   43   44 ar   
@<TRIPOS>SUBSTRUCTURE
     1 NAD301      1 GROUP   
@<TRIPOS>SET
ATOM$ORANGE STATIC     ATOMS   COLORGROUP SYSTEM 
42 5 5 6 6 8 8 10 10 12 12 14 14 16 16 17 17 20 \
20 22 22 28 28 29 29 31 31 33 33 35 35 37 37 38 38 39 \
39 42 42 43 43 44 44 

