#    Name: 5wni_1_ATP
#    Modification time : Fri May 22 19:16:03 2020

@<TRIPOS>MOLECULE
5wni_1_ATP
   31    33     1     0     1
SMALL
NO_CHARGES


@<TRIPOS>ATOM
      1 PG        -21.4510    0.9740  -15.1520 P.3       1 ATP403      0.0000 
      2 O1G       -22.5820    0.8920  -16.1670 O.co2     1 ATP403      0.0000 
      3 O2G       -21.7570    0.2080  -13.8710 O.co2     1 ATP403      0.0000 
      4 O3G       -21.0280    2.4170  -14.8830 O.co2     1 ATP403      0.0000 
      5 PB        -18.6830   -0.2750  -15.4230 P.3       1 ATP403      0.0000 
      6 O1B       -17.8490    0.9550  -15.1720 O.co2     1 ATP403      0.0000 
      7 O2B       -18.7520   -1.3620  -14.3880 O.co2     1 ATP403      0.0000 
      8 O3B       -20.1730    0.1880  -15.8360 O.3       1 ATP403      0.0000 
      9 PA        -17.2300   -0.2350  -17.9320 P.3       1 ATP403      0.0000 
     10 O1A       -17.4870   -0.9390  -19.2230 O.co2     1 ATP403      0.0000 
     11 O2A       -17.4780    1.2390  -17.8560 O.co2     1 ATP403      0.0000 
     12 O3A       -18.1160   -0.9210  -16.7790 O.3       1 ATP403      0.0000 
     13 O5'       -15.7050   -0.4640  -17.4550 O.3       1 ATP403      0.0000 
     14 C5'       -15.1280   -1.7300  -17.0770 C.3       1 ATP403      0.0000 
     15 C4'       -13.6420   -1.7610  -17.3740 C.3       1 ATP403      0.0000 
     16 O4'       -13.3760   -2.9580  -18.1550 O.3       1 ATP403      0.0000 
     17 C3'       -13.0220   -0.6140  -18.1950 C.3       1 ATP403      0.0000 
     18 O3'       -12.4720    0.4310  -17.4000 O.3       1 ATP403      0.0000 
     19 C2'       -11.9140   -1.3320  -18.9750 C.3       1 ATP403      0.0000 
     20 O2'       -10.7270   -1.5360  -18.2350 O.3       1 ATP403      0.0000 
     21 C1'       -12.5840   -2.6680  -19.2840 C.3       1 ATP403      0.0000 
     22 N9        -13.4470   -2.6970  -20.4880 N.pl3     1 ATP403      0.0000 
     23 C8        -14.7310   -2.2030  -20.6180 C.2       1 ATP403      0.0000 
     24 N7        -15.2190   -2.3760  -21.8250 N.2       1 ATP403      0.0000 
     25 C5        -14.2040   -3.0190  -22.5280 C.ar      1 ATP403      0.0000 
     26 C6        -14.1020   -3.4710  -23.8610 C.ar      1 ATP403      0.0000 
     27 N6        -15.0700   -3.3340  -24.7620 N.pl3     1 ATP403      0.0000 
     28 N1        -12.9360   -4.0630  -24.2360 N.ar      1 ATP403      0.0000 
     29 C2        -11.9600   -4.2030  -23.3240 C.ar      1 ATP403      0.0000 
     30 N3        -11.9420   -3.8110  -22.0500 N.ar      1 ATP403      0.0000 
     31 C4        -13.1070   -3.2200  -21.7110 C.ar      1 ATP403      0.0000 
@<TRIPOS>BOND
     1    1    2 ar   
     2    1    3 ar   
     3    1    4 ar   
     4    1    8 1    
     5    5    6 ar   
     6    5    7 ar   
     7    5    8 1    
     8    5   12 1    
     9    9   10 ar   
    10    9   11 ar   
    11    9   12 1    
    12    9   13 1    
    13   13   14 1    
    14   14   15 1    
    15   15   16 1    
    16   15   17 1    
    17   16   21 1    
    18   17   18 1    
    19   17   19 1    
    20   19   20 1    
    21   19   21 1    
    22   21   22 1    
    23   22   23 1    
    24   22   31 1    
    25   23   24 2    
    26   24   25 1    
    27   25   26 ar   
    28   25   31 ar   
    29   26   27 1    
    30   26   28 ar   
    31   28   29 ar   
    32   29   30 ar   
    33   30   31 ar   
@<TRIPOS>SUBSTRUCTURE
     1 ATP403      1 GROUP   
@<TRIPOS>SET
ATOM$ORANGE STATIC     ATOMS   COLORGROUP SYSTEM 
20 14 14 15 15 17 17 19 19 21 21 23 23 25 25 26 26 29 \
29 31 31 

