#    Name: 6cch_1_GNP
#    Modification time : Fri May 22 19:31:09 2020

@<TRIPOS>MOLECULE
6cch_1_GNP
   32    34     1     0     1
SMALL
NO_CHARGES


@<TRIPOS>ATOM
      1 PG        -33.1860   -7.2990  -30.3860 P.3       1 GNP201      0.0000 
      2 O1G       -33.2090   -7.5430  -31.8890 O.co2     1 GNP201      0.0000 
      3 O2G       -31.8110   -7.4260  -29.8090 O.co2     1 GNP201      0.0000 
      4 O3G       -34.0350   -8.1990  -29.5840 O.co2     1 GNP201      0.0000 
      5 N3B       -33.7880   -5.8220  -30.0950 N.3       1 GNP201      0.0000 
      6 PB        -33.1740   -4.7040  -29.1230 P.3       1 GNP201      0.0000 
      7 O1B       -31.9020   -4.1430  -29.6330 O.co2     1 GNP201      0.0000 
      8 O2B       -33.0380   -5.3280  -27.8060 O.co2     1 GNP201      0.0000 
      9 O3A       -34.2230   -3.5650  -29.0040 O.3       1 GNP201      0.0000 
     10 PA        -35.2210   -2.8930  -30.0200 P.3       1 GNP201      0.0000 
     11 O1A       -34.4800   -2.1610  -31.0660 O.co2     1 GNP201      0.0000 
     12 O2A       -36.2960   -3.8030  -30.4320 O.co2     1 GNP201      0.0000 
     13 O5'       -35.9770   -1.7930  -29.2070 O.3       1 GNP201      0.0000 
     14 C5'       -36.8130   -2.1770  -28.0870 C.3       1 GNP201      0.0000 
     15 C4'       -37.8370   -1.1030  -27.8430 C.3       1 GNP201      0.0000 
     16 O4'       -37.1850    0.0390  -27.2020 O.3       1 GNP201      0.0000 
     17 C3'       -38.4910   -0.5490  -29.1130 C.3       1 GNP201      0.0000 
     18 O3'       -39.8930   -0.4120  -28.9070 O.3       1 GNP201      0.0000 
     19 C2'       -37.7520    0.7640  -29.3590 C.3       1 GNP201      0.0000 
     20 O2'       -38.4650    1.7410  -30.0770 O.3       1 GNP201      0.0000 
     21 C1'       -37.3910    1.2380  -27.9600 C.3       1 GNP201      0.0000 
     22 N9        -36.1400    2.0410  -27.8950 N.pl3     1 GNP201      0.0000 
     23 C8        -34.8890    1.5870  -28.1930 C.2       1 GNP201      0.0000 
     24 N7        -33.9660    2.4830  -28.0580 N.2       1 GNP201      0.0000 
     25 C5        -34.6490    3.6270  -27.6370 C.2       1 GNP201      0.0000 
     26 C6        -34.1590    4.9470  -27.3240 C.2       1 GNP201      0.0000 
     27 O6        -33.0280    5.3870  -27.3460 O.2       1 GNP201      0.0000 
     28 N1        -35.1600    5.8050  -26.9440 N.am      1 GNP201      0.0000 
     29 C2        -36.4900    5.4750  -26.8590 C.2       1 GNP201      0.0000 
     30 N2        -37.2960    6.4730  -26.4630 N.pl3     1 GNP201      0.0000 
     31 N3        -36.9640    4.2630  -27.1460 N.2       1 GNP201      0.0000 
     32 C4        -35.9870    3.3790  -27.5290 C.2       1 GNP201      0.0000 
@<TRIPOS>BOND
     1    1    2 ar   
     2    1    3 ar   
     3    1    4 ar   
     4    1    5 1    
     5    5    6 1    
     6    6    7 ar   
     7    6    8 ar   
     8    6    9 1    
     9    9   10 1    
    10   10   11 ar   
    11   10   12 ar   
    12   10   13 1    
    13   13   14 1    
    14   14   15 1    
    15   15   16 1    
    16   15   17 1    
    17   16   21 1    
    18   17   18 1    
    19   17   19 1    
    20   19   20 1    
    21   19   21 1    
    22   21   22 1    
    23   22   23 1    
    24   22   32 1    
    25   23   24 2    
    26   24   25 1    
    27   25   26 1    
    28   25   32 2    
    29   26   27 2    
    30   26   28 am   
    31   28   29 1    
    32   29   30 1    
    33   29   31 2    
    34   31   32 1    
@<TRIPOS>SUBSTRUCTURE
     1 GNP201      1 GROUP   
@<TRIPOS>SET
ATOM$ORANGE STATIC     ATOMS   COLORGROUP SYSTEM 
20 14 14 15 15 17 17 19 19 21 21 23 23 25 25 26 26 29 \
29 32 32 

