#    Name: 5wuw_1_NAP_CAVITY_N1_6
#    Modification time : Fri May 22 19:12:45 2020

@<TRIPOS>MOLECULE
5wuw_1_NAP_CAVITY_N1_6
   87     0     5     0     0
SMALL
NO_CHARGES


@<TRIPOS>ATOM
      1 OG        -23.0500   -7.7400   10.0700 O.3       1 SER1        0.0000 
      2 OG        -22.0500   -8.8500   10.2100 O.3       1 SER1        0.0000 
      3 OG        -22.5400   -9.1100   11.6100 O.3       1 SER1        0.0000 
      4 OG        -21.5600   -6.5000    9.2100 O.3       1 SER1        0.0000 
      5 OG        -22.0500   -6.7600   10.6100 O.3       1 SER1        0.0000 
      6 OG        -21.5400   -8.1400   12.1400 O.3       1 SER1        0.0000 
      7 OG        -20.5400   -9.2500   12.2800 O.3       1 SER1        0.0000 
      8 OG        -20.5500   -5.5300    9.7500 O.3       1 SER1        0.0000 
      9 OG        -21.0400   -5.7900   11.1500 O.3       1 SER1        0.0000 
     10 OG        -20.5300   -7.1600   12.6800 O.3       1 SER1        0.0000 
     11 OG        -19.5300   -8.2700   12.8200 O.3       1 SER1        0.0000 
     12 OG        -19.0300   -5.9200   11.8200 O.3       1 SER1        0.0000 
     13 N         -27.0400   -9.1000   11.6400 N.am      2 ALA2        0.0000 
     14 N         -26.0600   -6.4900    9.2500 N.am      2 ALA2        0.0000 
     15 N         -25.5500   -7.8600   10.7900 N.am      2 ALA2        0.0000 
     16 N         -26.0400   -8.1300   12.1800 N.am      2 ALA2        0.0000 
     17 N         -24.5500   -8.9700   10.9300 N.am      2 ALA2        0.0000 
     18 N         -25.0400   -9.2400   12.3200 N.am      2 ALA2        0.0000 
     19 O         -24.0400  -10.3500   12.4600 O.2       2 ALA2        0.0000 
     20 N         -26.0500   -4.4100    9.6500 N.am      2 ALA2        0.0000 
     21 N         -24.5600   -5.2500    8.4000 N.am      2 ALA2        0.0000 
     22 N         -21.0700   -6.2400    7.8200 N.am      2 ALA2        0.0000 
     23 N         -21.0600   -4.1500    8.2200 N.am      2 ALA2        0.0000 
     24 N         -23.0100   -3.1200   14.1900 N.am      2 ALA2        0.0000 
     25 N         -21.0300   -3.7000   11.5400 N.am      2 ALA2        0.0000 
     26 O         -21.5200   -3.9700   12.9400 O.2       2 ALA2        0.0000 
     27 O         -22.0100   -4.2300   14.3300 O.2       2 ALA2        0.0000 
     28 N         -19.5400   -4.5500   10.2900 N.am      2 ALA2        0.0000 
     29 N         -20.0300   -4.8100   11.6800 N.am      2 ALA2        0.0000 
     30 O         -21.0100   -5.3400   14.4700 O.2       2 ALA2        0.0000 
     31 O         -20.5000   -6.7100   16.0000 O.2       2 ALA2        0.0000 
     32 N         -19.9900   -8.0900   17.5400 N.am      2 ALA2        0.0000 
     33 O         -20.5200   -2.9900   13.4700 O.2       2 ALA2        0.0000 
     34 N         -19.5200   -4.1000   13.6100 N.am      2 ALA2        0.0000 
     35 OD1       -23.0700   -6.1000    7.1400 O.co2     3 ASP3        0.0000 
     36 OD1       -22.5600   -7.4700    8.6800 O.co2     3 ASP3        0.0000 
     37 CA        -24.5700   -7.3400    8.0000 C.3       4 GLY6        0.0000 
     38 CA        -23.5700   -8.4500    8.1400 C.3       4 GLY6        0.0000 
     39 CA        -24.0600   -8.7100    9.5300 C.3       4 GLY6        0.0000 
     40 CA        -23.5500  -10.0800   11.0700 C.3       4 GLY6        0.0000 
     41 CA        -23.0300   -9.3700   13.0000 C.3       4 GLY6        0.0000 
     42 CA        -21.5400  -10.2200   11.7500 C.3       4 GLY6        0.0000 
     43 CA        -25.5300   -3.7000   11.5800 C.3       4 GLY6        0.0000 
     44 CA        -26.0200   -3.9600   12.9700 C.3       4 GLY6        0.0000 
     45 CA        -23.5500   -4.2800    8.9300 C.3       4 GLY6        0.0000 
     46 CA        -24.0400   -4.5400   10.3300 C.3       4 GLY6        0.0000 
     47 CA        -24.5300   -4.8100   11.7200 C.3       4 GLY6        0.0000 
     48 CA        -22.0700   -5.1300    7.6800 C.3       4 GLY6        0.0000 
     49 CA        -23.5100   -7.5500   14.7900 C.3       4 GLY6        0.0000 
     50 CA        -22.0300   -8.4000   13.5400 C.3       4 GLY6        0.0000 
     51 CA        -22.5100   -8.6600   14.9300 C.3       4 GLY6        0.0000 
     52 CA        -22.5500   -3.3100    9.4700 C.3       4 GLY6        0.0000 
     53 CA        -23.0400   -3.5700   10.8600 C.3       4 GLY6        0.0000 
     54 CA        -23.5300   -3.8300   12.2600 C.3       4 GLY6        0.0000 
     55 CA        -24.0200   -4.1000   13.6500 C.3       4 GLY6        0.0000 
     56 CA        -21.5500   -4.4200    9.6100 C.3       4 GLY6        0.0000 
     57 CA        -22.0400   -4.6800   11.0000 C.3       4 GLY6        0.0000 
     58 CA        -22.5100   -6.5800   15.3300 C.3       4 GLY6        0.0000 
     59 CA        -21.0200   -7.4300   14.0700 C.3       4 GLY6        0.0000 
     60 CA        -21.5100   -7.6900   15.4700 C.3       4 GLY6        0.0000 
     61 CA        -20.0200   -8.5400   14.2100 C.3       4 GLY6        0.0000 
     62 CA        -22.0300   -2.5900   11.4000 C.3       4 GLY6        0.0000 
     63 CA        -22.5200   -2.8600   12.7900 C.3       4 GLY6        0.0000 
     64 CA        -20.5400   -3.4400   10.1500 C.3       4 GLY6        0.0000 
     65 CA        -19.5000   -7.8200   16.1400 C.3       4 GLY6        0.0000 
     66 DU        -26.5500   -6.7500   10.6500 H         5 CUB7        0.0000 
     67 DU        -27.0300   -7.0200   12.0400 H         5 CUB7        0.0000 
     68 DU        -26.5400   -4.6700   11.0400 H         5 CUB7        0.0000 
     69 DU        -25.0500   -5.5200    9.7900 H         5 CUB7        0.0000 
     70 DU        -25.5400   -5.7800   11.1800 H         5 CUB7        0.0000 
     71 DU        -26.0300   -6.0400   12.5800 H         5 CUB7        0.0000 
     72 DU        -23.5600   -6.3600    8.5400 H         5 CUB7        0.0000 
     73 DU        -24.0500   -6.6300    9.9300 H         5 CUB7        0.0000 
     74 DU        -24.5400   -6.8900   11.3200 H         5 CUB7        0.0000 
     75 DU        -23.5400   -8.0000   11.4600 H         5 CUB7        0.0000 
     76 DU        -24.0300   -8.2600   12.8600 H         5 CUB7        0.0000 
     77 DU        -22.5600   -5.3900    9.0700 H         5 CUB7        0.0000 
     78 DU        -23.0400   -5.6500   10.4700 H         5 CUB7        0.0000 
     79 DU        -23.5300   -5.9200   11.8600 H         5 CUB7        0.0000 
     80 DU        -22.5300   -7.0300   12.0000 H         5 CUB7        0.0000 
     81 DU        -23.0200   -7.2900   13.3900 H         5 CUB7        0.0000 
     82 DU        -22.5300   -4.9400   12.4000 H         5 CUB7        0.0000 
     83 DU        -23.0200   -5.2100   13.7900 H         5 CUB7        0.0000 
     84 DU        -21.5300   -6.0500   12.5400 H         5 CUB7        0.0000 
     85 DU        -22.0200   -6.3200   13.9300 H         5 CUB7        0.0000 
     86 DU        -20.5200   -5.0800   13.0800 H         5 CUB7        0.0000 
     87 DU        -19.5200   -6.1900   13.2200 H         5 CUB7        0.0000 
@<TRIPOS>BOND
@<TRIPOS>SUBSTRUCTURE
     1 SER1        1 GROUP   
     2 ALA2       13 GROUP   
     3 ASP3       35 GROUP   
     4 GLY6       37 GROUP   
     5 CUB7       66 GROUP   
@<TRIPOS>SET

