#    Name: 5wuw_1_NAP
#    Modification time : Fri May 22 19:12:42 2020

@<TRIPOS>MOLECULE
5wuw_1_NAP
   48    52     1     0     1
SMALL
NO_CHARGES


@<TRIPOS>ATOM
      1 PA        -27.9560   -6.3600   13.2830 P.3       1 NAP301      0.0000 
      2 O1A       -27.7450   -7.5820   14.1960 O.co2     1 NAP301      0.0000 
      3 O2A       -28.5420   -5.0160   13.8360 O.co2     1 NAP301      0.0000 
      4 O5B       -28.7970   -6.9060   12.0070 O.3       1 NAP301      0.0000 
      5 C5B       -28.3180   -7.7550   10.9430 C.3       1 NAP301      0.0000 
      6 C4B       -29.1210   -7.4220    9.6760 C.3       1 NAP301      0.0000 
      7 O4B       -28.9920   -8.5050    8.7480 O.3       1 NAP301      0.0000 
      8 C3B       -30.6370   -7.2140    9.9510 C.3       1 NAP301      0.0000 
      9 O3B       -31.1920   -6.0750    9.2380 O.3       1 NAP301      0.0000 
     10 C2B       -31.2330   -8.5690    9.6060 C.3       1 NAP301      0.0000 
     11 O2B       -32.6730   -8.6080    9.3120 O.3       1 NAP301      0.0000 
     12 C1B       -30.3060   -8.9760    8.4460 C.3       1 NAP301      0.0000 
     13 N9A       -30.2950  -10.4300    8.2560 N.pl3     1 NAP301      0.0000 
     14 C8A       -29.4930  -11.3380    8.8300 C.2       1 NAP301      0.0000 
     15 N7A       -29.8090  -12.5850    8.3850 N.2       1 NAP301      0.0000 
     16 C5A       -30.8210  -12.4660    7.5110 C.ar      1 NAP301      0.0000 
     17 C6A       -31.6350  -13.3640    6.6680 C.ar      1 NAP301      0.0000 
     18 N6A       -31.4200  -14.7020    6.6760 N.pl3     1 NAP301      0.0000 
     19 N1A       -32.6040  -12.7960    5.8960 N.ar      1 NAP301      0.0000 
     20 C2A       -32.8430  -11.4640    5.8620 C.ar      1 NAP301      0.0000 
     21 N3A       -32.1490  -10.5690    6.5910 N.ar      1 NAP301      0.0000 
     22 C4A       -31.1430  -11.0310    7.4200 C.ar      1 NAP301      0.0000 
     23 O3        -26.5180   -6.0030   12.5640 O.3       1 NAP301      0.0000 
     24 PN        -25.9910   -4.6770   11.7300 P.3       1 NAP301      0.0000 
     25 O1N       -24.6590   -4.3510   12.3960 O.co2     1 NAP301      0.0000 
     26 O2N       -26.9880   -3.5040   11.5720 O.co2     1 NAP301      0.0000 
     27 O5D       -25.6500   -5.5350   10.3740 O.3       1 NAP301      0.0000 
     28 C5D       -25.7600   -5.0390    9.0340 C.3       1 NAP301      0.0000 
     29 C4D       -24.5480   -5.3540    8.1570 C.3       1 NAP301      0.0000 
     30 O4D       -23.4430   -4.5880    8.6080 O.3       1 NAP301      0.0000 
     31 C3D       -24.1070   -6.8220    8.1360 C.3       1 NAP301      0.0000 
     32 O3D       -23.7460   -7.2270    6.8120 O.3       1 NAP301      0.0000 
     33 C2D       -22.8760   -6.8210    9.0510 C.3       1 NAP301      0.0000 
     34 O2D       -22.0220   -7.9910    8.9490 O.3       1 NAP301      0.0000 
     35 C1D       -22.2700   -5.4340    8.7250 C.3       1 NAP301      0.0000 
     36 N1N       -21.3310   -4.9820    9.7620 N.pl3     1 NAP301      0.0000 
     37 C2N       -21.8030   -4.6640   11.0090 C.ar      1 NAP301      0.0000 
     38 C3N       -20.9430   -4.2510   12.0500 C.ar      1 NAP301      0.0000 
     39 C7N       -21.4740   -3.8990   13.4580 C.2       1 NAP301      0.0000 
     40 O7N       -22.6460   -3.7330   13.8230 O.2       1 NAP301      0.0000 
     41 N7N       -20.6020   -3.8010   14.4300 N.am      1 NAP301      0.0000 
     42 C4N       -19.5600   -4.2220   11.7440 C.ar      1 NAP301      0.0000 
     43 C5N       -19.1010   -4.5980   10.4840 C.ar      1 NAP301      0.0000 
     44 C6N       -20.0160   -4.9740    9.5010 C.ar      1 NAP301      0.0000 
     45 P2B       -33.6730   -9.4310   10.2320 P.3       1 NAP301      0.0000 
     46 O1X       -33.3610   -9.1690   11.6700 O.co2     1 NAP301      0.0000 
     47 O2X       -35.0320   -9.0090    9.7610 O.co2     1 NAP301      0.0000 
     48 O3X       -33.4580  -10.8840   10.0260 O.co2     1 NAP301      0.0000 
@<TRIPOS>BOND
     1    1    2 ar   
     2    1    3 ar   
     3    1    4 1    
     4    1   23 1    
     5    4    5 1    
     6    5    6 1    
     7    6    7 1    
     8    6    8 1    
     9    7   12 1    
    10    8    9 1    
    11    8   10 1    
    12   10   11 1    
    13   10   12 1    
    14   11   45 1    
    15   12   13 1    
    16   13   14 1    
    17   13   22 1    
    18   14   15 2    
    19   15   16 1    
    20   16   17 ar   
    21   16   22 ar   
    22   17   18 1    
    23   17   19 ar   
    24   19   20 ar   
    25   20   21 ar   
    26   21   22 ar   
    27   23   24 1    
    28   24   25 ar   
    29   24   26 ar   
    30   24   27 1    
    31   27   28 1    
    32   28   29 1    
    33   29   30 1    
    34   29   31 1    
    35   30   35 1    
    36   31   32 1    
    37   31   33 1    
    38   33   34 1    
    39   33   35 1    
    40   35   36 1    
    41   36   37 ar   
    42   36   44 ar   
    43   37   38 ar   
    44   38   39 1    
    45   38   42 ar   
    46   39   40 2    
    47   39   41 am   
    48   42   43 ar   
    49   43   44 ar   
    50   45   46 ar   
    51   45   47 ar   
    52   45   48 ar   
@<TRIPOS>SUBSTRUCTURE
     1 NAP301      1 GROUP   
@<TRIPOS>SET
ATOM$ORANGE STATIC     ATOMS   COLORGROUP SYSTEM 
42 5 5 6 6 8 8 10 10 12 12 14 14 16 16 17 17 20 \
20 22 22 28 28 29 29 31 31 33 33 35 35 37 37 38 38 39 \
39 42 42 43 43 44 44 

