#    Name: 6j61_1_FAD
#    Modification time : Fri May 22 19:30:51 2020

@<TRIPOS>MOLECULE
6j61_1_FAD
   53    58     1     0     1
SMALL
NO_CHARGES


@<TRIPOS>ATOM
      1 PA         37.4530    0.0660   29.9340 P.3       1 FAD301      0.0000 
      2 O1A        37.6860   -1.3570   30.2870 O.co2     1 FAD301      0.0000 
      3 O2A        37.7900    0.9940   31.2180 O.co2     1 FAD301      0.0000 
      4 O5B        38.4200    0.4470   28.7200 O.3       1 FAD301      0.0000 
      5 C5B        38.0760    1.7450   28.2400 C.3       1 FAD301      0.0000 
      6 C4B        38.6930    1.9130   26.8520 C.3       1 FAD301      0.0000 
      7 O4B        40.1360    1.7870   26.9380 O.3       1 FAD301      0.0000 
      8 C3B        38.2090    0.8270   25.9080 C.3       1 FAD301      0.0000 
      9 O3B        37.0200    1.1940   25.2120 O.3       1 FAD301      0.0000 
     10 C2B        39.4020    0.6160   24.9890 C.3       1 FAD301      0.0000 
     11 O2B        39.3520    1.5520   23.9090 O.3       1 FAD301      0.0000 
     12 C1B        40.6170    0.8450   25.9290 C.3       1 FAD301      0.0000 
     13 N9A        41.1150   -0.4070   26.5750 N.pl3     1 FAD301      0.0000 
     14 C8A        41.1550   -0.6770   27.9230 C.2       1 FAD301      0.0000 
     15 N7A        41.6540   -1.8540   28.1450 N.2       1 FAD301      0.0000 
     16 C5A        41.9760   -2.4310   26.9700 C.ar      1 FAD301      0.0000 
     17 C6A        42.5460   -3.6770   26.5880 C.ar      1 FAD301      0.0000 
     18 N6A        42.8960   -4.6060   27.5550 N.pl3     1 FAD301      0.0000 
     19 N1A        42.7370   -3.9360   25.2630 N.ar      1 FAD301      0.0000 
     20 C2A        42.4010   -3.0430   24.3160 C.ar      1 FAD301      0.0000 
     21 N3A        41.8620   -1.8580   24.6360 N.ar      1 FAD301      0.0000 
     22 C4A        41.6350   -1.5140   25.9340 C.ar      1 FAD301      0.0000 
     23 N1         30.7800   -7.9400   28.6850 N.2       1 FAD301      0.0000 
     24 C2         30.8290   -9.2780   28.6510 C.2       1 FAD301      0.0000 
     25 O2         31.8650   -9.8320   29.0050 O.2       1 FAD301      0.0000 
     26 N3         29.7830  -10.0470   28.2440 N.am      1 FAD301      0.0000 
     27 C4         28.5880   -9.4980   27.8280 C.2       1 FAD301      0.0000 
     28 O4         27.6620  -10.2030   27.4660 O.2       1 FAD301      0.0000 
     29 C4X        28.4770   -8.0080   27.8380 C.2       1 FAD301      0.0000 
     30 N5         27.3820   -7.3560   27.4550 N.2       1 FAD301      0.0000 
     31 C5X        27.3070   -5.9970   27.4730 C.ar      1 FAD301      0.0000 
     32 C6         26.1020   -5.3400   27.0460 C.ar      1 FAD301      0.0000 
     33 C7         26.0100   -3.9510   27.0600 C.ar      1 FAD301      0.0000 
     34 C7M        24.7180   -3.3080   26.6010 C.3       1 FAD301      0.0000 
     35 C8         27.1180   -3.1520   27.5030 C.ar      1 FAD301      0.0000 
     36 C8M        27.0310   -1.6390   27.5240 C.3       1 FAD301      0.0000 
     37 C9         28.3110   -3.7670   27.9290 C.ar      1 FAD301      0.0000 
     38 C9A        28.4360   -5.1970   27.9230 C.ar      1 FAD301      0.0000 
     39 N10        29.6340   -5.8600   28.3450 N.pl3     1 FAD301      0.0000 
     40 C10        29.6840   -7.2520   28.3100 C.2       1 FAD301      0.0000 
     41 C1'        30.8170   -5.1240   28.8260 C.3       1 FAD301      0.0000 
     42 C2'        31.7090   -4.5960   27.6910 C.3       1 FAD301      0.0000 
     43 O2'        31.9700   -5.6270   26.7360 O.3       1 FAD301      0.0000 
     44 C3'        33.0330   -4.0480   28.2900 C.3       1 FAD301      0.0000 
     45 O3'        33.8090   -5.1090   28.8670 O.3       1 FAD301      0.0000 
     46 C4'        32.7590   -2.9720   29.3760 C.3       1 FAD301      0.0000 
     47 O4'        31.6150   -2.1720   29.0220 O.3       1 FAD301      0.0000 
     48 C5'        33.9720   -2.0650   29.5150 C.3       1 FAD301      0.0000 
     49 O5'        33.9250   -1.1020   28.4620 O.3       1 FAD301      0.0000 
     50 P          35.3970   -0.5430   28.2050 P.3       1 FAD301      0.0000 
     51 O1P        36.3140   -1.6760   27.9020 O.co2     1 FAD301      0.0000 
     52 O2P        35.3250    0.4590   26.9570 O.co2     1 FAD301      0.0000 
     53 O3P        35.8760    0.3070   29.5320 O.3       1 FAD301      0.0000 
@<TRIPOS>BOND
     1    1    2 ar   
     2    1    3 ar   
     3    1    4 1    
     4    1   53 1    
     5    4    5 1    
     6    5    6 1    
     7    6    7 1    
     8    6    8 1    
     9    7   12 1    
    10    8    9 1    
    11    8   10 1    
    12   10   11 1    
    13   10   12 1    
    14   12   13 1    
    15   13   14 1    
    16   13   22 1    
    17   14   15 2    
    18   15   16 1    
    19   16   17 ar   
    20   16   22 ar   
    21   17   18 1    
    22   17   19 ar   
    23   19   20 ar   
    24   20   21 ar   
    25   21   22 ar   
    26   23   24 1    
    27   23   40 2    
    28   24   25 2    
    29   24   26 am   
    30   26   27 am   
    31   27   28 2    
    32   27   29 1    
    33   29   30 2    
    34   29   40 1    
    35   30   31 1    
    36   31   32 ar   
    37   31   38 ar   
    38   32   33 ar   
    39   33   34 1    
    40   33   35 ar   
    41   35   36 1    
    42   35   37 ar   
    43   37   38 ar   
    44   38   39 1    
    45   39   40 1    
    46   39   41 1    
    47   41   42 1    
    48   42   43 1    
    49   42   44 1    
    50   44   45 1    
    51   44   46 1    
    52   46   47 1    
    53   46   48 1    
    54   48   49 1    
    55   49   50 1    
    56   50   51 ar   
    57   50   52 ar   
    58   50   53 1    
@<TRIPOS>SUBSTRUCTURE
     1 FAD301      1 GROUP   
@<TRIPOS>SET
ATOM$ORANGE STATIC     ATOMS   COLORGROUP SYSTEM 
54 5 5 6 6 8 8 10 10 12 12 14 14 16 16 17 17 20 \
20 22 22 24 24 27 27 29 29 31 31 32 32 33 33 34 34 35 \
35 36 36 37 37 38 38 40 40 41 41 42 42 44 44 46 46 48 \
48 

