#    Name: 6j61_4_FAD
#    Modification time : Fri May 22 19:31:37 2020

@<TRIPOS>MOLECULE
6j61_4_FAD
   53    58     1     0     1
SMALL
NO_CHARGES


@<TRIPOS>ATOM
      1 PA         43.8600    5.9060   22.8920 P.3       1 FAD301      0.0000 
      2 O1A        45.2170    6.3980   23.2340 O.co2     1 FAD301      0.0000 
      3 O2A        43.9810    4.7000   21.8210 O.co2     1 FAD301      0.0000 
      4 O5B        43.1640    5.3630   24.2320 O.3       1 FAD301      0.0000 
      5 C5B        41.7920    5.0560   23.9720 C.3       1 FAD301      0.0000 
      6 C4B        41.0950    4.9490   25.3230 C.3       1 FAD301      0.0000 
      7 O4B        41.7040    3.8830   26.0850 O.3       1 FAD301      0.0000 
      8 C3B        41.2850    6.2190   26.1350 C.3       1 FAD301      0.0000 
      9 O3B        40.2920    7.2120   25.8770 O.3       1 FAD301      0.0000 
     10 C2B        41.2710    5.7240   27.5740 C.3       1 FAD301      0.0000 
     11 O2B        39.9270    5.6850   28.0700 O.3       1 FAD301      0.0000 
     12 C1B        41.9220    4.3180   27.4760 C.3       1 FAD301      0.0000 
     13 N9A        43.3800    4.3100   27.8090 N.pl3     1 FAD301      0.0000 
     14 C8A        44.3920    3.8240   27.0150 C.2       1 FAD301      0.0000 
     15 N7A        45.5500    3.9610   27.6010 N.2       1 FAD301      0.0000 
     16 C5A        45.3780    4.5380   28.8080 C.ar      1 FAD301      0.0000 
     17 C6A        46.2450    4.9290   29.8730 C.ar      1 FAD301      0.0000 
     18 N6A        47.6090    4.7270   29.7770 N.pl3     1 FAD301      0.0000 
     19 N1A        45.7100    5.4990   30.9770 N.ar      1 FAD301      0.0000 
     20 C2A        44.3880    5.7040   31.0880 C.ar      1 FAD301      0.0000 
     21 N3A        43.5350    5.3540   30.1120 N.ar      1 FAD301      0.0000 
     22 C4A        43.9780    4.7770   28.9700 C.ar      1 FAD301      0.0000 
     23 N1         47.0350   16.1200   22.8270 N.2       1 FAD301      0.0000 
     24 C2         47.9900   16.8990   23.3610 C.2       1 FAD301      0.0000 
     25 O2         48.9240   16.3610   23.9300 O.2       1 FAD301      0.0000 
     26 N3         47.9640   18.2530   23.3000 N.am      1 FAD301      0.0000 
     27 C4         46.9390   18.9380   22.6760 C.2       1 FAD301      0.0000 
     28 O4         46.9310   20.1590   22.6320 O.2       1 FAD301      0.0000 
     29 C4X        45.8370   18.1260   22.0620 C.2       1 FAD301      0.0000 
     30 N5         44.7920   18.6700   21.4390 N.2       1 FAD301      0.0000 
     31 C5X        43.8000   17.9110   20.8910 C.ar      1 FAD301      0.0000 
     32 C6         42.6890   18.5480   20.2350 C.ar      1 FAD301      0.0000 
     33 C7         41.6680   17.7850   19.6740 C.ar      1 FAD301      0.0000 
     34 C7M        40.5160   18.5010   18.9930 C.3       1 FAD301      0.0000 
     35 C8         41.7100   16.3490   19.7400 C.ar      1 FAD301      0.0000 
     36 C8M        40.6080   15.5050   19.1360 C.3       1 FAD301      0.0000 
     37 C9         42.7830   15.6980   20.3740 C.ar      1 FAD301      0.0000 
     38 C9A        43.8510   16.4550   20.9650 C.ar      1 FAD301      0.0000 
     39 N10        44.9600   15.8260   21.6250 N.pl3     1 FAD301      0.0000 
     40 C10        45.9600   16.6330   22.1810 C.2       1 FAD301      0.0000 
     41 C1'        45.0860   14.3500   21.7370 C.3       1 FAD301      0.0000 
     42 C2'        44.1930   13.7270   22.8410 C.3       1 FAD301      0.0000 
     43 O2'        44.4380   14.3460   24.1070 O.3       1 FAD301      0.0000 
     44 C3'        44.4610   12.2040   22.9370 C.3       1 FAD301      0.0000 
     45 O3'        45.8030   11.9720   23.4020 O.3       1 FAD301      0.0000 
     46 C4'        44.2580   11.5060   21.5540 C.3       1 FAD301      0.0000 
     47 O4'        43.0900   12.0250   20.8890 O.3       1 FAD301      0.0000 
     48 C5'        44.0940    9.9990   21.7420 C.3       1 FAD301      0.0000 
     49 O5'        42.7700    9.7540   22.2130 O.3       1 FAD301      0.0000 
     50 P          42.7680    8.4440   23.1520 P.3       1 FAD301      0.0000 
     51 O1P        43.8270    8.5520   24.1970 O.co2     1 FAD301      0.0000 
     52 O2P        41.3230    8.3520   23.8340 O.co2     1 FAD301      0.0000 
     53 O3P        42.9920    7.1160   22.1860 O.3       1 FAD301      0.0000 
@<TRIPOS>BOND
     1    1    2 ar   
     2    1    3 ar   
     3    1    4 1    
     4    1   53 1    
     5    4    5 1    
     6    5    6 1    
     7    6    7 1    
     8    6    8 1    
     9    7   12 1    
    10    8    9 1    
    11    8   10 1    
    12   10   11 1    
    13   10   12 1    
    14   12   13 1    
    15   13   14 1    
    16   13   22 1    
    17   14   15 2    
    18   15   16 1    
    19   16   17 ar   
    20   16   22 ar   
    21   17   18 1    
    22   17   19 ar   
    23   19   20 ar   
    24   20   21 ar   
    25   21   22 ar   
    26   23   24 1    
    27   23   40 2    
    28   24   25 2    
    29   24   26 am   
    30   26   27 am   
    31   27   28 2    
    32   27   29 1    
    33   29   30 2    
    34   29   40 1    
    35   30   31 1    
    36   31   32 ar   
    37   31   38 ar   
    38   32   33 ar   
    39   33   34 1    
    40   33   35 ar   
    41   35   36 1    
    42   35   37 ar   
    43   37   38 ar   
    44   38   39 1    
    45   39   40 1    
    46   39   41 1    
    47   41   42 1    
    48   42   43 1    
    49   42   44 1    
    50   44   45 1    
    51   44   46 1    
    52   46   47 1    
    53   46   48 1    
    54   48   49 1    
    55   49   50 1    
    56   50   51 ar   
    57   50   52 ar   
    58   50   53 1    
@<TRIPOS>SUBSTRUCTURE
     1 FAD301      1 GROUP   
@<TRIPOS>SET
ATOM$ORANGE STATIC     ATOMS   COLORGROUP SYSTEM 
54 5 5 6 6 8 8 10 10 12 12 14 14 16 16 17 17 20 \
20 22 22 24 24 27 27 29 29 31 31 32 32 33 33 34 34 35 \
35 36 36 37 37 38 38 40 40 41 41 42 42 44 44 46 46 48 \
48 

