#    Name: 6j61_2_FAD
#    Modification time : Fri May 22 19:31:05 2020

@<TRIPOS>MOLECULE
6j61_2_FAD
   53    58     1     0     1
SMALL
NO_CHARGES


@<TRIPOS>ATOM
      1 PA         54.6560    0.7060   28.5910 P.3       1 FAD301      0.0000 
      2 O1A        54.3090    1.3610   27.3100 O.co2     1 FAD301      0.0000 
      3 O2A        54.3830    1.7340   29.8010 O.co2     1 FAD301      0.0000 
      4 O5B        53.7480   -0.6110   28.7560 O.3       1 FAD301      0.0000 
      5 C5B        54.0550   -1.2520   29.9960 C.3       1 FAD301      0.0000 
      6 C4B        53.3410   -2.6040   30.0270 C.3       1 FAD301      0.0000 
      7 O4B        51.9100   -2.3980   30.1080 O.3       1 FAD301      0.0000 
      8 C3B        53.5920   -3.4100   28.7510 C.3       1 FAD301      0.0000 
      9 O3B        54.7730   -4.1970   28.8370 O.3       1 FAD301      0.0000 
     10 C2B        52.3120   -4.2410   28.6280 C.3       1 FAD301      0.0000 
     11 O2B        52.4020   -5.4350   29.4240 O.3       1 FAD301      0.0000 
     12 C1B        51.2220   -3.2570   29.1310 C.3       1 FAD301      0.0000 
     13 N9A        50.6390   -2.4420   28.0210 N.pl3     1 FAD301      0.0000 
     14 C8A        50.6360   -1.0650   27.9110 C.2       1 FAD301      0.0000 
     15 N7A        50.0370   -0.6900   26.8160 N.2       1 FAD301      0.0000 
     16 C5A        49.6090   -1.7880   26.1410 C.ar      1 FAD301      0.0000 
     17 C6A        48.9070   -2.0210   24.9160 C.ar      1 FAD301      0.0000 
     18 N6A        48.5040   -0.9670   24.1220 N.pl3     1 FAD301      0.0000 
     19 N1A        48.6420   -3.2930   24.5470 N.ar      1 FAD301      0.0000 
     20 C2A        49.0200   -4.3400   25.2960 C.ar      1 FAD301      0.0000 
     21 N3A        49.6780   -4.1720   26.4490 N.ar      1 FAD301      0.0000 
     22 C4A        49.9900   -2.9320   26.9050 C.ar      1 FAD301      0.0000 
     23 N1         60.7020    0.3880   19.9920 N.2       1 FAD301      0.0000 
     24 C2         60.5960    0.5580   18.6680 C.2       1 FAD301      0.0000 
     25 O2         59.5400    0.9770   18.2270 O.2       1 FAD301      0.0000 
     26 N3         61.6090    0.2820   17.7990 N.am      1 FAD301      0.0000 
     27 C4         62.8310   -0.2020   18.2360 C.2       1 FAD301      0.0000 
     28 O4         63.7300   -0.4460   17.4500 O.2       1 FAD301      0.0000 
     29 C4X        63.0030   -0.4170   19.7090 C.2       1 FAD301      0.0000 
     30 N5         64.1220   -0.8830   20.2510 N.2       1 FAD301      0.0000 
     31 C5X        64.2560   -1.0730   21.6010 C.ar      1 FAD301      0.0000 
     32 C6         65.4920   -1.5910   22.1420 C.ar      1 FAD301      0.0000 
     33 C7         65.6390   -1.7900   23.5180 C.ar      1 FAD301      0.0000 
     34 C7M        66.9540   -2.3420   24.0390 C.3       1 FAD301      0.0000 
     35 C8         64.5570   -1.4760   24.4160 C.ar      1 FAD301      0.0000 
     36 C8M        64.6910   -1.6830   25.9150 C.3       1 FAD301      0.0000 
     37 C9         63.3450   -0.9690   23.9120 C.ar      1 FAD301      0.0000 
     38 C9A        63.1590   -0.7580   22.5030 C.ar      1 FAD301      0.0000 
     39 N10        61.9330   -0.2510   21.9520 N.pl3     1 FAD301      0.0000 
     40 C10        61.8300   -0.0780   20.5750 C.2       1 FAD301      0.0000 
     41 C1'        60.7610    0.1070   22.7820 C.3       1 FAD301      0.0000 
     42 C2'        60.0480   -1.0900   23.4560 C.3       1 FAD301      0.0000 
     43 O2'        59.6550   -2.0890   22.4990 O.3       1 FAD301      0.0000 
     44 C3'        58.8250   -0.5570   24.2460 C.3       1 FAD301      0.0000 
     45 O3'        57.9070    0.1170   23.3610 O.3       1 FAD301      0.0000 
     46 C4'        59.2650    0.4310   25.3520 C.3       1 FAD301      0.0000 
     47 O4'        60.4830   -0.0030   25.9750 O.3       1 FAD301      0.0000 
     48 C5'        58.1770    0.5340   26.3980 C.3       1 FAD301      0.0000 
     49 O5'        58.1670   -0.6790   27.1460 O.3       1 FAD301      0.0000 
     50 P          56.6740   -0.9320   27.6740 P.3       1 FAD301      0.0000 
     51 O1P        55.7540   -1.0970   26.5110 O.co2     1 FAD301      0.0000 
     52 O2P        56.6910   -2.2610   28.5820 O.co2     1 FAD301      0.0000 
     53 O3P        56.2550    0.3550   28.6200 O.3       1 FAD301      0.0000 
@<TRIPOS>BOND
     1   16   22 ar   
     2   17   18 1    
     3   17   19 ar   
     4   19   20 ar   
     5   20   21 ar   
     6   21   22 ar   
     7   23   24 1    
     8   23   40 2    
     9   24   25 2    
    10   24   26 am   
    11   26   27 am   
    12   27   28 2    
    13   27   29 1    
    14   29   30 2    
    15   29   40 1    
    16   30   31 1    
    17   31   32 ar   
    18   31   38 ar   
    19   32   33 ar   
    20   33   34 1    
    21   33   35 ar   
    22   35   36 1    
    23   35   37 ar   
    24   37   38 ar   
    25   38   39 1    
    26   39   40 1    
    27   39   41 1    
    28   41   42 1    
    29   42   43 1    
    30   42   44 1    
    31   44   45 1    
    32   44   46 1    
    33   46   47 1    
    34   46   48 1    
    35   48   49 1    
    36   49   50 1    
    37   50   51 ar   
    38   50   52 ar   
    39   50   53 1    
    40    1    2 ar   
    41    1    3 ar   
    42    1    4 1    
    43    1   53 1    
    44    4    5 1    
    45    5    6 1    
    46    6    7 1    
    47    6    8 1    
    48    7   12 1    
    49    8    9 1    
    50    8   10 1    
    51   10   11 1    
    52   10   12 1    
    53   12   13 1    
    54   13   14 1    
    55   13   22 1    
    56   14   15 2    
    57   15   16 1    
    58   16   17 ar   
@<TRIPOS>SUBSTRUCTURE
     1 FAD301      1 GROUP   
@<TRIPOS>SET
ATOM$ORANGE STATIC     ATOMS   COLORGROUP SYSTEM 
54 5 5 6 6 8 8 10 10 12 12 14 14 16 16 17 17 20 \
20 22 22 24 24 27 27 29 29 31 31 32 32 33 33 34 34 35 \
35 36 36 37 37 38 38 40 40 41 41 42 42 44 44 46 46 48 \
48 

