#    Name: 6j61_3_FAD
#    Modification time : Fri May 22 19:31:21 2020

@<TRIPOS>MOLECULE
6j61_3_FAD
   53    58     1     0     1
SMALL
NO_CHARGES


@<TRIPOS>ATOM
      1 PA         48.1800   -6.9010   33.6290 P.3       1 FAD301      0.0000 
      2 O1A        46.8570   -6.6740   34.2670 O.co2     1 FAD301      0.0000 
      3 O2A        47.9470   -7.6210   32.2030 O.co2     1 FAD301      0.0000 
      4 O5B        48.8960   -5.4800   33.4170 O.3       1 FAD301      0.0000 
      5 C5B        50.2060   -5.6710   32.8790 C.3       1 FAD301      0.0000 
      6 C4B        50.9720   -4.3520   33.0200 C.3       1 FAD301      0.0000 
      7 O4B        50.3800   -3.3520   32.1620 O.3       1 FAD301      0.0000 
      8 C3B        50.8860   -3.7990   34.4440 C.3       1 FAD301      0.0000 
      9 O3B        51.8950   -4.3330   35.3090 O.3       1 FAD301      0.0000 
     10 C2B        51.0110   -2.2950   34.2190 C.3       1 FAD301      0.0000 
     11 O2B        52.3890   -1.9200   34.1360 O.3       1 FAD301      0.0000 
     12 C1B        50.2550   -2.0780   32.8900 C.3       1 FAD301      0.0000 
     13 N9A        48.8220   -1.7150   33.1140 N.pl3     1 FAD301      0.0000 
     14 C8A        47.7180   -2.4480   32.7500 C.2       1 FAD301      0.0000 
     15 N7A        46.6200   -1.8330   33.0930 N.2       1 FAD301      0.0000 
     16 C5A        46.9290   -0.6630   33.6990 C.ar      1 FAD301      0.0000 
     17 C6A        46.1790    0.4160   34.2750 C.ar      1 FAD301      0.0000 
     18 N6A        44.7940    0.3880   34.2860 N.pl3     1 FAD301      0.0000 
     19 N1A        46.8490    1.4690   34.8100 N.ar      1 FAD301      0.0000 
     20 C2A        48.1870    1.5190   34.8110 C.ar      1 FAD301      0.0000 
     21 N3A        48.9260    0.5310   34.2840 N.ar      1 FAD301      0.0000 
     22 C4A        48.3510   -0.5650   33.7240 C.ar      1 FAD301      0.0000 
     23 N1         45.4590   -8.5860   43.7360 N.2       1 FAD301      0.0000 
     24 C2         44.5260   -8.1180   44.5840 C.2       1 FAD301      0.0000 
     25 O2         43.6000   -7.4680   44.1230 O.2       1 FAD301      0.0000 
     26 N3         44.5650   -8.3320   45.9280 N.am      1 FAD301      0.0000 
     27 C4         45.5790   -9.0570   46.5250 C.2       1 FAD301      0.0000 
     28 O4         45.5990   -9.2370   47.7300 O.2       1 FAD301      0.0000 
     29 C4X        46.6490   -9.6080   45.6320 C.2       1 FAD301      0.0000 
     30 N5         47.6760  -10.3220   46.0900 N.2       1 FAD301      0.0000 
     31 C5X        48.6450  -10.8090   45.2600 C.ar      1 FAD301      0.0000 
     32 C6         49.7360  -11.5720   45.8050 C.ar      1 FAD301      0.0000 
     33 C7         50.7310  -12.0720   44.9720 C.ar      1 FAD301      0.0000 
     34 C7M        51.8600  -12.8680   45.5920 C.3       1 FAD301      0.0000 
     35 C8         50.6860  -11.8370   43.5520 C.ar      1 FAD301      0.0000 
     36 C8M        51.7680  -12.3750   42.6270 C.3       1 FAD301      0.0000 
     37 C9         49.6310  -11.0990   42.9900 C.ar      1 FAD301      0.0000 
     38 C9A        48.5870  -10.5650   43.8170 C.ar      1 FAD301      0.0000 
     39 N10        47.4950   -9.8020   43.2760 N.pl3     1 FAD301      0.0000 
     40 C10        46.5180   -9.3140   44.1580 C.2       1 FAD301      0.0000 
     41 C1'        47.3580   -9.5170   41.8190 C.3       1 FAD301      0.0000 
     42 C2'        48.3970   -8.5000   41.2790 C.3       1 FAD301      0.0000 
     43 O2'        48.4510   -7.3360   42.1010 O.3       1 FAD301      0.0000 
     44 C3'        48.0500   -8.1060   39.8290 C.3       1 FAD301      0.0000 
     45 O3'        46.7200   -7.5720   39.7840 O.3       1 FAD301      0.0000 
     46 C4'        48.1550   -9.3350   38.8720 C.3       1 FAD301      0.0000 
     47 O4'        49.3320  -10.1140   39.1490 O.3       1 FAD301      0.0000 
     48 C5'        48.1960   -8.8680   37.4120 C.3       1 FAD301      0.0000 
     49 O5'        49.5400   -8.5140   37.0720 O.3       1 FAD301      0.0000 
     50 P          49.5150   -7.2860   36.0130 P.3       1 FAD301      0.0000 
     51 O1P        48.5610   -6.2270   36.4730 O.co2     1 FAD301      0.0000 
     52 O2P        51.0010   -6.6840   35.9200 O.co2     1 FAD301      0.0000 
     53 O3P        49.0970   -7.9060   34.5450 O.3       1 FAD301      0.0000 
@<TRIPOS>BOND
     1    1    2 ar   
     2    1    3 ar   
     3    1    4 1    
     4    1   53 1    
     5    4    5 1    
     6    5    6 1    
     7    6    7 1    
     8    6    8 1    
     9    7   12 1    
    10    8    9 1    
    11    8   10 1    
    12   10   11 1    
    13   10   12 1    
    14   12   13 1    
    15   13   14 1    
    16   13   22 1    
    17   14   15 2    
    18   15   16 1    
    19   16   17 ar   
    20   16   22 ar   
    21   17   18 1    
    22   17   19 ar   
    23   19   20 ar   
    24   20   21 ar   
    25   21   22 ar   
    26   23   24 1    
    27   23   40 2    
    28   24   25 2    
    29   24   26 am   
    30   26   27 am   
    31   27   28 2    
    32   27   29 1    
    33   29   30 2    
    34   29   40 1    
    35   30   31 1    
    36   31   32 ar   
    37   31   38 ar   
    38   32   33 ar   
    39   33   34 1    
    40   33   35 ar   
    41   35   36 1    
    42   35   37 ar   
    43   37   38 ar   
    44   38   39 1    
    45   39   40 1    
    46   39   41 1    
    47   41   42 1    
    48   42   43 1    
    49   42   44 1    
    50   44   45 1    
    51   44   46 1    
    52   46   47 1    
    53   46   48 1    
    54   48   49 1    
    55   49   50 1    
    56   50   51 ar   
    57   50   52 ar   
    58   50   53 1    
@<TRIPOS>SUBSTRUCTURE
     1 FAD301      1 GROUP   
@<TRIPOS>SET
ATOM$ORANGE STATIC     ATOMS   COLORGROUP SYSTEM 
54 5 5 6 6 8 8 10 10 12 12 14 14 16 16 17 17 20 \
20 22 22 24 24 27 27 29 29 31 31 32 32 33 33 34 34 35 \
35 36 36 37 37 38 38 40 40 41 41 42 42 44 44 46 46 48 \
48 

