#    Name: 6jit_1_NAP
#    Modification time : Fri May 22 19:25:47 2020

@<TRIPOS>MOLECULE
6jit_1_NAP
   48    52     1     0     1
SMALL
NO_CHARGES


@<TRIPOS>ATOM
      1 PA         34.1450  -18.0520   -6.2580 P.3       1 NAP301      0.0000 
      2 O1A        33.9670  -18.0710   -4.8050 O.co2     1 NAP301      0.0000 
      3 O2A        33.7100  -19.2200   -7.1100 O.co2     1 NAP301      0.0000 
      4 O5B        35.8090  -17.7740   -6.5700 O.3       1 NAP301      0.0000 
      5 C5B        36.2740  -16.4830   -6.4270 C.3       1 NAP301      0.0000 
      6 C4B        37.8110  -16.3480   -6.4630 C.3       1 NAP301      0.0000 
      7 O4B        38.3740  -17.1720   -5.4540 O.3       1 NAP301      0.0000 
      8 C3B        38.3880  -16.9410   -7.8030 C.3       1 NAP301      0.0000 
      9 O3B        39.2570  -16.0190   -8.3760 O.3       1 NAP301      0.0000 
     10 C2B        39.1500  -18.2680   -7.3900 C.3       1 NAP301      0.0000 
     11 O2B        40.2400  -18.5570   -8.0720 O.3       1 NAP301      0.0000 
     12 C1B        39.5470  -17.7630   -5.9720 C.3       1 NAP301      0.0000 
     13 N9A        40.0320  -18.8630   -5.1020 N.pl3     1 NAP301      0.0000 
     14 C8A        39.3360  -19.9160   -4.4570 C.2       1 NAP301      0.0000 
     15 N7A        40.1040  -20.7340   -3.7310 N.2       1 NAP301      0.0000 
     16 C5A        41.4030  -20.2230   -3.8700 C.ar      1 NAP301      0.0000 
     17 C6A        42.6810  -20.6040   -3.3620 C.ar      1 NAP301      0.0000 
     18 N6A        42.8600  -21.7050   -2.5300 N.pl3     1 NAP301      0.0000 
     19 N1A        43.7930  -19.8760   -3.6930 N.ar      1 NAP301      0.0000 
     20 C2A        43.5940  -18.7930   -4.5170 C.ar      1 NAP301      0.0000 
     21 N3A        42.4660  -18.3180   -5.0620 N.ar      1 NAP301      0.0000 
     22 C4A        41.3670  -19.0630   -4.7190 C.ar      1 NAP301      0.0000 
     23 O3         33.1900  -16.7600   -6.8190 O.3       1 NAP301      0.0000 
     24 PN         32.1850  -15.6120   -6.4680 P.3       1 NAP301      0.0000 
     25 O1N        30.7370  -15.9220   -6.3900 O.co2     1 NAP301      0.0000 
     26 O2N        32.5680  -14.3020   -7.0840 O.co2     1 NAP301      0.0000 
     27 O5D        32.5020  -15.3400   -4.7200 O.3       1 NAP301      0.0000 
     28 C5D        33.4370  -14.5620   -4.1680 C.3       1 NAP301      0.0000 
     29 C4D        33.0060  -14.2500   -2.6920 C.3       1 NAP301      0.0000 
     30 O4D        31.7930  -13.4580   -2.6900 O.3       1 NAP301      0.0000 
     31 C3D        32.6850  -15.5600   -1.9370 C.3       1 NAP301      0.0000 
     32 O3D        33.1200  -15.4610   -0.6340 O.3       1 NAP301      0.0000 
     33 C2D        31.1260  -15.5430   -1.9320 C.3       1 NAP301      0.0000 
     34 O2D        30.7520  -16.0940   -0.7070 O.3       1 NAP301      0.0000 
     35 C1D        30.8630  -14.0090   -1.9090 C.3       1 NAP301      0.0000 
     36 N1N        29.4320  -13.6120   -2.5560 N.pl3     1 NAP301      0.0000 
     37 C2N        29.0530  -14.1340   -3.7690 C.ar      1 NAP301      0.0000 
     38 C3N        27.8260  -13.8170   -4.3770 C.ar      1 NAP301      0.0000 
     39 C7N        27.4250  -14.4070   -5.7380 C.2       1 NAP301      0.0000 
     40 O7N        26.3600  -14.2060   -6.2300 O.2       1 NAP301      0.0000 
     41 N7N        28.3750  -15.2050   -6.4170 N.am      1 NAP301      0.0000 
     42 C4N        26.9940  -12.9330   -3.6880 C.ar      1 NAP301      0.0000 
     43 C5N        27.3760  -12.4030   -2.4610 C.ar      1 NAP301      0.0000 
     44 C6N        28.6040  -12.7460   -1.8930 C.ar      1 NAP301      0.0000 
     45 P2B        40.1940  -19.1740   -9.7860 P.3       1 NAP301      0.0000 
     46 O1X        41.6390  -19.4590  -10.1130 O.co2     1 NAP301      0.0000 
     47 O2X        39.5760  -18.0080  -10.5130 O.co2     1 NAP301      0.0000 
     48 O3X        39.2890  -20.3550   -9.5570 O.co2     1 NAP301      0.0000 
@<TRIPOS>BOND
     1    1    2 ar   
     2    1    3 ar   
     3    1    4 1    
     4    1   23 1    
     5    4    5 1    
     6    5    6 1    
     7    6    7 1    
     8    6    8 1    
     9    7   12 1    
    10    8    9 1    
    11    8   10 1    
    12   10   11 1    
    13   10   12 1    
    14   11   45 1    
    15   12   13 1    
    16   13   14 1    
    17   13   22 1    
    18   14   15 2    
    19   15   16 1    
    20   16   17 ar   
    21   16   22 ar   
    22   17   18 1    
    23   17   19 ar   
    24   19   20 ar   
    25   20   21 ar   
    26   21   22 ar   
    27   23   24 1    
    28   24   25 ar   
    29   24   26 ar   
    30   24   27 1    
    31   27   28 1    
    32   28   29 1    
    33   29   30 1    
    34   29   31 1    
    35   30   35 1    
    36   31   32 1    
    37   31   33 1    
    38   33   34 1    
    39   33   35 1    
    40   35   36 1    
    41   36   37 ar   
    42   36   44 ar   
    43   37   38 ar   
    44   38   39 1    
    45   38   42 ar   
    46   39   40 2    
    47   39   41 am   
    48   42   43 ar   
    49   43   44 ar   
    50   45   46 ar   
    51   45   47 ar   
    52   45   48 ar   
@<TRIPOS>SUBSTRUCTURE
     1 NAP301      1 GROUP   
@<TRIPOS>SET
ATOM$ORANGE STATIC     ATOMS   COLORGROUP SYSTEM 
42 5 5 6 6 8 8 10 10 12 12 14 14 16 16 17 17 20 \
20 22 22 28 28 29 29 31 31 33 33 35 35 37 37 38 38 39 \
39 42 42 43 43 44 44 

