#    Name: 6ps3_2_CLR
#    Modification time : Fri May 22 19:34:44 2020

@<TRIPOS>MOLECULE
6ps3_2_CLR
   28    31     1     0     0
SMALL
NO_CHARGES


@<TRIPOS>ATOM
      1 C1        -12.2970    9.2950   30.7440 C.3       1 CLR1206     0.0000 
      2 C2        -12.3240    9.1270   29.2170 C.3       1 CLR1206     0.0000 
      3 C3        -10.9370    9.2910   28.5950 C.3       1 CLR1206     0.0000 
      4 C4         -9.9380    8.2970   29.2010 C.3       1 CLR1206     0.0000 
      5 C5         -9.9910    8.2540   30.7270 C.2       1 CLR1206     0.0000 
      6 C6         -8.8080    8.0640   31.3600 C.2       1 CLR1206     0.0000 
      7 C7         -8.5500    8.5190   32.7860 C.3       1 CLR1206     0.0000 
      8 C8         -9.8180    8.3800   33.6440 C.3       1 CLR1206     0.0000 
      9 C9        -11.0000    9.0510   32.8940 C.3       1 CLR1206     0.0000 
     10 C10       -11.3090    8.3890   31.5170 C.3       1 CLR1206     0.0000 
     11 C11       -12.2520    9.1880   33.8060 C.3       1 CLR1206     0.0000 
     12 C12       -11.9890    9.6720   35.2510 C.3       1 CLR1206     0.0000 
     13 C13       -10.8930    8.8830   35.9890 C.3       1 CLR1206     0.0000 
     14 C14        -9.6680    8.9640   35.0640 C.3       1 CLR1206     0.0000 
     15 C15        -8.5130    8.4820   35.9310 C.3       1 CLR1206     0.0000 
     16 C16        -8.8630    9.0880   37.2920 C.3       1 CLR1206     0.0000 
     17 C17       -10.3120    9.6110   37.2360 C.3       1 CLR1206     0.0000 
     18 C18       -11.3570    7.4310   36.2760 C.3       1 CLR1206     0.0000 
     19 C19       -11.9210    6.9800   31.6590 C.3       1 CLR1206     0.0000 
     20 C20       -11.0030    9.5490   38.6310 C.3       1 CLR1206     0.0000 
     21 C21       -12.5180    9.7650   38.6540 C.3       1 CLR1206     0.0000 
     22 C22       -10.4000   10.6010   39.5730 C.3       1 CLR1206     0.0000 
     23 C23        -9.8660   10.0270   40.8890 C.3       1 CLR1206     0.0000 
     24 C24       -10.0160   11.0300   42.0320 C.3       1 CLR1206     0.0000 
     25 C25       -10.2050   10.3380   43.3800 C.3       1 CLR1206     0.0000 
     26 C26        -9.2830   10.9420   44.4300 C.3       1 CLR1206     0.0000 
     27 C27       -11.6500   10.4100   43.8550 C.3       1 CLR1206     0.0000 
     28 O1        -11.0420    9.0750   27.1840 O.3       1 CLR1206     0.0000 
@<TRIPOS>BOND
     1    1    2 1    
     2    1   10 1    
     3    2    3 1    
     4    3    4 1    
     5    3   28 1    
     6    4    5 1    
     7    5    6 2    
     8    5   10 1    
     9    6    7 1    
    10    7    8 1    
    11    8    9 1    
    12    8   14 1    
    13    9   10 1    
    14    9   11 1    
    15   10   19 1    
    16   11   12 1    
    17   12   13 1    
    18   13   14 1    
    19   13   17 1    
    20   13   18 1    
    21   14   15 1    
    22   15   16 1    
    23   16   17 1    
    24   17   20 1    
    25   20   21 1    
    26   20   22 1    
    27   22   23 1    
    28   23   24 1    
    29   24   25 1    
    30   25   26 1    
    31   25   27 1    
@<TRIPOS>SUBSTRUCTURE
     1 CLR1206     1 GROUP   
@<TRIPOS>SET

