#    Name: 6ps3_1_CVD
#    Modification time : Fri May 22 19:34:38 2020

@<TRIPOS>MOLECULE
6ps3_1_CVD
   30    33     1     0     0
SMALL
NO_CHARGES


@<TRIPOS>ATOM
      1 O1          3.5290    6.4830   49.8080 O.3       1 CVD1201     0.0000 
      2 C1          3.1150    5.3680   50.5460 C.3       1 CVD1201     0.0000 
      3 C2          2.3410    4.4200   49.6360 C.3       1 CVD1201     0.0000 
      4 O2          2.5230    3.1050   50.0980 O.3       1 CVD1201     0.0000 
      5 C3          1.6910    2.0890   49.5840 C.ar      1 CVD1201     0.0000 
      6 C14         1.2000    2.1180   48.3440 C.ar      1 CVD1201     0.0000 
      7 C13         0.3330    0.9570   47.8190 C.ar      1 CVD1201     0.0000 
      8 C12         0.0720   -0.0890   48.5960 C.ar      1 CVD1201     0.0000 
      9 C6          0.6500   -0.1410   50.0080 C.ar      1 CVD1201     0.0000 
     10 C4          1.4110    0.8630   50.4600 C.ar      1 CVD1201     0.0000 
     11 C5          1.8160    0.4790   51.9470 C.ar      1 CVD1201     0.0000 
     12 C8          2.6510    1.1800   53.0220 C.ar      1 CVD1201     0.0000 
     13 C11         2.7850    0.6110   54.2160 C.ar      1 CVD1201     0.0000 
     14 C10         2.1540   -0.7640   54.4930 C.ar      1 CVD1201     0.0000 
     15 C9          1.4070   -1.3560   53.5730 C.ar      1 CVD1201     0.0000 
     16 C7          1.2480   -0.7110   52.1980 C.ar      1 CVD1201     0.0000 
     17 N1          0.5540   -1.0710   51.0410 N.pl3     1 CVD1201     0.0000 
     18 C15         2.2180    5.7840   51.7200 C.3       1 CVD1201     0.0000 
     19 N2          2.8760    6.8100   52.5010 N.4       1 CVD1201     0.0000 
     20 C16         2.1150    7.1460   53.6870 C.3       1 CVD1201     0.0000 
     21 C17         2.5410    8.5350   54.1800 C.3       1 CVD1201     0.0000 
     22 O3          3.9430    8.6140   54.2210 O.3       1 CVD1201     0.0000 
     23 C18         4.5180    9.8270   54.6420 C.ar      1 CVD1201     0.0000 
     24 C23         5.0620   10.6370   53.7350 C.ar      1 CVD1201     0.0000 
     25 C22         5.7240   11.9540   54.1650 C.ar      1 CVD1201     0.0000 
     26 C21         5.7740   12.2710   55.4510 C.ar      1 CVD1201     0.0000 
     27 C20         5.1620   11.3350   56.5060 C.ar      1 CVD1201     0.0000 
     28 C19         4.6050   10.1800   56.1490 C.ar      1 CVD1201     0.0000 
     29 O4          4.0240    9.3520   57.1420 O.3       1 CVD1201     0.0000 
     30 C24         4.6870    8.1530   57.4700 C.3       1 CVD1201     0.0000 
@<TRIPOS>BOND
     1    1    2 1    
     2    2    3 1    
     3    2   18 1    
     4    3    4 1    
     5    4    5 1    
     6    5    6 ar   
     7    5   10 ar   
     8    6    7 ar   
     9    7    8 ar   
    10    8    9 ar   
    11    9   10 ar   
    12    9   17 1    
    13   10   11 1    
    14   11   12 ar   
    15   11   16 ar   
    16   12   13 ar   
    17   13   14 ar   
    18   14   15 ar   
    19   15   16 ar   
    20   16   17 1    
    21   18   19 1    
    22   19   20 1    
    23   20   21 1    
    24   21   22 1    
    25   22   23 1    
    26   23   24 ar   
    27   23   28 ar   
    28   24   25 ar   
    29   25   26 ar   
    30   26   27 ar   
    31   27   28 ar   
    32   28   29 1    
    33   29   30 1    
@<TRIPOS>SUBSTRUCTURE
     1 CVD1201     1 GROUP   
@<TRIPOS>SET

