#    Name: 6ps3_2_CLR_CAVITY_N1_4
#    Modification time : Fri May 22 19:34:45 2020

@<TRIPOS>MOLECULE
6ps3_2_CLR_CAVITY_N1_4
   58     0     6     0     0
SMALL
NO_CHARGES


@<TRIPOS>ATOM
      1 OG         -8.1000   11.0900   27.5300 O.3       1 SER1        0.0000 
      2 OG         -8.5600    9.7200   27.9300 O.3       1 SER1        0.0000 
      3 OG         -7.7300   11.3800   28.9600 O.3       1 SER1        0.0000 
      4 OG         -9.1100   11.9200   29.2000 O.3       1 SER1        0.0000 
      5 OG         -9.5700   10.5500   29.6000 O.3       1 SER1        0.0000 
      6 OG         -8.6500    8.6400   29.7500 O.3       1 SER1        0.0000 
      7 OG        -10.0300    9.1700   30.0000 O.3       1 SER1        0.0000 
      8 OG         -9.2000   10.8400   31.0200 O.3       1 SER1        0.0000 
      9 OG         -8.2800    8.9300   31.1800 O.3       1 SER1        0.0000 
     10 OG         -9.6600    9.4600   31.4200 O.3       1 SER1        0.0000 
     11 OG         -7.9100    9.2200   32.6000 O.3       1 SER1        0.0000 
     12 N          -7.4500   10.5900   32.2000 N.am      2 ALA2        0.0000 
     13 N          -8.8300   11.1300   32.4500 N.am      2 ALA2        0.0000 
     14 N          -9.2900    9.7500   32.8500 N.am      2 ALA2        0.0000 
     15 N          -8.9300   10.0400   34.2700 N.am      2 ALA2        0.0000 
     16 O          -9.4800    7.5900   36.4900 O.2       2 ALA2        0.0000 
     17 OD1       -12.0500   10.2100   25.5700 O.co2     3 ASP3        0.0000 
     18 OD1       -11.6800   10.5000   27.0000 O.co2     3 ASP3        0.0000 
     19 OD1       -10.7600    8.5900   27.1500 O.co2     3 ASP3        0.0000 
     20 OD1       -11.7700    9.4200   28.8200 O.co2     3 ASP3        0.0000 
     21 CZ        -10.2100   11.0500   24.9300 C.ar      4 PHE5        0.0000 
     22 CZ         -8.4600   10.8000   26.1100 C.ar      4 PHE5        0.0000 
     23 CZ         -9.8400   11.3400   26.3500 C.ar      4 PHE5        0.0000 
     24 CZ        -10.3000    9.9700   26.7500 C.ar      4 PHE5        0.0000 
     25 CZ         -9.0200    8.3500   28.3200 C.ar      4 PHE5        0.0000 
     26 CA         -9.4700    6.9800   28.7200 C.3       5 GLY6        0.0000 
     27 CA        -10.8500    7.5100   28.9700 C.3       5 GLY6        0.0000 
     28 CA        -12.2300    8.0500   29.2200 C.3       5 GLY6        0.0000 
     29 CA         -9.1100    7.2700   30.1500 C.3       5 GLY6        0.0000 
     30 CA        -10.9500    6.4300   30.7900 C.3       5 GLY6        0.0000 
     31 CA        -12.3300    6.9700   31.0400 C.3       5 GLY6        0.0000 
     32 CA         -8.7400    7.5600   31.5700 C.3       5 GLY6        0.0000 
     33 CA        -10.1200    8.0900   31.8200 C.3       5 GLY6        0.0000 
     34 CA        -10.5800    6.7200   32.2200 C.3       5 GLY6        0.0000 
     35 CA        -11.9600    7.2600   32.4600 C.3       5 GLY6        0.0000 
     36 CA         -7.0000   11.9600   31.8100 C.3       5 GLY6        0.0000 
     37 CA         -8.3700    7.8500   33.0000 C.3       5 GLY6        0.0000 
     38 CA         -9.7500    8.3800   33.2400 C.3       5 GLY6        0.0000 
     39 CA        -10.2100    7.0100   33.6400 C.3       5 GLY6        0.0000 
     40 CA        -11.5900    7.5500   33.8900 C.3       5 GLY6        0.0000 
     41 CA         -8.0100    8.1400   34.4200 C.3       5 GLY6        0.0000 
     42 CA         -8.4700    6.7700   34.8200 C.3       5 GLY6        0.0000 
     43 CA         -9.8500    7.3000   35.0700 C.3       5 GLY6        0.0000 
     44 CA        -11.2300    7.8400   35.3100 C.3       5 GLY6        0.0000 
     45 CA         -7.6400    8.4300   35.8500 C.3       5 GLY6        0.0000 
     46 CA         -9.0200    8.9600   36.1000 C.3       5 GLY6        0.0000 
     47 DU        -11.2200   11.8700   26.6000 H         6 CUB7        0.0000 
     48 DU         -9.4800   11.6300   27.7800 H         6 CUB7        0.0000 
     49 DU         -9.9300   10.2600   28.1700 H         6 CUB7        0.0000 
     50 DU        -11.3100   10.7900   28.4200 H         6 CUB7        0.0000 
     51 DU        -10.3900    8.8800   28.5700 H         6 CUB7        0.0000 
     52 DU        -10.4900    7.8000   30.3900 H         6 CUB7        0.0000 
     53 DU        -11.8700    8.3400   30.6400 H         6 CUB7        0.0000 
     54 DU        -11.5000    8.6300   32.0700 H         6 CUB7        0.0000 
     55 DU        -10.6700   10.2900   33.0900 H         6 CUB7        0.0000 
     56 DU        -11.1300    8.9200   33.4900 H         6 CUB7        0.0000 
     57 DU         -9.3900    8.6700   34.6700 H         6 CUB7        0.0000 
     58 DU        -10.7700    9.2100   34.9200 H         6 CUB7        0.0000 
@<TRIPOS>BOND
@<TRIPOS>SUBSTRUCTURE
     1 SER1        1 GROUP   
     2 ALA2       12 GROUP   
     3 ASP3       17 GROUP   
     4 PHE5       21 GROUP   
     5 GLY6       26 GROUP   
     6 CUB7       47 GROUP   
@<TRIPOS>SET

