#    Name: 6uom_1_8GT_CAVITY_N1_4
#    Modification time : Fri May 22 19:27:32 2020

@<TRIPOS>MOLECULE
6uom_1_8GT_CAVITY_N1_4
   63     0     7     0     0
SMALL
NO_CHARGES


@<TRIPOS>ATOM
      1 OG          4.2000    0.4100   15.0200 O.3       1 SER1        0.0000 
      2 O           5.0900    4.8600   10.0800 O.2       2 ALA2        0.0000 
      3 N           4.7400    6.1000    9.3200 N.am      2 ALA2        0.0000 
      4 N           3.9500    5.1200   11.0200 N.am      2 ALA2        0.0000 
      5 N           3.6000    6.3600   10.2600 N.am      2 ALA2        0.0000 
      6 N           2.8100    5.3800   11.9700 N.am      2 ALA2        0.0000 
      7 O           6.4500    7.8800    8.4900 O.2       2 ALA2        0.0000 
      8 N           5.6600    6.9000   10.2000 N.am      2 ALA2        0.0000 
      9 N           5.3100    8.1400    9.4400 N.am      2 ALA2        0.0000 
     10 N           4.9600    9.3800    8.6700 N.am      2 ALA2        0.0000 
     11 N           4.1700    8.4000   10.3800 N.am      2 ALA2        0.0000 
     12 N           3.3800    7.4200   12.0800 N.am      2 ALA2        0.0000 
     13 N           7.3600    8.6800    9.3800 N.am      2 ALA2        0.0000 
     14 OD1         5.3400    0.1500   14.0800 O.co2     3 ASP3        0.0000 
     15 OD1         4.9900    1.3900   13.3200 O.co2     3 ASP3        0.0000 
     16 OD1         4.3000    3.8800   11.7900 O.co2     3 ASP3        0.0000 
     17 OD1         3.8600    1.6500   14.2600 O.co2     3 ASP3        0.0000 
     18 OD1         3.5100    2.8900   13.5000 O.co2     3 ASP3        0.0000 
     19 OD1         5.1200    1.2100   15.9100 O.co2     3 ASP3        0.0000 
     20 OD1         4.7700    2.4500   15.1400 O.co2     3 ASP3        0.0000 
     21 OD1         4.4200    3.6900   14.3800 O.co2     3 ASP3        0.0000 
     22 OD1         4.0700    4.9400   13.6100 O.co2     3 ASP3        0.0000 
     23 OD1         5.6800    3.2500   16.0200 O.co2     3 ASP3        0.0000 
     24 OD1         5.3400    4.4900   15.2600 O.co2     3 ASP3        0.0000 
     25 OD1         4.9900    5.7300   14.5000 O.co2     3 ASP3        0.0000 
     26 OD1         3.1600    8.4800   13.9100 O.co2     3 ASP3        0.0000 
     27 OD1         4.0700    9.2800   14.7900 O.co2     3 ASP3        0.0000 
     28 NZ          3.7300    6.1800   12.8500 N.4       4 LYS4        0.0000 
     29 NZ          3.7200   10.5200   14.0300 N.4       4 LYS4        0.0000 
     30 CZ          3.8200    9.6500    9.6100 C.ar      5 PHE5        0.0000 
     31 CZ          7.0100    9.9200    8.6100 C.ar      5 PHE5        0.0000 
     32 CZ          4.7400   10.4400   10.4900 C.ar      5 PHE5        0.0000 
     33 CZ          3.9500    9.4600   12.2000 C.ar      5 PHE5        0.0000 
     34 CZ          3.6000   10.7000   11.4400 C.ar      5 PHE5        0.0000 
     35 CA          3.1600    4.1400   12.7300 C.3       6 GLY6        0.0000 
     36 CA          6.7900    6.6400    9.2600 C.3       6 GLY6        0.0000 
     37 CA          6.3500    4.4100   11.7300 C.3       6 GLY6        0.0000 
     38 CA          6.0000    5.6600   10.9700 C.3       6 GLY6        0.0000 
     39 CA          3.0300    8.6600   11.3200 C.3       6 GLY6        0.0000 
     40 CA          2.2400    7.6800   13.0300 C.3       6 GLY6        0.0000 
     41 CA          1.8900    8.9300   12.2600 C.3       6 GLY6        0.0000 
     42 CA          0.7600    9.1900   13.2000 C.3       6 GLY6        0.0000 
     43 CA          7.7100    7.4400   10.1400 C.3       6 GLY6        0.0000 
     44 CA          6.5700    7.7000   11.0800 C.3       6 GLY6        0.0000 
     45 CA          6.2200    8.9400   10.3200 C.3       6 GLY6        0.0000 
     46 CA          6.1300    5.4700   13.5500 C.3       6 GLY6        0.0000 
     47 CA          5.7800    6.7100   12.7900 C.3       6 GLY6        0.0000 
     48 CA          5.4300    7.9600   12.0200 C.3       6 GLY6        0.0000 
     49 CA          5.0800    9.2000   11.2600 C.3       6 GLY6        0.0000 
     50 CA          4.6400    6.9800   13.7300 C.3       6 GLY6        0.0000 
     51 CA          4.2900    8.2200   12.9700 C.3       6 GLY6        0.0000 
     52 CA          5.6500   11.2400   11.3800 C.3       6 GLY6        0.0000 
     53 CA          4.8600   10.2600   13.0800 C.3       6 GLY6        0.0000 
     54 DU          5.6900   -1.1000   14.8500 H         7 CUB7        0.0000 
     55 DU          5.9100    2.1900   14.2000 H         7 CUB7        0.0000 
     56 DU          5.5600    3.4300   13.4400 H         7 CUB7        0.0000 
     57 DU          5.2100    4.6700   12.6700 H         7 CUB7        0.0000 
     58 DU          4.8700    5.9200   11.9100 H         7 CUB7        0.0000 
     59 DU          4.5200    7.1600   11.1400 H         7 CUB7        0.0000 
     60 DU          5.8700   10.1800    9.5500 H         7 CUB7        0.0000 
     61 DU          6.8200    2.9900   15.0800 H         7 CUB7        0.0000 
     62 DU          2.8100    9.7200   13.1400 H         7 CUB7        0.0000 
     63 DU          4.5100   11.5000   12.3200 H         7 CUB7        0.0000 
@<TRIPOS>BOND
@<TRIPOS>SUBSTRUCTURE
     1 SER1        1 GROUP   
     2 ALA2        2 GROUP   
     3 ASP3       14 GROUP   
     4 LYS4       28 GROUP   
     5 PHE5       30 GROUP   
     6 GLY6       35 GROUP   
     7 CUB7       54 GROUP   
@<TRIPOS>SET

