#    Name: 6uom_1_8GT
#    Modification time : Fri May 22 19:27:31 2020

@<TRIPOS>MOLECULE
6uom_1_8GT
   45    47     1     0     0
SMALL
NO_CHARGES


@<TRIPOS>ATOM
      1 PG          4.1050    0.8500   16.4390 P.3       1 8GT407      0.0000 
      2 O1G         3.4380    2.0410   17.0610 O.co2     1 8GT407      0.0000 
      3 O2G         5.3830    0.5080   17.2280 O.co2     1 8GT407      0.0000 
      4 O3G         3.1450   -0.3530   16.4730 O.co2     1 8GT407      0.0000 
      5 O3B         4.4880    1.1870   14.9230 O.3       1 8GT407      0.0000 
      6 PB          3.8660    2.2480   13.8260 P.3       1 8GT407      0.0000 
      7 O1B         2.4680    2.6400   14.2430 O.co2     1 8GT407      0.0000 
      8 O2B         3.8200    1.5800   12.4290 O.co2     1 8GT407      0.0000 
      9 O3A         4.8160    3.5940   13.7620 O.3       1 8GT407      0.0000 
     10 PA          5.1470    4.7780   14.8580 P.3       1 8GT407      0.0000 
     11 O1A         6.5660    4.6430   15.3280 O.co2     1 8GT407      0.0000 
     12 O2A         4.1870    4.6450   16.0680 O.co2     1 8GT407      0.0000 
     13 O5'         4.9410    6.2520   14.1570 O.3       1 8GT407      0.0000 
     14 C5'         3.6570    6.5290   13.5760 C.3       1 8GT407      0.0000 
     15 C4'         3.8060    6.6630   12.0390 C.3       1 8GT407      0.0000 
     16 O4'         4.8230    7.6350   11.6830 O.3       1 8GT407      0.0000 
     17 C3'         4.4400    5.4290   11.3840 C.3       1 8GT407      0.0000 
     18 O3'         3.4960    4.3940   11.0660 O.3       1 8GT407      0.0000 
     19 C2'         4.9810    6.0740   10.0960 C.3       1 8GT407      0.0000 
     20 O2'         3.9760    6.0600    9.0880 O.3       1 8GT407      0.0000 
     21 C1'         5.2610    7.3280   10.3660 C.3       1 8GT407      0.0000 
     22 N9          6.6820    7.4700   10.2310 N.am      1 8GT407      0.0000 
     23 C8          7.3880    8.2070    9.1140 C.2       1 8GT407      0.0000 
     24 N7          8.7150    8.1040    9.3140 N.am      1 8GT407      0.0000 
     25 C5          8.9570    7.3320   10.5040 C.2       1 8GT407      0.0000 
     26 C6         10.1490    6.9430   11.1390 C.2       1 8GT407      0.0000 
     27 O6         11.2490    7.2850   10.6550 O.2       1 8GT407      0.0000 
     28 N1         10.1090    6.2130   12.2500 N.am      1 8GT407      0.0000 
     29 C2          8.8880    5.8670   12.7330 C.2       1 8GT407      0.0000 
     30 N2          8.8690    5.1360   13.8460 N.pl3     1 8GT407      0.0000 
     31 N3          7.6870    6.1920   12.1950 N.2       1 8GT407      0.0000 
     32 C4          7.7190    6.9330   11.0660 C.2       1 8GT407      0.0000 
     33 O8          6.8640    8.7830    8.2190 O.2       1 8GT407      0.0000 
     34 H5'1        3.0460    5.8050   13.7800 H         1 8GT407      0.0000 
     35 H5'2        3.3100    7.3580   13.9400 H         1 8GT407      0.0000 
     36 H4'         2.9590    6.8810   11.6190 H         1 8GT407      0.0000 
     37 H3'         5.1680    5.0870   11.9270 H         1 8GT407      0.0000 
     38 H2          2.7140    4.7250   11.0270 H         1 8GT407      0.0000 
     39 H1          5.7770    5.6090    9.7940 H         1 8GT407      0.0000 
     40 H2'         3.7280    6.8570    8.9250 H         1 8GT407      0.0000 
     41 H1'         4.8080    7.9050    9.7310 H         1 8GT407      0.0000 
     42 HN7         9.3230    8.4500    8.8130 H         1 8GT407      0.0000 
     43 HN1        10.8310    5.9690   12.6480 H         1 8GT407      0.0000 
     44 HN21        8.1180    4.8940   14.1890 H         1 8GT407      0.0000 
     45 HN22        9.6080    4.9070   14.2220 H         1 8GT407      0.0000 
@<TRIPOS>BOND
     1    1    2 ar   
     2    1    3 ar   
     3    1    4 ar   
     4    1    5 1    
     5    5    6 1    
     6    6    7 ar   
     7    6    8 ar   
     8    6    9 1    
     9    9   10 1    
    10   10   11 ar   
    11   10   12 ar   
    12   10   13 1    
    13   13   14 1    
    14   14   15 1    
    15   14   34 1    
    16   14   35 1    
    17   15   16 1    
    18   15   17 1    
    19   15   36 1    
    20   16   21 1    
    21   17   18 1    
    22   17   19 1    
    23   17   37 1    
    24   18   38 1    
    25   19   20 1    
    26   19   21 1    
    27   19   39 1    
    28   20   40 1    
    29   21   41 1    
    30   21   22 1    
    31   22   23 am   
    32   22   32 1    
    33   23   24 am   
    34   23   33 2    
    35   24   25 1    
    36   25   26 1    
    37   24   42 1    
    38   25   32 2    
    39   26   27 2    
    40   26   28 am   
    41   28   29 1    
    42   29   30 1    
    43   28   43 1    
    44   29   31 2    
    45   31   32 1    
    46   30   44 1    
    47   30   45 1    
@<TRIPOS>SUBSTRUCTURE
     1 8GT407      1 GROUP   
@<TRIPOS>SET

