#    Name: 5xgv_2_FAD
#    Modification time : Fri May 22 19:14:21 2020

@<TRIPOS>MOLECULE
5xgv_2_FAD
   53    58     1     0     1
SMALL
NO_CHARGES


@<TRIPOS>ATOM
      1 PA        -31.9960   21.4810  -10.0080 P.3       1 FAD501      0.0000 
      2 O1A       -31.7210   22.6420  -10.9080 O.co2     1 FAD501      0.0000 
      3 O2A       -31.2780   21.3680   -8.6850 O.co2     1 FAD501      0.0000 
      4 O5B       -33.5570   21.4530   -9.6870 O.3       1 FAD501      0.0000 
      5 C5B       -34.1240   20.5300   -8.7610 C.3       1 FAD501      0.0000 
      6 C4B       -35.3820   21.1810   -8.2050 C.3       1 FAD501      0.0000 
      7 O4B       -36.0310   20.3190   -7.2730 O.3       1 FAD501      0.0000 
      8 C3B       -35.0640   22.4690   -7.4510 C.3       1 FAD501      0.0000 
      9 O3B       -35.8750   23.5080   -8.0000 O.3       1 FAD501      0.0000 
     10 C2B       -35.4810   22.1970   -6.0220 C.3       1 FAD501      0.0000 
     11 O2B       -36.0700   23.3580   -5.4380 O.3       1 FAD501      0.0000 
     12 C1B       -36.5130   21.1070   -6.1910 C.3       1 FAD501      0.0000 
     13 N9A       -36.6270   20.2330   -5.0080 N.pl3     1 FAD501      0.0000 
     14 C8A       -35.6290   19.5870   -4.3890 C.2       1 FAD501      0.0000 
     15 N7A       -36.1150   18.8560   -3.3560 N.2       1 FAD501      0.0000 
     16 C5A       -37.4450   19.0280   -3.3170 C.ar      1 FAD501      0.0000 
     17 C6A       -38.5640   18.5470   -2.4740 C.ar      1 FAD501      0.0000 
     18 N6A       -38.3480   17.7040   -1.4380 N.pl3     1 FAD501      0.0000 
     19 N1A       -39.8070   18.9720   -2.7910 N.ar      1 FAD501      0.0000 
     20 C2A       -40.0340   19.8030   -3.8250 C.ar      1 FAD501      0.0000 
     21 N3A       -39.0670   20.2860   -4.6270 N.ar      1 FAD501      0.0000 
     22 C4A       -37.7780   19.9340   -4.4180 C.ar      1 FAD501      0.0000 
     23 N1        -24.7630   23.5540  -15.9410 N.2       1 FAD501      0.0000 
     24 C2        -24.6450   24.0360  -17.1990 C.2       1 FAD501      0.0000 
     25 O2        -25.1520   23.4040  -18.1400 O.2       1 FAD501      0.0000 
     26 N3        -24.0100   25.1840  -17.4820 N.am      1 FAD501      0.0000 
     27 C4        -23.4340   25.9210  -16.5330 C.2       1 FAD501      0.0000 
     28 O4        -22.8500   26.9780  -16.8320 O.2       1 FAD501      0.0000 
     29 C4X       -23.5140   25.4750  -15.1310 C.2       1 FAD501      0.0000 
     30 N5        -22.9580   26.1820  -14.1250 N.2       1 FAD501      0.0000 
     31 C5X       -23.0390   25.7350  -12.8510 C.ar      1 FAD501      0.0000 
     32 C6        -22.4580   26.4570  -11.8130 C.ar      1 FAD501      0.0000 
     33 C7        -22.5510   25.9940  -10.5020 C.ar      1 FAD501      0.0000 
     34 C7M       -21.9330   26.7550   -9.3530 C.3       1 FAD501      0.0000 
     35 C8        -23.2660   24.7310  -10.2120 C.ar      1 FAD501      0.0000 
     36 C8M       -23.3640   24.2400   -8.7890 C.3       1 FAD501      0.0000 
     37 C9        -23.8520   24.0100  -11.2440 C.ar      1 FAD501      0.0000 
     38 C9A       -23.7630   24.4680  -12.5480 C.ar      1 FAD501      0.0000 
     39 N10       -24.3490   23.7240  -13.5910 N.pl3     1 FAD501      0.0000 
     40 C10       -24.2380   24.2120  -14.8930 C.2       1 FAD501      0.0000 
     41 C1'       -25.0680   22.4830  -13.3120 C.3       1 FAD501      0.0000 
     42 C2'       -26.5760   22.7660  -13.3260 C.3       1 FAD501      0.0000 
     43 O2'       -26.8990   23.8170  -12.4150 O.3       1 FAD501      0.0000 
     44 C3'       -27.3850   21.5270  -12.9600 C.3       1 FAD501      0.0000 
     45 O3'       -26.9180   20.4240  -13.7330 O.3       1 FAD501      0.0000 
     46 C4'       -28.8650   21.7010  -13.2740 C.3       1 FAD501      0.0000 
     47 O4'       -29.4120   22.7770  -12.5030 O.3       1 FAD501      0.0000 
     48 C5'       -29.6060   20.3990  -12.9760 C.3       1 FAD501      0.0000 
     49 O5'       -31.0030   20.5770  -13.1370 O.3       1 FAD501      0.0000 
     50 P         -32.0450   19.7180  -12.2770 P.3       1 FAD501      0.0000 
     51 O1P       -33.3860   20.2720  -12.6740 O.co2     1 FAD501      0.0000 
     52 O2P       -31.7340   18.2400  -12.3580 O.co2     1 FAD501      0.0000 
     53 O3P       -31.7150   20.0820  -10.7570 O.3       1 FAD501      0.0000 
@<TRIPOS>BOND
     1    1    2 ar   
     2    1    3 ar   
     3    1    4 1    
     4    1   53 1    
     5    4    5 1    
     6    5    6 1    
     7    6    7 1    
     8    6    8 1    
     9    7   12 1    
    10    8    9 1    
    11    8   10 1    
    12   10   11 1    
    13   10   12 1    
    14   12   13 1    
    15   13   14 1    
    16   13   22 1    
    17   14   15 2    
    18   15   16 1    
    19   16   17 ar   
    20   16   22 ar   
    21   17   18 1    
    22   17   19 ar   
    23   19   20 ar   
    24   20   21 ar   
    25   21   22 ar   
    26   23   24 1    
    27   23   40 2    
    28   24   25 2    
    29   24   26 am   
    30   26   27 am   
    31   27   28 2    
    32   27   29 1    
    33   29   30 2    
    34   29   40 1    
    35   30   31 1    
    36   31   32 ar   
    37   31   38 ar   
    38   32   33 ar   
    39   33   34 1    
    40   33   35 ar   
    41   35   36 1    
    42   35   37 ar   
    43   37   38 ar   
    44   38   39 1    
    45   39   40 1    
    46   39   41 1    
    47   41   42 1    
    48   42   43 1    
    49   42   44 1    
    50   44   45 1    
    51   44   46 1    
    52   46   47 1    
    53   46   48 1    
    54   48   49 1    
    55   49   50 1    
    56   50   51 ar   
    57   50   52 ar   
    58   50   53 1    
@<TRIPOS>SUBSTRUCTURE
     1 FAD501      1 GROUP   
@<TRIPOS>SET
ATOM$ORANGE STATIC     ATOMS   COLORGROUP SYSTEM 
54 5 5 6 6 8 8 10 10 12 12 14 14 16 16 17 17 20 \
20 22 22 24 24 27 27 29 29 31 31 32 32 33 33 34 34 35 \
35 36 36 37 37 38 38 40 40 41 41 42 42 44 44 46 46 48 \
48 

