#    Name: 5xgv_1_FAD
#    Modification time : Fri May 22 19:14:12 2020

@<TRIPOS>MOLECULE
5xgv_1_FAD
   53    58     1     0     1
SMALL
NO_CHARGES


@<TRIPOS>ATOM
      1 PA        -25.0770    6.3000   16.3290 P.3       1 FAD501      0.0000 
      2 O1A       -24.5970    6.4360   14.9080 O.co2     1 FAD501      0.0000 
      3 O2A       -24.5690    5.1690   17.1620 O.co2     1 FAD501      0.0000 
      4 O5B       -26.6790    6.2800   16.3430 O.3       1 FAD501      0.0000 
      5 C5B       -27.4190    7.1530   15.5020 C.3       1 FAD501      0.0000 
      6 C4B       -28.7810    6.5150   15.2490 C.3       1 FAD501      0.0000 
      7 O4B       -29.5910    7.3930   14.4850 O.3       1 FAD501      0.0000 
      8 C3B       -28.6350    5.2450   14.4220 C.3       1 FAD501      0.0000 
      9 O3B       -29.2950    4.1990   15.1210 O.3       1 FAD501      0.0000 
     10 C2B       -29.3490    5.5290   13.1120 C.3       1 FAD501      0.0000 
     11 O2B       -30.0640    4.3720   12.6780 O.3       1 FAD501      0.0000 
     12 C1B       -30.3020    6.6350   13.5090 C.3       1 FAD501      0.0000 
     13 N9A       -30.6520    7.5370   12.4000 N.pl3     1 FAD501      0.0000 
     14 C8A       -29.7980    8.2940   11.6820 C.2       1 FAD501      0.0000 
     15 N7A       -30.4710    9.0300   10.7590 N.2       1 FAD501      0.0000 
     16 C5A       -31.7790    8.7310   10.8920 C.ar      1 FAD501      0.0000 
     17 C6A       -33.0310    9.1410   10.2360 C.ar      1 FAD501      0.0000 
     18 N6A       -33.0300   10.0450    9.2230 N.pl3     1 FAD501      0.0000 
     19 N1A       -34.1770    8.5950   10.6940 N.ar      1 FAD501      0.0000 
     20 C2A       -34.2060    7.7010   11.6950 C.ar      1 FAD501      0.0000 
     21 N3A       -33.1080    7.2800   12.3330 N.ar      1 FAD501      0.0000 
     22 C4A       -31.8910    7.7570   11.9790 C.ar      1 FAD501      0.0000 
     23 N1        -16.6040    4.2230   20.2970 N.2       1 FAD501      0.0000 
     24 C2        -16.1120    3.7480   21.4690 C.2       1 FAD501      0.0000 
     25 O2        -16.3960    4.3430   22.5330 O.2       1 FAD501      0.0000 
     26 N3        -15.3340    2.6530   21.5340 N.am      1 FAD501      0.0000 
     27 C4        -14.9850    1.9740   20.4430 C.2       1 FAD501      0.0000 
     28 O4        -14.2640    0.9630   20.4960 O.2       1 FAD501      0.0000 
     29 C4X       -15.4860    2.4080   19.1450 C.2       1 FAD501      0.0000 
     30 N5        -15.1610    1.7280   18.0370 N.2       1 FAD501      0.0000 
     31 C5X       -15.6060    2.1420   16.8440 C.ar      1 FAD501      0.0000 
     32 C6        -15.2400    1.4170   15.7190 C.ar      1 FAD501      0.0000 
     33 C7        -15.6940    1.8160   14.4740 C.ar      1 FAD501      0.0000 
     34 C7M       -15.3060    1.0350   13.2450 C.3       1 FAD501      0.0000 
     35 C8        -16.5630    3.0160   14.3480 C.ar      1 FAD501      0.0000 
     36 C8M       -17.0500    3.4340   12.9860 C.3       1 FAD501      0.0000 
     37 C9        -16.9270    3.7440   15.4840 C.ar      1 FAD501      0.0000 
     38 C9A       -16.4870    3.3430   16.7380 C.ar      1 FAD501      0.0000 
     39 N10       -16.8370    4.0640   17.9040 N.pl3     1 FAD501      0.0000 
     40 C10       -16.3390    3.6040   19.1300 C.2       1 FAD501      0.0000 
     41 C1'       -17.6840    5.2600   17.8710 C.3       1 FAD501      0.0000 
     42 C2'       -19.0940    4.9770   18.3760 C.3       1 FAD501      0.0000 
     43 O2'       -19.6550    3.9160   17.6080 O.3       1 FAD501      0.0000 
     44 C3'       -19.9620    6.2330   18.2500 C.3       1 FAD501      0.0000 
     45 O3'       -19.3070    7.2830   18.9630 O.3       1 FAD501      0.0000 
     46 C4'       -21.3770    6.0720   18.8200 C.3       1 FAD501      0.0000 
     47 O4'       -22.1080    5.0430   18.1250 O.3       1 FAD501      0.0000 
     48 C5'       -22.1380    7.3900   18.7260 C.3       1 FAD501      0.0000 
     49 O5'       -23.4780    7.1760   19.1420 O.3       1 FAD501      0.0000 
     50 P         -24.6750    8.0760   18.5820 P.3       1 FAD501      0.0000 
     51 O1P       -25.9010    7.5690   19.2760 O.co2     1 FAD501      0.0000 
     52 O2P       -24.2930    9.5310   18.6500 O.co2     1 FAD501      0.0000 
     53 O3P       -24.7650    7.7320   16.9990 O.3       1 FAD501      0.0000 
@<TRIPOS>BOND
     1    1    2 ar   
     2    1    3 ar   
     3    1    4 1    
     4    1   53 1    
     5    4    5 1    
     6    5    6 1    
     7    6    7 1    
     8    6    8 1    
     9    7   12 1    
    10    8    9 1    
    11    8   10 1    
    12   10   11 1    
    13   10   12 1    
    14   12   13 1    
    15   13   14 1    
    16   13   22 1    
    17   14   15 2    
    18   15   16 1    
    19   16   17 ar   
    20   16   22 ar   
    21   17   18 1    
    22   17   19 ar   
    23   19   20 ar   
    24   20   21 ar   
    25   21   22 ar   
    26   23   24 1    
    27   23   40 2    
    28   24   25 2    
    29   24   26 am   
    30   26   27 am   
    31   27   28 2    
    32   27   29 1    
    33   29   30 2    
    34   29   40 1    
    35   30   31 1    
    36   31   32 ar   
    37   31   38 ar   
    38   32   33 ar   
    39   33   34 1    
    40   33   35 ar   
    41   35   36 1    
    42   35   37 ar   
    43   37   38 ar   
    44   38   39 1    
    45   39   40 1    
    46   39   41 1    
    47   41   42 1    
    48   42   43 1    
    49   42   44 1    
    50   44   45 1    
    51   44   46 1    
    52   46   47 1    
    53   46   48 1    
    54   48   49 1    
    55   49   50 1    
    56   50   51 ar   
    57   50   52 ar   
    58   50   53 1    
@<TRIPOS>SUBSTRUCTURE
     1 FAD501      1 GROUP   
@<TRIPOS>SET
ATOM$ORANGE STATIC     ATOMS   COLORGROUP SYSTEM 
54 5 5 6 6 8 8 10 10 12 12 14 14 16 16 17 17 20 \
20 22 22 24 24 27 27 29 29 31 31 32 32 33 33 34 34 35 \
35 36 36 37 37 38 38 40 40 41 41 42 42 44 44 46 46 48 \
48 

