#    Name: 5ou2_3_36Y
#    Modification time : Fri May 22 19:14:11 2020

@<TRIPOS>MOLECULE
5ou2_3_36Y
   12    13     1     0     0
SMALL
NO_CHARGES


@<TRIPOS>ATOM
      1 C2        -70.6820   51.9450    2.9120           1 36Y503      0.0000 
      2 C5        -69.8240   49.9510    2.8960           1 36Y503      0.0000 
      3 C4        -70.9280   49.9270    3.7120           1 36Y503      0.0000 
      4 C6        -71.4780   48.7210    4.4640           1 36Y503      0.0000 
      5 C7        -70.9680   47.4520    4.2080           1 36Y503      0.0000 
      6 C8        -71.4680   46.3480    4.8730           1 36Y503      0.0000 
      7 C9        -72.4860   46.5120    5.8000           1 36Y503      0.0000 
      8 C10       -73.0080   47.7730    6.0680           1 36Y503      0.0000 
      9 BR        -73.1550   44.9660    6.7100           1 36Y503      0.0000 
     10 C11       -72.5020   48.8780    5.3990           1 36Y503      0.0000 
     11 N3        -71.4480   51.1630    3.7150           1 36Y503      0.0000 
     12 N1        -69.6780   51.1880    2.4160           1 36Y503      0.0000 
@<TRIPOS>BOND
     1    1   11 du   
     2    1   12 du   
     3    2    3 du   
     4    2   12 du   
     5    3    4 du   
     6    3   11 du   
     7    4    5 du   
     8    4   10 du   
     9    5    6 du   
    10    6    7 du   
    11    7    8 du   
    12    7    9 du   
    13    8   10 du   
@<TRIPOS>SUBSTRUCTURE
     1 36Y503      1 GROUP   
@<TRIPOS>SET

