#    Name: 5ou2_1_IMP
#    Modification time : Fri May 22 19:14:07 2020

@<TRIPOS>MOLECULE
5ou2_1_IMP
   23    25     1     0     0
SMALL
NO_CHARGES


@<TRIPOS>ATOM
      1 P         -63.5850   55.5310    7.6640 P.3       1 IMP501      0.0000 
      2 O1P       -62.3420   54.9050    7.1160 O.co2     1 IMP501      0.0000 
      3 O2P       -63.6040   57.0310    7.4850 O.co2     1 IMP501      0.0000 
      4 O3P       -63.7260   55.1780    9.1240 O.co2     1 IMP501      0.0000 
      5 O5'       -64.7660   54.9200    6.8500 O.3       1 IMP501      0.0000 
      6 C5'       -66.0930   55.3290    7.0870 C.3       1 IMP501      0.0000 
      7 C4'       -67.0110   54.7520    5.9690 C.3       1 IMP501      0.0000 
      8 O4'       -67.0420   53.2690    6.1760 O.3       1 IMP501      0.0000 
      9 C3'       -68.3200   55.1150    6.0900 C.3       1 IMP501      0.0000 
     10 O3'       -68.6470   56.3810    5.4910 O.3       1 IMP501      0.0000 
     11 C2'       -69.1280   53.8730    5.3270 C.3       1 IMP501      0.0000 
     12 O2'       -69.0260   54.0850    3.8950 O.3       1 IMP501      0.0000 
     13 C1'       -68.5010   52.8050    5.6100 C.3       1 IMP501      0.0000 
     14 N9        -69.0220   51.9930    6.6950 N.pl3     1 IMP501      0.0000 
     15 C8        -69.6510   52.3890    7.8120 C.2       1 IMP501      0.0000 
     16 N7        -69.9310   51.3010    8.5560 N.2       1 IMP501      0.0000 
     17 C5        -69.4620   50.1960    7.9120 C.2       1 IMP501      0.0000 
     18 C6        -69.4400   48.7170    8.2320 C.2       1 IMP501      0.0000 
     19 O6        -69.9120   48.2680    9.2280 O.2       1 IMP501      0.0000 
     20 N1        -68.8420   47.8560    7.3040 N.am      1 IMP501      0.0000 
     21 C2        -68.2780   48.3470    6.1010 C.2       1 IMP501      0.0000 
     22 N3        -68.2560   49.7660    5.8010 N.2       1 IMP501      0.0000 
     23 C4        -68.8730   50.6550    6.7500 C.2       1 IMP501      0.0000 
@<TRIPOS>BOND
     1    1    2 ar   
     2    1    3 ar   
     3    1    4 ar   
     4    1    5 1    
     5    5    6 1    
     6    6    7 1    
     7    7    8 1    
     8    7    9 1    
     9    8   13 1    
    10    9   10 1    
    11    9   11 1    
    12   11   12 1    
    13   11   13 1    
    14   13   14 1    
    15   14   15 1    
    16   14   23 1    
    17   15   16 2    
    18   16   17 1    
    19   17   18 1    
    20   17   23 2    
    21   18   19 2    
    22   18   20 am   
    23   20   21 1    
    24   21   22 2    
    25   22   23 1    
@<TRIPOS>SUBSTRUCTURE
     1 IMP501      1 GROUP   
@<TRIPOS>SET

