#    Name: 5ou2_3_36Y_CAVITY_N1_ALL
#    Modification time : Fri May 22 19:14:12 2020

@<TRIPOS>MOLECULE
5ou2_3_36Y_CAVITY_N1_ALL
   73     0     5     0     0
SMALL
NO_CHARGES


@<TRIPOS>ATOM
      1 OG        -70.2800   46.0900    4.6200 O.3       1 SER1        0.0000 
      2 OG        -65.5500   55.0800    7.2700 O.3       1 SER1        0.0000 
      3 OG        -66.6200   55.9800    7.8100 O.3       1 SER1        0.0000 
      4 N         -70.5700   46.7500    7.1100 N.am      2 ALA2        0.0000 
      5 N         -70.3300   47.7100    5.9900 N.am      2 ALA2        0.0000 
      6 N         -69.6100   50.5900    2.6000 N.am      2 ALA2        0.0000 
      7 O         -71.6400   47.6600    7.6500 O.2       2 ALA2        0.0000 
      8 O         -71.4000   48.6200    6.5200 O.2       2 ALA2        0.0000 
      9 O         -70.6700   51.4900    3.1400 O.2       2 ALA2        0.0000 
     10 O         -72.4700   49.5200    7.0600 O.2       2 ALA2        0.0000 
     11 N         -67.9900   48.4800    5.1400 N.am      2 ALA2        0.0000 
     12 N         -69.5400   47.4700    7.9400 N.am      2 ALA2        0.0000 
     13 N         -69.3000   48.4300    6.8100 N.am      2 ALA2        0.0000 
     14 N         -68.5800   51.3000    3.4300 N.am      2 ALA2        0.0000 
     15 O         -70.6100   48.3800    8.4800 O.2       2 ALA2        0.0000 
     16 O         -70.3700   49.3300    7.3500 O.2       2 ALA2        0.0000 
     17 O         -71.4400   50.2400    7.8900 O.2       2 ALA2        0.0000 
     18 N         -68.5200   48.1900    8.7700 N.am      2 ALA2        0.0000 
     19 O         -70.4200   50.9600    8.7200 O.2       2 ALA2        0.0000 
     20 O         -70.1800   51.9100    7.5900 O.2       2 ALA2        0.0000 
     21 NZ        -71.3100   45.3700    3.7900 N.4       3 LYS4        0.0000 
     22 NZ        -71.7400   52.3900    3.6800 N.4       3 LYS4        0.0000 
     23 NZ        -69.6900   53.8300    5.3300 N.4       3 LYS4        0.0000 
     24 NZ        -67.3600   54.6000    4.4900 N.4       3 LYS4        0.0000 
     25 NZ        -66.3300   55.3200    5.3200 N.4       3 LYS4        0.0000 
     26 NZ        -67.4000   56.2200    5.8600 N.4       3 LYS4        0.0000 
     27 CA        -72.6200   45.3200    5.4600 C.3       4 GLY6        0.0000 
     28 CA        -72.3800   46.2800    4.3300 C.3       4 GLY6        0.0000 
     29 CA        -73.4500   47.1800    4.8700 C.3       4 GLY6        0.0000 
     30 CA        -71.5900   46.0400    6.2900 C.3       4 GLY6        0.0000 
     31 CA        -71.3500   46.9900    5.1600 C.3       4 GLY6        0.0000 
     32 CA        -71.1100   47.9500    4.0300 C.3       4 GLY6        0.0000 
     33 CA        -72.6600   46.9400    6.8300 C.3       4 GLY6        0.0000 
     34 CA        -72.1800   48.8600    4.5700 C.3       4 GLY6        0.0000 
     35 CA        -71.9400   49.8100    3.4400 C.3       4 GLY6        0.0000 
     36 CA        -73.7300   47.8500    7.3700 C.3       4 GLY6        0.0000 
     37 CA        -71.2000   51.2000    6.7600 C.3       4 GLY6        0.0000 
     38 CA        -68.2800   49.1500    7.6400 C.3       4 GLY6        0.0000 
     39 CA        -68.0400   50.1100    6.5100 C.3       4 GLY6        0.0000 
     40 CA        -69.5900   49.0900    9.3100 C.3       4 GLY6        0.0000 
     41 CA        -69.3500   50.0500    8.1800 C.3       4 GLY6        0.0000 
     42 CA        -69.1100   51.0100    7.0500 C.3       4 GLY6        0.0000 
     43 CA        -66.7700   51.7800    6.2100 C.3       4 GLY6        0.0000 
     44 CA        -66.5300   52.7400    5.0800 C.3       4 GLY6        0.0000 
     45 CA        -67.8400   52.6900    6.7500 C.3       4 GLY6        0.0000 
     46 CA        -69.1500   52.6300    8.4200 C.3       4 GLY6        0.0000 
     47 CA        -68.9100   53.5900    7.2900 C.3       4 GLY6        0.0000 
     48 CA        -68.6700   54.5500    6.1600 C.3       4 GLY6        0.0000 
     49 CA        -65.7500   52.5000    7.0400 C.3       4 GLY6        0.0000 
     50 CA        -65.5100   53.4600    5.9100 C.3       4 GLY6        0.0000 
     51 CA        -66.8200   53.4000    7.5800 C.3       4 GLY6        0.0000 
     52 CA        -67.6400   55.2600    6.9900 C.3       4 GLY6        0.0000 
     53 CA        -65.3100   56.0400    6.1400 C.3       4 GLY6        0.0000 
     54 DU        -73.6900   46.2200    6.0000 H         5 CUB7        0.0000 
     55 DU        -72.4200   47.9000    5.7000 H         5 CUB7        0.0000 
     56 DU        -73.4900   48.8000    6.2400 H         5 CUB7        0.0000 
     57 DU        -70.0900   48.6700    4.8600 H         5 CUB7        0.0000 
     58 DU        -69.8500   49.6300    3.7300 H         5 CUB7        0.0000 
     59 DU        -71.1600   49.5700    5.4000 H         5 CUB7        0.0000 
     60 DU        -70.9200   50.5300    4.2700 H         5 CUB7        0.0000 
     61 DU        -72.2200   50.4800    5.9300 H         5 CUB7        0.0000 
     62 DU        -71.9800   51.4400    4.8000 H         5 CUB7        0.0000 
     63 DU        -69.0600   49.3900    5.6800 H         5 CUB7        0.0000 
     64 DU        -68.8200   50.3500    4.5500 H         5 CUB7        0.0000 
     65 DU        -70.1300   50.2900    6.2200 H         5 CUB7        0.0000 
     66 DU        -69.6500   52.2100    3.9600 H         5 CUB7        0.0000 
     67 DU        -70.7200   53.1100    4.5000 H         5 CUB7        0.0000 
     68 DU        -67.8000   51.0600    5.3800 H         5 CUB7        0.0000 
     69 DU        -68.8700   51.9700    5.9200 H         5 CUB7        0.0000 
     70 DU        -68.6200   52.9200    4.7900 H         5 CUB7        0.0000 
     71 DU        -69.9300   52.8700    6.4600 H         5 CUB7        0.0000 
     72 DU        -67.6000   53.6400    5.6200 H         5 CUB7        0.0000 
     73 DU        -66.5800   54.3600    6.4500 H         5 CUB7        0.0000 
@<TRIPOS>BOND
@<TRIPOS>SUBSTRUCTURE
     1 SER1        1 GROUP   
     2 ALA2        4 GROUP   
     3 LYS4       21 GROUP   
     4 GLY6       27 GROUP   
     5 CUB7       54 GROUP   
@<TRIPOS>SET

