#    Name: 5ou2_3_36Y_CAVITY_N1_4
#    Modification time : Fri May 22 19:14:12 2020

@<TRIPOS>MOLECULE
5ou2_3_36Y_CAVITY_N1_4
   48     0     5     0     0
SMALL
NO_CHARGES


@<TRIPOS>ATOM
      1 OG        -70.2800   46.0900    4.6200 O.3       1 SER1        0.0000 
      2 N         -70.5700   46.7500    7.1100 N.am      2 ALA2        0.0000 
      3 N         -70.3300   47.7100    5.9900 N.am      2 ALA2        0.0000 
      4 N         -69.6100   50.5900    2.6000 N.am      2 ALA2        0.0000 
      5 O         -71.6400   47.6600    7.6500 O.2       2 ALA2        0.0000 
      6 O         -71.4000   48.6200    6.5200 O.2       2 ALA2        0.0000 
      7 O         -70.6700   51.4900    3.1400 O.2       2 ALA2        0.0000 
      8 O         -72.4700   49.5200    7.0600 O.2       2 ALA2        0.0000 
      9 N         -67.9900   48.4800    5.1400 N.am      2 ALA2        0.0000 
     10 N         -69.5400   47.4700    7.9400 N.am      2 ALA2        0.0000 
     11 N         -69.3000   48.4300    6.8100 N.am      2 ALA2        0.0000 
     12 N         -68.5800   51.3000    3.4300 N.am      2 ALA2        0.0000 
     13 O         -70.6100   48.3800    8.4800 O.2       2 ALA2        0.0000 
     14 O         -70.3700   49.3300    7.3500 O.2       2 ALA2        0.0000 
     15 O         -71.4400   50.2400    7.8900 O.2       2 ALA2        0.0000 
     16 NZ        -71.3100   45.3700    3.7900 N.4       3 LYS4        0.0000 
     17 NZ        -71.7400   52.3900    3.6800 N.4       3 LYS4        0.0000 
     18 NZ        -69.6900   53.8300    5.3300 N.4       3 LYS4        0.0000 
     19 CA        -72.6200   45.3200    5.4600 C.3       4 GLY6        0.0000 
     20 CA        -72.3800   46.2800    4.3300 C.3       4 GLY6        0.0000 
     21 CA        -73.4500   47.1800    4.8700 C.3       4 GLY6        0.0000 
     22 CA        -71.5900   46.0400    6.2900 C.3       4 GLY6        0.0000 
     23 CA        -71.3500   46.9900    5.1600 C.3       4 GLY6        0.0000 
     24 CA        -71.1100   47.9500    4.0300 C.3       4 GLY6        0.0000 
     25 CA        -72.6600   46.9400    6.8300 C.3       4 GLY6        0.0000 
     26 CA        -72.1800   48.8600    4.5700 C.3       4 GLY6        0.0000 
     27 CA        -71.9400   49.8100    3.4400 C.3       4 GLY6        0.0000 
     28 CA        -73.7300   47.8500    7.3700 C.3       4 GLY6        0.0000 
     29 CA        -71.2000   51.2000    6.7600 C.3       4 GLY6        0.0000 
     30 CA        -69.1100   51.0100    7.0500 C.3       4 GLY6        0.0000 
     31 DU        -73.6900   46.2200    6.0000 H         5 CUB7        0.0000 
     32 DU        -72.4200   47.9000    5.7000 H         5 CUB7        0.0000 
     33 DU        -73.4900   48.8000    6.2400 H         5 CUB7        0.0000 
     34 DU        -70.0900   48.6700    4.8600 H         5 CUB7        0.0000 
     35 DU        -69.8500   49.6300    3.7300 H         5 CUB7        0.0000 
     36 DU        -71.1600   49.5700    5.4000 H         5 CUB7        0.0000 
     37 DU        -70.9200   50.5300    4.2700 H         5 CUB7        0.0000 
     38 DU        -72.2200   50.4800    5.9300 H         5 CUB7        0.0000 
     39 DU        -71.9800   51.4400    4.8000 H         5 CUB7        0.0000 
     40 DU        -69.0600   49.3900    5.6800 H         5 CUB7        0.0000 
     41 DU        -68.8200   50.3500    4.5500 H         5 CUB7        0.0000 
     42 DU        -70.1300   50.2900    6.2200 H         5 CUB7        0.0000 
     43 DU        -69.6500   52.2100    3.9600 H         5 CUB7        0.0000 
     44 DU        -70.7200   53.1100    4.5000 H         5 CUB7        0.0000 
     45 DU        -67.8000   51.0600    5.3800 H         5 CUB7        0.0000 
     46 DU        -68.8700   51.9700    5.9200 H         5 CUB7        0.0000 
     47 DU        -68.6200   52.9200    4.7900 H         5 CUB7        0.0000 
     48 DU        -69.9300   52.8700    6.4600 H         5 CUB7        0.0000 
@<TRIPOS>BOND
@<TRIPOS>SUBSTRUCTURE
     1 SER1        1 GROUP   
     2 ALA2        2 GROUP   
     3 LYS4       16 GROUP   
     4 GLY6       19 GROUP   
     5 CUB7       31 GROUP   
@<TRIPOS>SET

