#    Name: 6fwk_1_DTP_CAVITY_N1_4
#    Modification time : Fri May 22 19:29:11 2020

@<TRIPOS>MOLECULE
6fwk_1_DTP_CAVITY_N1_4
   37     0     5     0     0
SMALL
NO_CHARGES


@<TRIPOS>ATOM
      1 O         -34.9300   47.1500  166.9000 O.2       1 ALA2        0.0000 
      2 N         -39.2500   49.9700  170.3100 N.am      1 ALA2        0.0000 
      3 N         -39.6200   48.9500  171.3400 N.am      1 ALA2        0.0000 
      4 OD1       -37.9700   48.5300  167.1800 O.co2     2 ASP3        0.0000 
      5 OD1       -35.5500   49.1300  166.4500 O.co2     2 ASP3        0.0000 
      6 OD1       -37.5200   51.0500  167.6400 O.co2     2 ASP3        0.0000 
      7 OD1       -35.9200   48.1100  167.4900 O.co2     2 ASP3        0.0000 
      8 OD1       -36.9100   49.0700  168.0800 O.co2     2 ASP3        0.0000 
      9 OD1       -37.8900   50.0300  168.6800 O.co2     2 ASP3        0.0000 
     10 OD1       -38.8800   50.9900  169.2700 O.co2     2 ASP3        0.0000 
     11 OD1       -36.4600   51.5900  168.5500 O.co2     2 ASP3        0.0000 
     12 OD1       -34.8500   48.6400  168.4000 O.co2     2 ASP3        0.0000 
     13 OD1       -35.8400   49.6100  168.9900 O.co2     2 ASP3        0.0000 
     14 OD1       -36.8300   50.5700  169.5900 O.co2     2 ASP3        0.0000 
     15 OD1       -33.7800   49.1800  169.3100 O.co2     2 ASP3        0.0000 
     16 OD1       -34.7700   50.1400  169.9000 O.co2     2 ASP3        0.0000 
     17 OD1       -35.7600   51.1000  170.4900 O.co2     2 ASP3        0.0000 
     18 OD1       -34.3200   52.6600  170.3600 O.co2     2 ASP3        0.0000 
     19 OD1       -33.7000   50.6800  170.8100 O.co2     2 ASP3        0.0000 
     20 NZ        -37.1900   49.5500  170.6200 N.4       3 LYS4        0.0000 
     21 NZ        -37.5600   48.5300  171.6600 N.4       3 LYS4        0.0000 
     22 NZ        -35.1400   49.1200  170.9400 N.4       3 LYS4        0.0000 
     23 NZ        -36.1300   50.0800  171.5300 N.4       3 LYS4        0.0000 
     24 NZ        -34.6900   51.6400  171.4000 N.4       3 LYS4        0.0000 
     25 CA        -38.9600   49.4900  167.7700 C.3       4 GLY6        0.0000 
     26 CA        -37.3500   46.5500  167.6200 C.3       4 GLY6        0.0000 
     27 CA        -40.3200   49.4300  169.4000 C.3       4 GLY6        0.0000 
     28 CA        -38.7100   46.4900  169.2500 C.3       4 GLY6        0.0000 
     29 CA        -39.7000   47.4500  169.8400 C.3       4 GLY6        0.0000 
     30 CA        -37.2700   48.0500  169.1200 C.3       4 GLY6        0.0000 
     31 CA        -38.2600   49.0100  169.7100 C.3       4 GLY6        0.0000 
     32 CA        -37.6400   47.0300  170.1600 C.3       4 GLY6        0.0000 
     33 CA        -38.6300   47.9900  170.7500 C.3       4 GLY6        0.0000 
     34 DU        -36.2900   47.0900  168.5300 H         5 CUB7        0.0000 
     35 DU        -35.2200   47.6300  169.4400 H         5 CUB7        0.0000 
     36 DU        -36.2100   48.5900  170.0300 H         5 CUB7        0.0000 
     37 DU        -36.5800   47.5700  171.0700 H         5 CUB7        0.0000 
@<TRIPOS>BOND
@<TRIPOS>SUBSTRUCTURE
     1 ALA2        1 GROUP   
     2 ASP3        4 GROUP   
     3 LYS4       20 GROUP   
     4 GLY6       25 GROUP   
     5 CUB7       34 GROUP   
@<TRIPOS>SET

