#    Name: 6fwk_1_DTP
#    Modification time : Fri May 22 19:29:09 2020

@<TRIPOS>MOLECULE
6fwk_1_DTP
   30    32     1     0     0
SMALL
NO_CHARGES


@<TRIPOS>ATOM
      1 PG        -38.1820   50.8370  168.8300 P.3       1 DTP1301     0.0000 
      2 O1G       -37.2910   49.8250  168.2450 O.co2     1 DTP1301     0.0000 
      3 O2G       -39.6010   50.7200  168.4600 O.co2     1 DTP1301     0.0000 
      4 O3G       -37.9230   51.1470  170.2480 O.co2     1 DTP1301     0.0000 
      5 PB        -37.8350   53.6230  168.6320 P.3       1 DTP1301     0.0000 
      6 O1B       -38.3650   54.5020  167.5820 O.co2     1 DTP1301     0.0000 
      7 O2B       -38.4930   53.6120  169.9500 O.co2     1 DTP1301     0.0000 
      8 O3B       -37.7410   52.1440  168.0320 O.3       1 DTP1301     0.0000 
      9 PA        -35.4670   53.9050  170.1450 P.3       1 DTP1301     0.0000 
     10 O1A       -34.1600   53.3020  169.8550 O.co2     1 DTP1301     0.0000 
     11 O2A       -36.3000   53.3390  171.2200 O.co2     1 DTP1301     0.0000 
     12 O3A       -36.2800   53.9680  168.7730 O.3       1 DTP1301     0.0000 
     13 O5'       -35.2540   55.4500  170.4250 O.3       1 DTP1301     0.0000 
     14 C5'       -36.3200   56.2130  170.9810 C.3       1 DTP1301     0.0000 
     15 C4'       -36.3490   57.6020  170.3470 C.3       1 DTP1301     0.0000 
     16 O4'       -35.0050   58.0620  170.1390 O.3       1 DTP1301     0.0000 
     17 C3'       -36.8970   57.5160  168.9540 C.3       1 DTP1301     0.0000 
     18 O3'       -38.3230   57.4930  168.9900 O.3       1 DTP1301     0.0000 
     19 C2'       -36.4290   58.8310  168.4220 C.3       1 DTP1301     0.0000 
     20 C1'       -35.0230   58.9120  168.9760 C.3       1 DTP1301     0.0000 
     21 N9        -34.0730   58.3790  167.9930 N.pl3     1 DTP1301     0.0000 
     22 C8        -33.4610   57.2060  168.0330 C.2       1 DTP1301     0.0000 
     23 N7        -32.6960   57.1120  166.9540 N.2       1 DTP1301     0.0000 
     24 C5        -32.8400   58.2250  166.2480 C.ar      1 DTP1301     0.0000 
     25 C6        -32.2970   58.6170  165.1030 C.ar      1 DTP1301     0.0000 
     26 N6        -31.4550   57.7710  164.5300 N.pl3     1 DTP1301     0.0000 
     27 N1        -32.5830   59.8000  164.5570 N.ar      1 DTP1301     0.0000 
     28 C2        -33.4750   60.6440  165.2090 C.ar      1 DTP1301     0.0000 
     29 N3        -34.0290   60.2080  166.4060 N.ar      1 DTP1301     0.0000 
     30 C4        -33.6950   59.0090  166.8940 C.ar      1 DTP1301     0.0000 
@<TRIPOS>BOND
     1    1    2 ar   
     2    1    3 ar   
     3    1    4 ar   
     4    1    8 1    
     5    5    6 ar   
     6    5    7 ar   
     7    5    8 1    
     8    5   12 1    
     9    9   10 ar   
    10    9   11 ar   
    11    9   12 1    
    12    9   13 1    
    13   13   14 1    
    14   14   15 1    
    15   15   16 1    
    16   15   17 1    
    17   16   20 1    
    18   17   18 1    
    19   17   19 1    
    20   19   20 1    
    21   20   21 1    
    22   21   22 1    
    23   21   30 1    
    24   22   23 2    
    25   23   24 1    
    26   24   25 ar   
    27   24   30 ar   
    28   25   26 1    
    29   25   27 ar   
    30   27   28 ar   
    31   28   29 ar   
    32   29   30 ar   
@<TRIPOS>SUBSTRUCTURE
     1 DTP1301     1 GROUP   
@<TRIPOS>SET

