#    Name: 6fwk_1_DTP_CAVITY_N1_6
#    Modification time : Fri May 22 19:29:11 2020

@<TRIPOS>MOLECULE
6fwk_1_DTP_CAVITY_N1_6
   72     0     6     0     0
SMALL
NO_CHARGES


@<TRIPOS>ATOM
      1 OG        -35.8800   47.0800  173.0100 O.3       1 SER1        0.0000 
      2 OG        -33.4500   47.6800  172.2900 O.3       1 SER1        0.0000 
      3 O         -37.8000   44.0400  167.1600 O.2       2 ALA2        0.0000 
      4 O         -36.3700   45.5900  167.0300 O.2       2 ALA2        0.0000 
      5 O         -36.7400   44.5700  168.0600 O.2       2 ALA2        0.0000 
      6 O         -34.9300   47.1500  166.9000 O.2       2 ALA2        0.0000 
      7 O         -34.3100   45.1700  167.3400 O.2       2 ALA2        0.0000 
      8 O         -35.3000   46.1300  167.9300 O.2       2 ALA2        0.0000 
      9 N         -39.2500   49.9700  170.3100 N.am      2 ALA2        0.0000 
     10 N         -39.6200   48.9500  171.3400 N.am      2 ALA2        0.0000 
     11 N         -39.9900   47.9300  172.3800 N.am      2 ALA2        0.0000 
     12 OD1       -40.1500   44.9400  169.3800 O.co2     3 ASP3        0.0000 
     13 OD1       -37.9700   48.5300  167.1800 O.co2     3 ASP3        0.0000 
     14 OD1       -35.5500   49.1300  166.4500 O.co2     3 ASP3        0.0000 
     15 OD1       -37.5200   51.0500  167.6400 O.co2     3 ASP3        0.0000 
     16 OD1       -35.9200   48.1100  167.4900 O.co2     3 ASP3        0.0000 
     17 OD1       -36.9100   49.0700  168.0800 O.co2     3 ASP3        0.0000 
     18 OD1       -37.8900   50.0300  168.6800 O.co2     3 ASP3        0.0000 
     19 OD1       -38.8800   50.9900  169.2700 O.co2     3 ASP3        0.0000 
     20 OD1       -36.4600   51.5900  168.5500 O.co2     3 ASP3        0.0000 
     21 OD1       -34.8500   48.6400  168.4000 O.co2     3 ASP3        0.0000 
     22 OD1       -35.8400   49.6100  168.9900 O.co2     3 ASP3        0.0000 
     23 OD1       -36.8300   50.5700  169.5900 O.co2     3 ASP3        0.0000 
     24 OD1       -33.7800   49.1800  169.3100 O.co2     3 ASP3        0.0000 
     25 OD1       -34.7700   50.1400  169.9000 O.co2     3 ASP3        0.0000 
     26 OD1       -35.7600   51.1000  170.4900 O.co2     3 ASP3        0.0000 
     27 OD1       -34.3200   52.6600  170.3600 O.co2     3 ASP3        0.0000 
     28 OD1       -33.7000   50.6800  170.8100 O.co2     3 ASP3        0.0000 
     29 NZ        -39.0800   45.4700  170.2900 N.4       4 LYS4        0.0000 
     30 NZ        -37.1900   49.5500  170.6200 N.4       4 LYS4        0.0000 
     31 NZ        -37.5600   48.5300  171.6600 N.4       4 LYS4        0.0000 
     32 NZ        -36.9500   46.5500  172.1000 N.4       4 LYS4        0.0000 
     33 NZ        -38.3000   46.4900  173.7300 N.4       4 LYS4        0.0000 
     34 NZ        -35.1400   49.1200  170.9400 N.4       4 LYS4        0.0000 
     35 NZ        -36.1300   50.0800  171.5300 N.4       4 LYS4        0.0000 
     36 NZ        -35.5100   48.1000  171.9700 N.4       4 LYS4        0.0000 
     37 NZ        -34.6900   51.6400  171.4000 N.4       4 LYS4        0.0000 
     38 NZ        -34.0700   49.6600  171.8400 N.4       4 LYS4        0.0000 
     39 NZ        -34.4400   48.6400  172.8800 N.4       4 LYS4        0.0000 
     40 NZ        -33.0100   50.2000  172.7500 N.4       4 LYS4        0.0000 
     41 CA        -38.7900   45.0000  167.7500 C.3       5 GLY6        0.0000 
     42 CA        -38.9600   49.4900  167.7700 C.3       5 GLY6        0.0000 
     43 CA        -37.3500   46.5500  167.6200 C.3       5 GLY6        0.0000 
     44 CA        -40.3200   49.4300  169.4000 C.3       5 GLY6        0.0000 
     45 CA        -37.7200   45.5300  168.6600 C.3       5 GLY6        0.0000 
     46 CA        -38.7100   46.4900  169.2500 C.3       5 GLY6        0.0000 
     47 CA        -39.7000   47.4500  169.8400 C.3       5 GLY6        0.0000 
     48 CA        -37.2700   48.0500  169.1200 C.3       5 GLY6        0.0000 
     49 CA        -38.2600   49.0100  169.7100 C.3       5 GLY6        0.0000 
     50 CA        -37.6400   47.0300  170.1600 C.3       5 GLY6        0.0000 
     51 CA        -38.6300   47.9900  170.7500 C.3       5 GLY6        0.0000 
     52 CA        -39.0000   46.9700  171.7900 C.3       5 GLY6        0.0000 
     53 CA        -39.3700   45.9500  172.8200 C.3       5 GLY6        0.0000 
     54 CA        -32.8800   46.7200  167.2100 C.3       5 GLY6        0.0000 
     55 CA        -33.8600   47.6800  167.8100 C.3       5 GLY6        0.0000 
     56 CA        -37.9300   47.5100  172.7000 C.3       5 GLY6        0.0000 
     57 DU        -38.0900   44.5100  169.6900 H         6 CUB7        0.0000 
     58 DU        -36.2900   47.0900  168.5300 H         6 CUB7        0.0000 
     59 DU        -35.6700   45.1100  168.9700 H         6 CUB7        0.0000 
     60 DU        -36.6600   46.0700  169.5600 H         6 CUB7        0.0000 
     61 DU        -37.0200   45.0500  170.6000 H         6 CUB7        0.0000 
     62 DU        -38.0100   46.0100  171.1900 H         6 CUB7        0.0000 
     63 DU        -33.2400   45.7000  168.2500 H         6 CUB7        0.0000 
     64 DU        -34.2300   46.6600  168.8400 H         6 CUB7        0.0000 
     65 DU        -35.2200   47.6300  169.4400 H         6 CUB7        0.0000 
     66 DU        -36.2100   48.5900  170.0300 H         6 CUB7        0.0000 
     67 DU        -36.5800   47.5700  171.0700 H         6 CUB7        0.0000 
     68 DU        -35.9600   45.5900  171.5100 H         6 CUB7        0.0000 
     69 DU        -33.1600   47.2000  169.7500 H         6 CUB7        0.0000 
     70 DU        -34.1500   48.1600  170.3400 H         6 CUB7        0.0000 
     71 DU        -34.5200   47.1400  171.3800 H         6 CUB7        0.0000 
     72 DU        -33.0900   48.7000  171.2500 H         6 CUB7        0.0000 
@<TRIPOS>BOND
@<TRIPOS>SUBSTRUCTURE
     1 SER1        1 GROUP   
     2 ALA2        3 GROUP   
     3 ASP3       12 GROUP   
     4 LYS4       29 GROUP   
     5 GLY6       41 GROUP   
     6 CUB7       57 GROUP   
@<TRIPOS>SET

