#    Name: 6fwk_1_DTP_CAVITY_N1_12
#    Modification time : Fri May 22 19:29:11 2020

@<TRIPOS>MOLECULE
6fwk_1_DTP_CAVITY_N1_12
  127     0     7     0     0
SMALL
NO_CHARGES


@<TRIPOS>ATOM
      1 OG        -35.8800   47.0800  173.0100 O.3       1 SER1        0.0000 
      2 OG        -33.4500   47.6800  172.2900 O.3       1 SER1        0.0000 
      3 OG        -32.3900   48.2200  173.1900 O.3       1 SER1        0.0000 
      4 OG        -32.7600   47.2000  174.2300 O.3       1 SER1        0.0000 
      5 N         -43.3500   43.3300  166.6600 N.am      2 ALA2        0.0000 
      6 N         -41.2900   42.9000  166.9700 N.am      2 ALA2        0.0000 
      7 N         -39.2400   42.4800  167.2900 N.am      2 ALA2        0.0000 
      8 O         -37.8000   44.0400  167.1600 O.2       2 ALA2        0.0000 
      9 O         -36.3700   45.5900  167.0300 O.2       2 ALA2        0.0000 
     10 O         -35.7500   43.6100  167.4700 O.2       2 ALA2        0.0000 
     11 O         -36.7400   44.5700  168.0600 O.2       2 ALA2        0.0000 
     12 O         -34.9300   47.1500  166.9000 O.2       2 ALA2        0.0000 
     13 O         -34.3100   45.1700  167.3400 O.2       2 ALA2        0.0000 
     14 O         -35.3000   46.1300  167.9300 O.2       2 ALA2        0.0000 
     15 N         -39.2500   49.9700  170.3100 N.am      2 ALA2        0.0000 
     16 N         -39.6200   48.9500  171.3400 N.am      2 ALA2        0.0000 
     17 N         -39.9900   47.9300  172.3800 N.am      2 ALA2        0.0000 
     18 OD1       -42.2800   43.8600  167.5600 O.co2     3 ASP3        0.0000 
     19 OD1       -38.2500   41.5200  166.6900 O.co2     3 ASP3        0.0000 
     20 OD1       -41.2100   44.4000  168.4700 O.co2     3 ASP3        0.0000 
     21 OD1       -37.1800   42.0600  167.6000 O.co2     3 ASP3        0.0000 
     22 OD1       -40.1500   44.9400  169.3800 O.co2     3 ASP3        0.0000 
     23 OD1       -37.5500   41.0400  168.6400 O.co2     3 ASP3        0.0000 
     24 OD1       -37.9700   48.5300  167.1800 O.co2     3 ASP3        0.0000 
     25 OD1       -34.7600   42.6500  166.8800 O.co2     3 ASP3        0.0000 
     26 OD1       -36.1200   42.5900  168.5100 O.co2     3 ASP3        0.0000 
     27 OD1       -35.5500   49.1300  166.4500 O.co2     3 ASP3        0.0000 
     28 OD1       -37.5200   51.0500  167.6400 O.co2     3 ASP3        0.0000 
     29 OD1       -35.9200   48.1100  167.4900 O.co2     3 ASP3        0.0000 
     30 OD1       -36.9100   49.0700  168.0800 O.co2     3 ASP3        0.0000 
     31 OD1       -37.8900   50.0300  168.6800 O.co2     3 ASP3        0.0000 
     32 OD1       -38.8800   50.9900  169.2700 O.co2     3 ASP3        0.0000 
     33 OD1       -35.0500   43.1300  169.4100 O.co2     3 ASP3        0.0000 
     34 OD1       -36.4600   51.5900  168.5500 O.co2     3 ASP3        0.0000 
     35 OD1       -34.8500   48.6400  168.4000 O.co2     3 ASP3        0.0000 
     36 OD1       -35.8400   49.6100  168.9900 O.co2     3 ASP3        0.0000 
     37 OD1       -36.8300   50.5700  169.5900 O.co2     3 ASP3        0.0000 
     38 OD1       -33.7800   49.1800  169.3100 O.co2     3 ASP3        0.0000 
     39 OD1       -34.7700   50.1400  169.9000 O.co2     3 ASP3        0.0000 
     40 OD1       -35.7600   51.1000  170.4900 O.co2     3 ASP3        0.0000 
     41 OD1       -34.3200   52.6600  170.3600 O.co2     3 ASP3        0.0000 
     42 OD1       -33.7000   50.6800  170.8100 O.co2     3 ASP3        0.0000 
     43 NZ        -41.5800   43.3800  169.5100 N.4       4 LYS4        0.0000 
     44 NZ        -36.8200   43.0800  166.5600 N.4       4 LYS4        0.0000 
     45 NZ        -40.5200   43.9200  170.4200 N.4       4 LYS4        0.0000 
     46 NZ        -39.0800   45.4700  170.2900 N.4       4 LYS4        0.0000 
     47 NZ        -39.4500   44.4500  171.3200 N.4       4 LYS4        0.0000 
     48 NZ        -37.3900   44.0300  171.6400 N.4       4 LYS4        0.0000 
     49 NZ        -38.3800   44.9900  172.2300 N.4       4 LYS4        0.0000 
     50 NZ        -37.1900   49.5500  170.6200 N.4       4 LYS4        0.0000 
     51 NZ        -37.5600   48.5300  171.6600 N.4       4 LYS4        0.0000 
     52 NZ        -36.9500   46.5500  172.1000 N.4       4 LYS4        0.0000 
     53 NZ        -35.3400   43.6100  171.9500 N.4       4 LYS4        0.0000 
     54 NZ        -36.3300   44.5700  172.5500 N.4       4 LYS4        0.0000 
     55 NZ        -37.3100   45.5300  173.1400 N.4       4 LYS4        0.0000 
     56 NZ        -38.3000   46.4900  173.7300 N.4       4 LYS4        0.0000 
     57 NZ        -35.1400   49.1200  170.9400 N.4       4 LYS4        0.0000 
     58 NZ        -36.1300   50.0800  171.5300 N.4       4 LYS4        0.0000 
     59 NZ        -32.5500   45.2200  170.1900 N.4       4 LYS4        0.0000 
     60 NZ        -35.5100   48.1000  171.9700 N.4       4 LYS4        0.0000 
     61 NZ        -34.2700   44.1400  172.8600 N.4       4 LYS4        0.0000 
     62 NZ        -35.2600   45.1000  173.4500 N.4       4 LYS4        0.0000 
     63 NZ        -34.6900   51.6400  171.4000 N.4       4 LYS4        0.0000 
     64 NZ        -34.0700   49.6600  171.8400 N.4       4 LYS4        0.0000 
     65 NZ        -32.4700   46.7200  171.6900 N.4       4 LYS4        0.0000 
     66 NZ        -34.4400   48.6400  172.8800 N.4       4 LYS4        0.0000 
     67 NZ        -32.8400   45.7000  172.7300 N.4       4 LYS4        0.0000 
     68 NZ        -33.2000   44.6800  173.7700 N.4       4 LYS4        0.0000 
     69 NZ        -33.0100   50.2000  172.7500 N.4       4 LYS4        0.0000 
     70 NZ        -31.7700   46.2300  173.6400 N.4       4 LYS4        0.0000 
     71 NZ        -31.3200   48.7500  174.1000 N.4       4 LYS4        0.0000 
     72 CZ        -34.8900   46.1200  172.4200 C.ar      5 PHE5        0.0000 
     73 CZ        -33.8200   46.6600  173.3200 C.ar      5 PHE5        0.0000 
     74 CA        -43.7200   42.3100  167.6900 C.3       6 GLY6        0.0000 
     75 CA        -41.6600   41.8800  168.0100 C.3       6 GLY6        0.0000 
     76 CA        -42.6500   42.8500  168.6000 C.3       6 GLY6        0.0000 
     77 CA        -38.8700   43.5000  166.2500 C.3       6 GLY6        0.0000 
     78 CA        -40.2300   43.4400  167.8800 C.3       6 GLY6        0.0000 
     79 CA        -39.6100   41.4600  168.3200 C.3       6 GLY6        0.0000 
     80 CA        -40.6000   42.4200  168.9200 C.3       6 GLY6        0.0000 
     81 CA        -38.7900   45.0000  167.7500 C.3       6 GLY6        0.0000 
     82 CA        -39.1600   43.9800  168.7900 C.3       6 GLY6        0.0000 
     83 CA        -38.9600   49.4900  167.7700 C.3       6 GLY6        0.0000 
     84 CA        -37.3500   46.5500  167.6200 C.3       6 GLY6        0.0000 
     85 CA        -40.3200   49.4300  169.4000 C.3       6 GLY6        0.0000 
     86 CA        -37.7200   45.5300  168.6600 C.3       6 GLY6        0.0000 
     87 CA        -38.7100   46.4900  169.2500 C.3       6 GLY6        0.0000 
     88 CA        -39.7000   47.4500  169.8400 C.3       6 GLY6        0.0000 
     89 CA        -40.4400   45.4200  171.9200 C.3       6 GLY6        0.0000 
     90 CA        -37.2700   48.0500  169.1200 C.3       6 GLY6        0.0000 
     91 CA        -38.2600   49.0100  169.7100 C.3       6 GLY6        0.0000 
     92 CA        -37.6400   47.0300  170.1600 C.3       6 GLY6        0.0000 
     93 CA        -38.6300   47.9900  170.7500 C.3       6 GLY6        0.0000 
     94 CA        -39.0000   46.9700  171.7900 C.3       6 GLY6        0.0000 
     95 CA        -39.3700   45.9500  172.8200 C.3       6 GLY6        0.0000 
     96 CA        -31.8900   45.7600  166.6200 C.3       6 GLY6        0.0000 
     97 CA        -32.8800   46.7200  167.2100 C.3       6 GLY6        0.0000 
     98 CA        -33.8600   47.6800  167.8100 C.3       6 GLY6        0.0000 
     99 CA        -37.9300   47.5100  172.7000 C.3       6 GLY6        0.0000 
    100 CA        -30.3300   47.7900  173.5100 C.3       6 GLY6        0.0000 
    101 DU        -38.1700   43.0200  168.1900 H         7 CUB7        0.0000 
    102 DU        -38.5400   42.0000  169.2300 H         7 CUB7        0.0000 
    103 DU        -39.5300   42.9600  169.8200 H         7 CUB7        0.0000 
    104 DU        -37.1000   43.5500  169.1000 H         7 CUB7        0.0000 
    105 DU        -38.0900   44.5100  169.6900 H         7 CUB7        0.0000 
    106 DU        -37.4700   42.5300  170.1400 H         7 CUB7        0.0000 
    107 DU        -38.4600   43.4900  170.7300 H         7 CUB7        0.0000 
    108 DU        -36.2900   47.0900  168.5300 H         7 CUB7        0.0000 
    109 DU        -34.6800   44.1500  168.3800 H         7 CUB7        0.0000 
    110 DU        -35.6700   45.1100  168.9700 H         7 CUB7        0.0000 
    111 DU        -36.6600   46.0700  169.5600 H         7 CUB7        0.0000 
    112 DU        -36.0400   44.0900  170.0100 H         7 CUB7        0.0000 
    113 DU        -37.0200   45.0500  170.6000 H         7 CUB7        0.0000 
    114 DU        -38.0100   46.0100  171.1900 H         7 CUB7        0.0000 
    115 DU        -36.4100   43.0700  171.0400 H         7 CUB7        0.0000 
    116 DU        -33.2400   45.7000  168.2500 H         7 CUB7        0.0000 
    117 DU        -34.2300   46.6600  168.8400 H         7 CUB7        0.0000 
    118 DU        -35.2200   47.6300  169.4400 H         7 CUB7        0.0000 
    119 DU        -36.2100   48.5900  170.0300 H         7 CUB7        0.0000 
    120 DU        -36.5800   47.5700  171.0700 H         7 CUB7        0.0000 
    121 DU        -34.9700   44.6300  170.9200 H         7 CUB7        0.0000 
    122 DU        -35.9600   45.5900  171.5100 H         7 CUB7        0.0000 
    123 DU        -33.1600   47.2000  169.7500 H         7 CUB7        0.0000 
    124 DU        -34.1500   48.1600  170.3400 H         7 CUB7        0.0000 
    125 DU        -34.5200   47.1400  171.3800 H         7 CUB7        0.0000 
    126 DU        -33.9000   45.1600  171.8200 H         7 CUB7        0.0000 
    127 DU        -33.0900   48.7000  171.2500 H         7 CUB7        0.0000 
@<TRIPOS>BOND
@<TRIPOS>SUBSTRUCTURE
     1 SER1        1 GROUP   
     2 ALA2        5 GROUP   
     3 ASP3       18 GROUP   
     4 LYS4       43 GROUP   
     5 PHE5       72 GROUP   
     6 GLY6       74 GROUP   
     7 CUB7      101 GROUP   
@<TRIPOS>SET

