#    Name: 6fwk_2_DTP
#    Modification time : Fri May 22 19:29:28 2020

@<TRIPOS>MOLECULE
6fwk_2_DTP
   30    32     1     0     0
SMALL
NO_CHARGES


@<TRIPOS>ATOM
      1 PG         36.9300   84.8360  198.3320 P.3       1 DTP1301     0.0000 
      2 O1G        36.5670   85.0170  196.9130 O.co2     1 DTP1301     0.0000 
      3 O2G        36.1520   83.8150  199.0530 O.co2     1 DTP1301     0.0000 
      4 O3G        38.3730   84.8440  198.6190 O.co2     1 DTP1301     0.0000 
      5 PB         36.6700   87.6110  198.3870 P.3       1 DTP1301     0.0000 
      6 O1B        37.2150   87.4800  197.0250 O.co2     1 DTP1301     0.0000 
      7 O2B        37.3860   88.4350  199.3630 O.co2     1 DTP1301     0.0000 
      8 O3B        36.4350   86.1800  199.0320 O.3       1 DTP1301     0.0000 
      9 PA         34.2060   88.0170  197.0820 P.3       1 DTP1301     0.0000 
     10 O1A        34.8980   87.3460  195.9700 O.co2     1 DTP1301     0.0000 
     11 O2A        32.9240   87.4850  197.5600 O.co2     1 DTP1301     0.0000 
     12 O3A        35.1740   88.1620  198.3420 O.3       1 DTP1301     0.0000 
     13 O5'        34.0130   89.5350  196.7090 O.3       1 DTP1301     0.0000 
     14 C5'        35.0670   90.2230  196.0480 C.3       1 DTP1301     0.0000 
     15 C4'        35.2370   91.6110  196.6600 C.3       1 DTP1301     0.0000 
     16 O4'        33.9520   92.1900  196.9030 O.3       1 DTP1301     0.0000 
     17 C3'        35.8080   91.4910  198.0380 C.3       1 DTP1301     0.0000 
     18 O3'        37.2160   91.3050  197.9610 O.3       1 DTP1301     0.0000 
     19 C2'        35.5130   92.8670  198.5330 C.3       1 DTP1301     0.0000 
     20 C1'        34.1000   93.0690  198.0360 C.3       1 DTP1301     0.0000 
     21 N9         33.1570   92.6270  199.0630 N.pl3     1 DTP1301     0.0000 
     22 C8         32.5080   91.4730  199.0630 C.2       1 DTP1301     0.0000 
     23 N7         31.7600   91.4320  200.1560 N.2       1 DTP1301     0.0000 
     24 C5         31.9480   92.5580  200.8290 C.ar      1 DTP1301     0.0000 
     25 C6         31.4350   92.9910  201.9710 C.ar      1 DTP1301     0.0000 
     26 N6         30.5780   92.1800  202.5710 N.pl3     1 DTP1301     0.0000 
     27 N1         31.7630   94.1770  202.4860 N.ar      1 DTP1301     0.0000 
     28 C2         32.6690   94.9750  201.8020 C.ar      1 DTP1301     0.0000 
     29 N3         33.1930   94.4980  200.6070 N.ar      1 DTP1301     0.0000 
     30 C4         32.8170   93.2990  200.1520 C.ar      1 DTP1301     0.0000 
@<TRIPOS>BOND
     1    1    2 ar   
     2    1    3 ar   
     3    1    4 ar   
     4    1    8 1    
     5    5    6 ar   
     6    5    7 ar   
     7    5    8 1    
     8    5   12 1    
     9    9   10 ar   
    10    9   11 ar   
    11    9   12 1    
    12    9   13 1    
    13   13   14 1    
    14   14   15 1    
    15   15   16 1    
    16   15   17 1    
    17   16   20 1    
    18   17   18 1    
    19   17   19 1    
    20   19   20 1    
    21   20   21 1    
    22   21   22 1    
    23   21   30 1    
    24   22   23 2    
    25   23   24 1    
    26   24   25 ar   
    27   24   30 ar   
    28   25   26 1    
    29   25   27 ar   
    30   27   28 ar   
    31   28   29 ar   
    32   29   30 ar   
@<TRIPOS>SUBSTRUCTURE
     1 DTP1301     1 GROUP   
@<TRIPOS>SET

