#    Name: 6fwk_2_DTP_CAVITY_N1_6
#    Modification time : Fri May 22 19:29:30 2020

@<TRIPOS>MOLECULE
6fwk_2_DTP_CAVITY_N1_6
  102     0     6     0     0
SMALL
NO_CHARGES


@<TRIPOS>ATOM
      1 O          34.0400   81.6200  199.3100 O.2       1 ALA2        0.0000 
      2 O          34.6500   79.6400  199.7500 O.2       1 ALA2        0.0000 
      3 O          33.6700   80.6000  200.3400 O.2       1 ALA2        0.0000 
      4 N          38.1800   83.3000  195.9200 N.am      1 ALA2        0.0000 
      5 N          33.4500   93.6200  197.8700 N.am      1 ALA2        0.0000 
      6 O          35.0500   90.6800  197.7200 O.2       1 ALA2        0.0000 
      7 O          34.0600   91.6400  198.3100 O.2       1 ALA2        0.0000 
      8 O          35.6700   88.7000  198.1600 O.2       1 ALA2        0.0000 
      9 O          34.6800   89.6600  198.7600 O.2       1 ALA2        0.0000 
     10 O          38.2600   84.7900  197.4200 O.2       1 ALA2        0.0000 
     11 O          37.8900   83.7700  198.4600 O.2       1 ALA2        0.0000 
     12 O          37.1100   90.2500  198.0300 O.2       1 ALA2        0.0000 
     13 O          36.1200   91.2100  198.6300 O.2       1 ALA2        0.0000 
     14 O          35.1300   92.1700  199.2200 O.2       1 ALA2        0.0000 
     15 O          34.1400   93.1300  199.8100 O.2       1 ALA2        0.0000 
     16 O          37.7200   88.2700  198.4800 O.2       1 ALA2        0.0000 
     17 O          36.7400   89.2300  199.0700 O.2       1 ALA2        0.0000 
     18 O          36.3700   88.2100  200.1100 O.2       1 ALA2        0.0000 
     19 O          38.9600   84.3100  199.3600 O.2       1 ALA2        0.0000 
     20 OD1        32.3500   83.0700  197.9600 O.co2     2 ASP3        0.0000 
     21 OD1        34.1500   85.6400  196.7900 O.co2     2 ASP3        0.0000 
     22 OD1        33.1700   86.6000  197.3900 O.co2     2 ASP3        0.0000 
     23 OD1        33.7900   84.6200  197.8300 O.co2     2 ASP3        0.0000 
     24 OD1        33.4200   83.6000  198.8700 O.co2     2 ASP3        0.0000 
     25 OD1        32.0600   83.5500  200.5000 O.co2     2 ASP3        0.0000 
     26 OD1        34.6000   88.1600  197.2600 O.co2     2 ASP3        0.0000 
     27 OD1        37.2000   84.2600  196.5100 O.co2     2 ASP3        0.0000 
     28 OD1        35.2200   86.1800  197.7000 O.co2     2 ASP3        0.0000 
     29 OD1        35.8400   84.2000  198.1400 O.co2     2 ASP3        0.0000 
     30 OD1        34.8500   85.1600  198.7400 O.co2     2 ASP3        0.0000 
     31 OD1        36.4600   82.2200  198.5900 O.co2     2 ASP3        0.0000 
     32 OD1        35.4700   83.1800  199.1800 O.co2     2 ASP3        0.0000 
     33 OD1        34.4800   84.1400  199.7700 O.co2     2 ASP3        0.0000 
     34 OD1        36.0900   81.2000  199.6200 O.co2     2 ASP3        0.0000 
     35 OD1        36.6600   87.7400  197.5700 O.co2     2 ASP3        0.0000 
     36 OD1        37.2800   85.7600  198.0100 O.co2     2 ASP3        0.0000 
     37 OD1        36.2900   86.7200  198.6100 O.co2     2 ASP3        0.0000 
     38 OD1        36.9100   84.7400  199.0500 O.co2     2 ASP3        0.0000 
     39 OD1        37.5300   82.7600  199.4900 O.co2     2 ASP3        0.0000 
     40 NZ         33.6300   81.6300  194.8300 N.4       3 LYS4        0.0000 
     41 NZ         34.2400   79.6500  195.2700 N.4       3 LYS4        0.0000 
     42 NZ         33.0900   85.1100  195.8800 N.4       3 LYS4        0.0000 
     43 NZ         35.6800   81.2100  195.1400 N.4       3 LYS4        0.0000 
     44 NZ         34.6900   82.1700  195.7300 N.4       3 LYS4        0.0000 
     45 NZ         33.7100   83.1300  196.3300 N.4       3 LYS4        0.0000 
     46 NZ         36.3000   79.2200  195.5800 N.4       3 LYS4        0.0000 
     47 NZ         35.3100   80.1900  196.1800 N.4       3 LYS4        0.0000 
     48 NZ         34.9400   79.1700  197.2100 N.4       3 LYS4        0.0000 
     49 NZ         37.1200   82.7600  195.0100 N.4       3 LYS4        0.0000 
     50 NZ         37.7400   80.7800  195.4600 N.4       3 LYS4        0.0000 
     51 NZ         36.7500   81.7400  196.0500 N.4       3 LYS4        0.0000 
     52 NZ         35.7600   82.7000  196.6400 N.4       3 LYS4        0.0000 
     53 NZ         34.7700   83.6600  197.2400 N.4       3 LYS4        0.0000 
     54 NZ         37.3700   79.7600  196.4900 N.4       3 LYS4        0.0000 
     55 NZ         36.3800   80.7200  197.0900 N.4       3 LYS4        0.0000 
     56 NZ         37.0000   78.7400  197.5300 N.4       3 LYS4        0.0000 
     57 NZ         35.3400   90.2000  195.1800 N.4       3 LYS4        0.0000 
     58 NZ         34.9700   89.1800  196.2200 N.4       3 LYS4        0.0000 
     59 NZ         37.8200   82.2800  196.9600 N.4       3 LYS4        0.0000 
     60 NZ         37.4500   81.2600  197.9900 N.4       3 LYS4        0.0000 
     61 NZ         38.0600   79.2800  198.4400 N.4       3 LYS4        0.0000 
     62 NZ         36.4100   90.7300  196.0900 N.4       3 LYS4        0.0000 
     63 NZ         36.0400   89.7200  197.1300 N.4       3 LYS4        0.0000 
     64 CZ         30.9900   83.0100  199.5900 C.ar      4 PHE5        0.0000 
     65 CZ         35.7900   92.7200  195.6500 C.ar      4 PHE5        0.0000 
     66 CZ         34.8000   93.6800  196.2400 C.ar      4 PHE5        0.0000 
     67 CZ         35.4200   91.7000  196.6800 C.ar      4 PHE5        0.0000 
     68 CZ         34.4300   92.6600  197.2800 C.ar      4 PHE5        0.0000 
     69 CZ         36.4900   92.2300  197.5900 C.ar      4 PHE5        0.0000 
     70 CZ         35.5000   93.1900  198.1800 C.ar      4 PHE5        0.0000 
     71 CZ         34.5100   94.1500  198.7800 C.ar      4 PHE5        0.0000 
     72 CA         31.6100   81.0300  200.0300 C.3       5 GLY6        0.0000 
     73 CA         33.0500   82.5800  199.9000 C.3       5 GLY6        0.0000 
     74 CA         33.7400   93.1400  195.3300 C.3       5 GLY6        0.0000 
     75 CA         34.3500   91.1600  195.7800 C.3       5 GLY6        0.0000 
     76 CA         33.3700   92.1200  196.3700 C.3       5 GLY6        0.0000 
     77 CA         33.9800   90.1400  196.8100 C.3       5 GLY6        0.0000 
     78 CA         33.0000   91.1000  197.4100 C.3       5 GLY6        0.0000 
     79 CA         33.6200   89.1200  197.8500 C.3       5 GLY6        0.0000 
     80 CA         32.6300   90.0800  198.4400 C.3       5 GLY6        0.0000 
     81 CA         37.0800   80.2400  199.0300 C.3       5 GLY6        0.0000 
     82 CA         35.3000   87.6800  199.2000 C.3       5 GLY6        0.0000 
     83 CA         38.8800   82.8100  197.8600 C.3       5 GLY6        0.0000 
     84 CA         35.9200   85.7000  199.6400 C.3       5 GLY6        0.0000 
     85 CA         38.5100   81.7900  198.9000 C.3       5 GLY6        0.0000 
     86 CA         37.3600   87.2500  199.5100 C.3       5 GLY6        0.0000 
     87 DU         33.2600   80.6100  195.8600 H         6 CUB7        0.0000 
     88 DU         32.2700   81.5700  196.4600 H         6 CUB7        0.0000 
     89 DU         32.8900   79.5900  196.9000 H         6 CUB7        0.0000 
     90 DU         31.9000   80.5500  197.4900 H         6 CUB7        0.0000 
     91 DU         34.3200   81.1500  196.7700 H         6 CUB7        0.0000 
     92 DU         33.3400   82.1100  197.3600 H         6 CUB7        0.0000 
     93 DU         33.9600   80.1300  197.8100 H         6 CUB7        0.0000 
     94 DU         32.9700   81.0900  198.4000 H         6 CUB7        0.0000 
     95 DU         31.9800   82.0500  198.9900 H         6 CUB7        0.0000 
     96 DU         33.5900   79.1100  198.8400 H         6 CUB7        0.0000 
     97 DU         32.6000   80.0700  199.4400 H         6 CUB7        0.0000 
     98 DU         35.3900   81.6800  197.6800 H         6 CUB7        0.0000 
     99 DU         34.4000   82.6400  198.2700 H         6 CUB7        0.0000 
    100 DU         36.0100   79.7000  198.1200 H         6 CUB7        0.0000 
    101 DU         35.0200   80.6600  198.7200 H         6 CUB7        0.0000 
    102 DU         36.8300   83.2400  197.5500 H         6 CUB7        0.0000 
@<TRIPOS>BOND
@<TRIPOS>SUBSTRUCTURE
     1 ALA2        1 GROUP   
     2 ASP3       20 GROUP   
     3 LYS4       40 GROUP   
     4 PHE5       64 GROUP   
     5 GLY6       72 GROUP   
     6 CUB7       87 GROUP   
@<TRIPOS>SET

