#    Name: 6o04_1_DNA_CAVITY_N1_6
#    Modification time : Fri May 22 19:28:24 2020

@<TRIPOS>MOLECULE
6o04_1_DNA_CAVITY_N1_6
   82     0     6     0     0
SMALL
NO_CHARGES


@<TRIPOS>ATOM
      1 N          -4.5100    6.2000   10.5300 N.am      1 ALA2        0.0000 
      2 N          -3.5300    5.9100    9.4300 N.am      1 ALA2        0.0000 
      3 N          -3.8000    7.2600    8.8300 N.am      1 ALA2        0.0000 
      4 N           0.3100    9.8300    1.5500 N.am      1 ALA2        0.0000 
      5 N          -4.3900    7.0900   12.4500 N.am      1 ALA2        0.0000 
      6 N           1.4100   10.4200    2.3800 N.am      1 ALA2        0.0000 
      7 O          -4.0400   14.5800    6.6400 O.2       1 ALA2        0.0000 
      8 N           0.8200   10.2500    6.0000 N.am      1 ALA2        0.0000 
      9 N           1.8000    9.9600    4.9100 N.am      1 ALA2        0.0000 
     10 N           2.7800    9.6700    3.8100 N.am      1 ALA2        0.0000 
     11 O           1.5300   11.3100    4.3000 O.2       1 ALA2        0.0000 
     12 N          -1.2100    7.9800   13.0200 N.am      1 ALA2        0.0000 
     13 O          -0.5000    9.0400   11.3200 O.2       1 ALA2        0.0000 
     14 O           0.2200   10.0900    9.6200 O.2       1 ALA2        0.0000 
     15 N          -0.0500   11.4300    9.0200 N.am      1 ALA2        0.0000 
     16 N           0.9300   11.1400    7.9200 N.am      1 ALA2        0.0000 
     17 N           1.9200   10.8500    6.8300 N.am      1 ALA2        0.0000 
     18 N           2.9000   10.5500    5.7300 N.am      1 ALA2        0.0000 
     19 N           3.8800   10.2600    4.6400 N.am      1 ALA2        0.0000 
     20 N          -0.3200   12.7800    8.4100 N.am      1 ALA2        0.0000 
     21 OD1        -2.8100    6.9600    7.7400 O.co2     2 ASP3        0.0000 
     22 OD1        -2.1000    8.0200    6.0400 O.co2     2 ASP3        0.0000 
     23 OD1        -0.1300    7.4300    3.8500 O.co2     2 ASP3        0.0000 
     24 OD1         0.8500    7.1300    2.7600 O.co2     2 ASP3        0.0000 
     25 OD1        -3.1400    5.4500   11.9600 O.co2     2 ASP3        0.0000 
     26 OD1        -1.9800    8.9000    7.9600 O.co2     2 ASP3        0.0000 
     27 OD1        -0.0200    8.3100    5.7700 O.co2     2 ASP3        0.0000 
     28 OD1         0.9700    8.0200    4.6800 O.co2     2 ASP3        0.0000 
     29 OD1         1.9500    7.7300    3.5900 O.co2     2 ASP3        0.0000 
     30 OD1        -2.2500   10.2500    7.3600 O.co2     2 ASP3        0.0000 
     31 OD1        -2.5200   11.5900    6.7500 O.co2     2 ASP3        0.0000 
     32 OD1        -3.7700   13.2300    7.2400 O.co2     2 ASP3        0.0000 
     33 OD1        -2.0400    6.0400   12.7900 O.co2     2 ASP3        0.0000 
     34 OD1        -1.0600    5.7500   11.7000 O.co2     2 ASP3        0.0000 
     35 OD1         2.0700    8.6100    5.5100 O.co2     2 ASP3        0.0000 
     36 OD1        -2.1300   11.1400    9.2800 O.co2     2 ASP3        0.0000 
     37 OD1        -1.1500   10.8400    8.1900 O.co2     2 ASP3        0.0000 
     38 OD1        -2.4000   12.4800    8.6800 O.co2     2 ASP3        0.0000 
     39 OD1        -2.6700   13.8300    8.0700 O.co2     2 ASP3        0.0000 
     40 OD1         3.2900   10.0900    8.2600 O.co2     2 ASP3        0.0000 
     41 OD1         4.2700    9.8000    7.1700 O.co2     2 ASP3        0.0000 
     42 NZ         -2.9400   15.1700    7.4700 N.4       3 LYS4        0.0000 
     43 NZ         -2.2300   16.2300    5.7700 N.4       3 LYS4        0.0000 
     44 CZ         -1.5000    8.1800    2.4200 C.ar      4 PHE5        0.0000 
     45 CZ         -3.0800    8.3100    7.1300 C.ar      4 PHE5        0.0000 
     46 CZ         -1.3900    9.0700    4.3400 C.ar      4 PHE5        0.0000 
     47 CZ         -0.4000    8.7700    3.2500 C.ar      4 PHE5        0.0000 
     48 CZ         -1.2700    9.9500    6.2600 C.ar      4 PHE5        0.0000 
     49 CA         -4.7800    7.5500    9.9200 C.3       5 GLY6        0.0000 
     50 CA         -4.0700    8.6000    8.2300 C.3       5 GLY6        0.0000 
     51 CA         -3.4100    6.8000   11.3600 C.3       5 GLY6        0.0000 
     52 CA         -2.4300    6.5000   10.2600 C.3       5 GLY6        0.0000 
     53 CA         -1.4400    6.2100    9.1700 C.3       5 GLY6        0.0000 
     54 CA         -3.6800    8.1400   10.7500 C.3       5 GLY6        0.0000 
     55 CA         -2.7000    7.8500    9.6600 C.3       5 GLY6        0.0000 
     56 CA         -1.7100    7.5600    8.5700 C.3       5 GLY6        0.0000 
     57 CA         -1.0000    8.6100    6.8700 C.3       5 GLY6        0.0000 
     58 CA         -0.2900    9.6600    5.1700 C.3       5 GLY6        0.0000 
     59 CA         -3.2900    7.6800   13.2800 C.3       5 GLY6        0.0000 
     60 CA         -2.3100    7.3900   12.1900 C.3       5 GLY6        0.0000 
     61 CA         -1.3300    7.1000   11.0900 C.3       5 GLY6        0.0000 
     62 CA         -2.5800    8.7400   11.5800 C.3       5 GLY6        0.0000 
     63 CA         -1.8700    9.7900    9.8800 C.3       5 GLY6        0.0000 
     64 CA         -0.8800    9.4900    8.7900 C.3       5 GLY6        0.0000 
     65 CA          0.1000    9.2000    7.7000 C.3       5 GLY6        0.0000 
     66 CA          1.0800    8.9100    6.6000 C.3       5 GLY6        0.0000 
     67 CA         -0.1700   10.5500    7.0900 C.3       5 GLY6        0.0000 
     68 CA         -1.4200   12.1900    7.5800 C.3       5 GLY6        0.0000 
     69 CA         -3.6600   14.1200    9.1700 C.3       5 GLY6        0.0000 
     70 CA         -3.9300   15.4700    8.5600 C.3       5 GLY6        0.0000 
     71 CA         -1.9600   14.8800    6.3700 C.3       5 GLY6        0.0000 
     72 CA         -1.4800    9.3300   12.4100 C.3       5 GLY6        0.0000 
     73 CA          3.4400    7.8600    6.9400 C.3       5 GLY6        0.0000 
     74 CA         -0.7700   10.3800   10.7100 C.3       5 GLY6        0.0000 
     75 CA          1.2000    9.7900    8.5300 C.3       5 GLY6        0.0000 
     76 CA          2.1800    9.5000    7.4300 C.3       5 GLY6        0.0000 
     77 DU          0.5800    8.4800    2.1500 H         6 CUB7        0.0000 
     78 DU          0.7000    9.3700    4.0800 H         6 CUB7        0.0000 
     79 DU          1.6800    9.0700    2.9800 H         6 CUB7        0.0000 
     80 DU          3.0500    8.3200    4.4200 H         6 CUB7        0.0000 
     81 DU          3.1700    9.2100    6.3400 H         6 CUB7        0.0000 
     82 DU          4.1500    8.9100    5.2400 H         6 CUB7        0.0000 
@<TRIPOS>BOND
@<TRIPOS>SUBSTRUCTURE
     1 ALA2        1 GROUP   
     2 ASP3       21 GROUP   
     3 LYS4       42 GROUP   
     4 PHE5       44 GROUP   
     5 GLY6       49 GROUP   
     6 CUB7       77 GROUP   
@<TRIPOS>SET

