#    Name: 6o04_6_DNA_CAVITY_N1_8
#    Modification time : Fri May 22 19:30:09 2020

@<TRIPOS>MOLECULE
6o04_6_DNA_CAVITY_N1_8
   50     0     6     0     0
SMALL
NO_CHARGES


@<TRIPOS>ATOM
      1 N           0.9700   -1.6600  -31.8000 N.am      1 ALA2        0.0000 
      2 N           2.0700   -1.0700  -30.9700 N.am      1 ALA2        0.0000 
      3 N           1.8000    0.2700  -31.5700 N.am      1 ALA2        0.0000 
      4 O          -0.3200    3.1000  -28.0600 O.2       1 ALA2        0.0000 
      5 N           2.4000   -4.3900  -23.6100 N.am      1 ALA2        0.0000 
      6 OD1         1.2400   -3.0100  -31.1900 O.co2     2 ASP3        0.0000 
      7 OD1         2.6100   -3.7600  -29.7600 O.co2     2 ASP3        0.0000 
      8 OD1        -0.4900   -0.6500  -25.1600 O.co2     2 ASP3        0.0000 
      9 OD1        -0.7600    0.7000  -25.7600 O.co2     2 ASP3        0.0000 
     10 OD1         0.2200    0.4000  -26.8500 O.co2     2 ASP3        0.0000 
     11 OD1        -0.0500    1.7500  -27.4600 O.co2     2 ASP3        0.0000 
     12 OD1         0.3400    1.2900  -24.9300 O.co2     2 ASP3        0.0000 
     13 OD1         0.0700    2.6400  -25.5400 O.co2     2 ASP3        0.0000 
     14 NZ          1.1500   -2.7500  -23.1200 N.4       3 LYS4        0.0000 
     15 NZ          0.8800   -1.4000  -23.7200 N.4       3 LYS4        0.0000 
     16 CZ          2.3400   -2.4200  -30.3600 C.ar      4 PHE5        0.0000 
     17 CZ          3.3200   -2.7100  -31.4600 C.ar      4 PHE5        0.0000 
     18 CA          3.5900   -4.0600  -30.8500 C.3       5 GLY6        0.0000 
     19 CA          0.1000   -0.4800  -28.7800 C.3       5 GLY6        0.0000 
     20 CA          1.0900   -0.7800  -29.8700 C.3       5 GLY6        0.0000 
     21 CA         -0.1700    0.8600  -29.3800 C.3       5 GLY6        0.0000 
     22 CA          0.8200    0.5700  -30.4800 C.3       5 GLY6        0.0000 
     23 CA         -0.4400    2.2100  -29.9900 C.3       5 GLY6        0.0000 
     24 CA          0.0500   -3.3400  -23.9500 C.3       5 GLY6        0.0000 
     25 CA          1.0300   -3.6400  -25.0400 C.3       5 GLY6        0.0000 
     26 CA          2.0100   -3.9300  -26.1400 C.3       5 GLY6        0.0000 
     27 CA          3.0000   -4.2200  -27.2300 C.3       5 GLY6        0.0000 
     28 CA          3.9800   -4.5200  -28.3200 C.3       5 GLY6        0.0000 
     29 CA          3.7100   -3.1700  -28.9300 C.3       5 GLY6        0.0000 
     30 CA          0.9300    1.4600  -28.5500 C.3       5 GLY6        0.0000 
     31 CA          0.4300   -3.8000  -21.4200 C.3       5 GLY6        0.0000 
     32 CA          1.4200   -4.0900  -22.5100 C.3       5 GLY6        0.0000 
     33 CA          3.1100   -3.3400  -25.3100 C.3       5 GLY6        0.0000 
     34 CA          3.8300   -2.2800  -27.0000 C.3       5 GLY6        0.0000 
     35 DU          1.3600   -2.1200  -29.2700 H         6 CUB7        0.0000 
     36 DU         -0.2200   -2.0000  -24.5500 H         6 CUB7        0.0000 
     37 DU          0.7600   -2.2900  -25.6500 H         6 CUB7        0.0000 
     38 DU          1.7400   -2.5800  -26.7400 H         6 CUB7        0.0000 
     39 DU          2.7300   -2.8800  -27.8300 H         6 CUB7        0.0000 
     40 DU          0.4900   -0.9400  -26.2500 H         6 CUB7        0.0000 
     41 DU          1.4700   -1.2400  -27.3400 H         6 CUB7        0.0000 
     42 DU          3.4400   -1.8200  -29.5300 H         6 CUB7        0.0000 
     43 DU          1.2000    0.1100  -27.9500 H         6 CUB7        0.0000 
     44 DU          2.1900   -0.1800  -29.0400 H         6 CUB7        0.0000 
     45 DU          2.1300   -3.0400  -24.2100 H         6 CUB7        0.0000 
     46 DU          2.8400   -1.9900  -25.9100 H         6 CUB7        0.0000 
     47 DU          0.6100   -0.0600  -24.3300 H         6 CUB7        0.0000 
     48 DU          2.5700   -0.6400  -26.5100 H         6 CUB7        0.0000 
     49 DU          1.3200    1.0000  -26.0300 H         6 CUB7        0.0000 
     50 DU          2.3000    0.7000  -27.1200 H         6 CUB7        0.0000 
@<TRIPOS>BOND
@<TRIPOS>SUBSTRUCTURE
     1 ALA2        1 GROUP   
     2 ASP3        6 GROUP   
     3 LYS4       14 GROUP   
     4 PHE5       16 GROUP   
     5 GLY6       18 GROUP   
     6 CUB7       35 GROUP   
@<TRIPOS>SET

