#    Name: 6o04_1_DNA
#    Modification time : Fri May 22 19:28:23 2020

@<TRIPOS>MOLECULE
6o04_1_DNA
   15    16     1     0     0
SMALL
NO_CHARGES


@<TRIPOS>ATOM
      1 O1A        -3.3000    5.6090   12.4420 O.co2     1 DNA601      0.0000 
      2 O1B        -2.2540    7.3020   13.3510 O.co2     1 DNA601      0.0000 
      3 O1C        -3.3970    6.5940    7.5100 O.3       1 DNA601      0.0000 
      4 O1D        -1.2890    9.2000   12.0100 O.3       1 DNA601      0.0000 
      5 C1E        -1.3070   10.2930    6.9910 C.ar      1 DNA601      0.0000 
      6 C1F        -0.7800   10.9460    8.1080 C.ar      1 DNA601      0.0000 
      7 C1G        -1.9940    9.0880    7.1170 C.ar      1 DNA601      0.0000 
      8 C1H        -0.9190   10.4220    9.3900 C.ar      1 DNA601      0.0000 
      9 C1I        -3.0330    6.6920    9.8620 C.ar      1 DNA601      0.0000 
     10 C1J        -2.7040    6.7000   12.3510 C.2       1 DNA601      0.0000 
     11 C1K        -2.8790    7.2410    8.5880 C.ar      1 DNA601      0.0000 
     12 C1L        -2.5190    7.3180   10.9990 C.ar      1 DNA601      0.0000 
     13 C1M        -1.7840    8.6020   10.8930 C.ar      1 DNA601      0.0000 
     14 C1N        -2.1560    8.5260    8.3800 C.ar      1 DNA601      0.0000 
     15 C1O        -1.5960    9.2230    9.5580 C.ar      1 DNA601      0.0000 
@<TRIPOS>BOND
     1    1   10 ar   
     2    2   10 ar   
     3    3   11 1    
     4    4   13 1    
     5    5    6 ar   
     6    5    7 ar   
     7    6    8 ar   
     8    7   14 ar   
     9    8   15 ar   
    10    9   11 ar   
    11    9   12 ar   
    12   10   12 1    
    13   11   14 ar   
    14   12   13 ar   
    15   13   15 ar   
    16   14   15 ar   
@<TRIPOS>SUBSTRUCTURE
     1 DNA601      1 GROUP   
@<TRIPOS>SET

