#    Name: 6o04_3_TOI
#    Modification time : Fri May 22 19:29:02 2020

@<TRIPOS>MOLECULE
6o04_3_TOI
   49    51     1     0     0
SMALL
NO_CHARGES


@<TRIPOS>ATOM
      1 O2P        27.3600  -17.9680   -7.8370           1 TOI601      0.0000 
      2 C1P        26.9380  -17.4280   -8.8820           1 TOI601      0.0000 
      3 O1P        26.2160  -18.0300   -9.7120           1 TOI601      0.0000 
      4 C2P        27.3000  -16.0240   -9.1580           1 TOI601      0.0000 
      5 C3P        28.0630  -15.3510   -8.3080           1 TOI601      0.0000 
      6 O3P        26.7990  -15.4130  -10.3760           1 TOI601      0.0000 
      7 C5I        27.0930  -14.0250  -10.4530           1 TOI601      0.0000 
      8 C6I        25.8650  -13.3360  -11.0220           1 TOI601      0.0000 
      9 O3I        24.8580  -13.2510  -10.0050           1 TOI601      0.0000 
     10 C1I        26.0970  -11.9400  -11.6050           1 TOI601      0.0000 
     11 CI         25.2960  -11.8740  -12.8690           1 TOI601      0.0000 
     12 O2I        24.2750  -12.5830  -12.9560           1 TOI601      0.0000 
     13 O1I        25.6720  -11.1100  -13.7780           1 TOI601      0.0000 
     14 C4I        28.2300  -13.8320  -11.4110           1 TOI601      0.0000 
     15 C3I        28.5840  -12.5910  -11.6960           1 TOI601      0.0000 
     16 C2I        27.5420  -11.5160  -11.9160           1 TOI601      0.0000 
     17 C21        27.9290  -10.2750  -11.1080           1 TOI601      0.0000 
     18 C3         28.3690  -10.6270   -9.6890           1 TOI601      0.0000 
     19 C41        28.0600   -9.4660   -8.7480           1 TOI601      0.0000 
     20 C51        28.1750   -9.8910   -7.3060           1 TOI601      0.0000 
     21 O3         29.1480   -9.4840   -6.6440           1 TOI601      0.0000 
     22 O4         27.2900  -10.6230   -6.8220           1 TOI601      0.0000 
     23 O5         26.7740   -9.4450  -10.9870           1 TOI601      0.0000 
     24 C2         29.0420   -9.5290  -11.8040           1 TOI601      0.0000 
     25 S1         30.6450   -9.9240  -11.3520           1 TOI601      0.0000 
     26 N3         29.0530   -8.7630  -12.9420           1 TOI601      0.0000 
     27 C35        27.8290   -8.2680  -13.5770           1 TOI601      0.0000 
     28 C5'        27.6100   -6.7800  -13.4250           1 TOI601      0.0000 
     29 C4'        27.4740   -6.1180  -12.1020           1 TOI601      0.0000 
     30 N4'        27.5700   -6.8140  -10.9460           1 TOI601      0.0000 
     31 N3'        27.2600   -4.7870  -12.0700           1 TOI601      0.0000 
     32 C2'        27.1680   -4.0860  -13.2220           1 TOI601      0.0000 
     33 C2A        26.9470   -2.5930  -13.1630           1 TOI601      0.0000 
     34 N1'        27.2690   -4.6890  -14.4190           1 TOI601      0.0000 
     35 C6'        27.4970   -6.0030  -14.5610           1 TOI601      0.0000 
     36 C4         30.3360   -8.5060  -13.4750           1 TOI601      0.0000 
     37 C4A        30.6130   -7.7110  -14.7230           1 TOI601      0.0000 
     38 C5         31.2980   -9.0670  -12.7090           1 TOI601      0.0000 
     39 C5A        32.7820   -9.0090  -12.9960           1 TOI601      0.0000 
     40 C5B        33.5320   -7.9930  -12.1460           1 TOI601      0.0000 
     41 O5G        34.9030   -8.0610  -12.5320           1 TOI601      0.0000 
     42 P1         36.0800   -7.4440  -11.6310           1 TOI601      0.0000 
     43 O13        37.3250   -7.4010  -12.4730           1 TOI601      0.0000 
     44 O12        35.5870   -6.1570  -11.0210           1 TOI601      0.0000 
     45 O11        36.2600   -8.5100  -10.4330           1 TOI601      0.0000 
     46 P2         37.0320   -9.9240  -10.5040           1 TOI601      0.0000 
     47 O23        35.9370  -10.9520  -10.4790           1 TOI601      0.0000 
     48 O21        37.8360   -9.9260  -11.7710           1 TOI601      0.0000 
     49 O22        37.8700   -9.9230   -9.2540           1 TOI601      0.0000 
@<TRIPOS>BOND
     1    1    2 du   
     2    2    3 du   
     3    2    4 du   
     4    4    5 du   
     5    4    6 du   
     6    6    7 du   
     7    7    8 du   
     8    7   14 du   
     9    8    9 du   
    10    8   10 du   
    11   10   11 du   
    12   10   16 du   
    13   11   12 du   
    14   11   13 du   
    15   14   15 du   
    16   15   16 du   
    17   16   17 du   
    18   17   18 du   
    19   17   23 du   
    20   17   24 du   
    21   18   19 du   
    22   19   20 du   
    23   20   21 du   
    24   20   22 du   
    25   24   25 du   
    26   24   26 du   
    27   25   38 du   
    28   26   27 du   
    29   26   36 du   
    30   27   28 du   
    31   28   29 du   
    32   28   35 du   
    33   29   30 du   
    34   29   31 du   
    35   31   32 du   
    36   32   33 du   
    37   32   34 du   
    38   34   35 du   
    39   36   37 du   
    40   36   38 du   
    41   38   39 du   
    42   39   40 du   
    43   40   41 du   
    44   41   42 du   
    45   42   43 du   
    46   42   44 du   
    47   42   45 du   
    48   45   46 du   
    49   46   47 du   
    50   46   48 du   
    51   46   49 du   
@<TRIPOS>SUBSTRUCTURE
     1 TOI601      1 GROUP   
@<TRIPOS>SET

