#    Name: 6o04_5_TOI
#    Modification time : Fri May 22 19:29:42 2020

@<TRIPOS>MOLECULE
6o04_5_TOI
   49    51     1     0     0
SMALL
NO_CHARGES


@<TRIPOS>ATOM
      1 O2P       -15.4390  -17.9370  -23.8090           1 TOI602      0.0000 
      2 C1P       -15.1650  -17.5560  -22.6500           1 TOI602      0.0000 
      3 O1P       -14.3300  -18.1540  -21.9360           1 TOI602      0.0000 
      4 C2P       -15.8400  -16.3570  -22.0870           1 TOI602      0.0000 
      5 C3P       -16.7310  -15.6880  -22.7970           1 TOI602      0.0000 
      6 O3P       -15.4800  -15.9710  -20.7320           1 TOI602      0.0000 
      7 C5I       -15.8450  -14.6660  -20.2930           1 TOI602      0.0000 
      8 C6I       -14.7490  -14.2830  -19.3080           1 TOI602      0.0000 
      9 O3I       -13.5820  -13.8910  -20.0440           1 TOI602      0.0000 
     10 C1I       -15.0770  -13.1730  -18.3120           1 TOI602      0.0000 
     11 CI        -14.2490  -13.4640  -17.0910           1 TOI602      0.0000 
     12 O2I       -13.0840  -13.8920  -17.2510           1 TOI602      0.0000 
     13 O1I       -14.7480  -13.2770  -15.9610           1 TOI602      0.0000 
     14 C4I       -17.1860  -14.7540  -19.6110           1 TOI602      0.0000 
     15 C3I       -17.4470  -14.1020  -18.4800           1 TOI602      0.0000 
     16 C2I       -16.5500  -13.0220  -17.9040           1 TOI602      0.0000 
     17 C21       -17.0590  -11.6050  -18.2150           1 TOI602      0.0000 
     18 C3        -17.5090  -11.4310  -19.6650           1 TOI602      0.0000 
     19 C41       -17.1090  -10.0610  -20.2100           1 TOI602      0.0000 
     20 C51       -17.2760  -10.0020  -21.7130           1 TOI602      0.0000 
     21 O3        -18.2820   -9.4250  -22.1810           1 TOI602      0.0000 
     22 O4        -16.4000  -10.5250  -22.4370           1 TOI602      0.0000 
     23 O5        -15.9440  -10.7330  -18.0210           1 TOI602      0.0000 
     24 C2        -18.2010  -11.2340  -17.2920           1 TOI602      0.0000 
     25 S1        -19.8000  -11.5750  -17.8180           1 TOI602      0.0000 
     26 N3        -18.2050  -11.0870  -15.9230           1 TOI602      0.0000 
     27 C35       -17.0050  -10.7850  -15.1370           1 TOI602      0.0000 
     28 C5'       -16.9560   -9.3290  -14.7190           1 TOI602      0.0000 
     29 C4'       -16.9630   -8.2190  -15.7060           1 TOI602      0.0000 
     30 N4'       -17.0270   -8.4440  -17.0370           1 TOI602      0.0000 
     31 N3'       -16.9100   -6.9540  -15.2490           1 TOI602      0.0000 
     32 C2'       -16.8470   -6.7050  -13.9230           1 TOI602      0.0000 
     33 C2A       -16.7910   -5.2740  -13.4550           1 TOI602      0.0000 
     34 N1'       -16.8360   -7.6970  -13.0190           1 TOI602      0.0000 
     35 C6'       -16.8840   -8.9870  -13.3770           1 TOI602      0.0000 
     36 C4        -19.4580  -11.2590  -15.2940           1 TOI602      0.0000 
     37 C4A       -19.7030  -11.1540  -13.8110           1 TOI602      0.0000 
     38 C5        -20.4280  -11.5200  -16.1990           1 TOI602      0.0000 
     39 C5A       -21.8820  -11.7710  -15.8470           1 TOI602      0.0000 
     40 C5B       -22.8470  -10.7080  -16.3690           1 TOI602      0.0000 
     41 O5G       -24.1840  -11.1230  -16.0680           1 TOI602      0.0000 
     42 P1        -25.4890  -10.4110  -16.6990           1 TOI602      0.0000 
     43 O13       -26.6980  -10.9030  -15.9430           1 TOI602      0.0000 
     44 O12       -25.2440   -8.9220  -16.7640           1 TOI602      0.0000 
     45 O11       -25.5450  -10.9520  -18.2200           1 TOI602      0.0000 
     46 P2        -26.0250  -12.4300  -18.6650           1 TOI602      0.0000 
     47 O23       -24.7920  -13.0510  -19.2720           1 TOI602      0.0000 
     48 O21       -26.4960  -13.1220  -17.4100           1 TOI602      0.0000 
     49 O22       -27.1250  -12.1540  -19.6630           1 TOI602      0.0000 
@<TRIPOS>BOND
     1    1    2 du   
     2    2    3 du   
     3    2    4 du   
     4    4    5 du   
     5    4    6 du   
     6    6    7 du   
     7    7    8 du   
     8    7   14 du   
     9    8    9 du   
    10    8   10 du   
    11   10   11 du   
    12   10   16 du   
    13   11   12 du   
    14   11   13 du   
    15   14   15 du   
    16   15   16 du   
    17   16   17 du   
    18   17   18 du   
    19   17   23 du   
    20   17   24 du   
    21   18   19 du   
    22   19   20 du   
    23   20   21 du   
    24   20   22 du   
    25   24   25 du   
    26   24   26 du   
    27   25   38 du   
    28   26   27 du   
    29   26   36 du   
    30   27   28 du   
    31   28   29 du   
    32   28   35 du   
    33   29   30 du   
    34   29   31 du   
    35   31   32 du   
    36   32   33 du   
    37   32   34 du   
    38   34   35 du   
    39   36   37 du   
    40   36   38 du   
    41   38   39 du   
    42   39   40 du   
    43   40   41 du   
    44   41   42 du   
    45   42   43 du   
    46   42   44 du   
    47   42   45 du   
    48   45   46 du   
    49   46   47 du   
    50   46   48 du   
    51   46   49 du   
@<TRIPOS>SUBSTRUCTURE
     1 TOI602      1 GROUP   
@<TRIPOS>SET

