#    Name: 6o04_2_DNA
#    Modification time : Fri May 22 19:28:48 2020

@<TRIPOS>MOLECULE
6o04_2_DNA
   15    16     1     0     0
SMALL
NO_CHARGES


@<TRIPOS>ATOM
      1 O1A        10.1970   16.1730  -34.4710 O.co2     1 DNA601      0.0000 
      2 O1B        11.9370   14.9110  -34.0550 O.co2     1 DNA601      0.0000 
      3 O1C        11.7090   14.1080  -29.0780 O.3       1 DNA601      0.0000 
      4 O1D         9.3160   17.7420  -32.6230 O.3       1 DNA601      0.0000 
      5 C1E         9.2610   17.2440  -27.5110 C.ar      1 DNA601      0.0000 
      6 C1F         8.6630   18.1520  -28.3880 C.ar      1 DNA601      0.0000 
      7 C1G        10.0660   16.2090  -27.9800 C.ar      1 DNA601      0.0000 
      8 C1H         8.8450   18.0590  -29.7650 C.ar      1 DNA601      0.0000 
      9 C1I        11.3210   14.8820  -31.2980 C.ar      1 DNA601      0.0000 
     10 C1J        10.9770   15.6090  -33.6720 C.2       1 DNA601      0.0000 
     11 C1K        11.1220   14.9970  -29.9210 C.ar      1 DNA601      0.0000 
     12 C1L        10.7410   15.7710  -32.2020 C.ar      1 DNA601      0.0000 
     13 C1M         9.8770   16.8810  -31.7300 C.ar      1 DNA601      0.0000 
     14 C1N        10.2750   16.0790  -29.3500 C.ar      1 DNA601      0.0000 
     15 C1O         9.6380   17.0430  -30.2740 C.ar      1 DNA601      0.0000 
@<TRIPOS>BOND
     1    1   10 ar   
     2    2   10 ar   
     3    3   11 1    
     4    4   13 1    
     5    5    6 ar   
     6    5    7 ar   
     7    6    8 ar   
     8    7   14 ar   
     9    8   15 ar   
    10    9   11 ar   
    11    9   12 ar   
    12   10   12 1    
    13   11   14 ar   
    14   12   13 ar   
    15   13   15 ar   
    16   14   15 ar   
@<TRIPOS>SUBSTRUCTURE
     1 DNA601      1 GROUP   
@<TRIPOS>SET

