#    Name: 6o04_1_DNA_CAVITY_N1_4
#    Modification time : Fri May 22 19:28:24 2020

@<TRIPOS>MOLECULE
6o04_1_DNA_CAVITY_N1_4
   56     0     5     0     0
SMALL
NO_CHARGES


@<TRIPOS>ATOM
      1 N          -4.5100    6.2000   10.5300 N.am      1 ALA2        0.0000 
      2 N          -3.5300    5.9100    9.4300 N.am      1 ALA2        0.0000 
      3 N          -3.8000    7.2600    8.8300 N.am      1 ALA2        0.0000 
      4 N          -4.3900    7.0900   12.4500 N.am      1 ALA2        0.0000 
      5 N           0.8200   10.2500    6.0000 N.am      1 ALA2        0.0000 
      6 N           1.8000    9.9600    4.9100 N.am      1 ALA2        0.0000 
      7 N          -1.2100    7.9800   13.0200 N.am      1 ALA2        0.0000 
      8 O          -0.5000    9.0400   11.3200 O.2       1 ALA2        0.0000 
      9 O           0.2200   10.0900    9.6200 O.2       1 ALA2        0.0000 
     10 N          -0.0500   11.4300    9.0200 N.am      1 ALA2        0.0000 
     11 N           0.9300   11.1400    7.9200 N.am      1 ALA2        0.0000 
     12 N           1.9200   10.8500    6.8300 N.am      1 ALA2        0.0000 
     13 N          -0.3200   12.7800    8.4100 N.am      1 ALA2        0.0000 
     14 OD1        -2.8100    6.9600    7.7400 O.co2     2 ASP3        0.0000 
     15 OD1        -2.1000    8.0200    6.0400 O.co2     2 ASP3        0.0000 
     16 OD1        -3.1400    5.4500   11.9600 O.co2     2 ASP3        0.0000 
     17 OD1        -1.9800    8.9000    7.9600 O.co2     2 ASP3        0.0000 
     18 OD1        -0.0200    8.3100    5.7700 O.co2     2 ASP3        0.0000 
     19 OD1         0.9700    8.0200    4.6800 O.co2     2 ASP3        0.0000 
     20 OD1        -2.2500   10.2500    7.3600 O.co2     2 ASP3        0.0000 
     21 OD1        -2.5200   11.5900    6.7500 O.co2     2 ASP3        0.0000 
     22 OD1        -3.7700   13.2300    7.2400 O.co2     2 ASP3        0.0000 
     23 OD1        -2.0400    6.0400   12.7900 O.co2     2 ASP3        0.0000 
     24 OD1        -1.0600    5.7500   11.7000 O.co2     2 ASP3        0.0000 
     25 OD1        -2.1300   11.1400    9.2800 O.co2     2 ASP3        0.0000 
     26 OD1        -1.1500   10.8400    8.1900 O.co2     2 ASP3        0.0000 
     27 OD1        -2.4000   12.4800    8.6800 O.co2     2 ASP3        0.0000 
     28 OD1        -2.6700   13.8300    8.0700 O.co2     2 ASP3        0.0000 
     29 CZ         -3.0800    8.3100    7.1300 C.ar      3 PHE5        0.0000 
     30 CZ         -1.3900    9.0700    4.3400 C.ar      3 PHE5        0.0000 
     31 CZ         -1.2700    9.9500    6.2600 C.ar      3 PHE5        0.0000 
     32 CA         -4.7800    7.5500    9.9200 C.3       4 GLY6        0.0000 
     33 CA         -4.0700    8.6000    8.2300 C.3       4 GLY6        0.0000 
     34 CA         -3.4100    6.8000   11.3600 C.3       4 GLY6        0.0000 
     35 CA         -2.4300    6.5000   10.2600 C.3       4 GLY6        0.0000 
     36 CA         -1.4400    6.2100    9.1700 C.3       4 GLY6        0.0000 
     37 CA         -3.6800    8.1400   10.7500 C.3       4 GLY6        0.0000 
     38 CA         -2.7000    7.8500    9.6600 C.3       4 GLY6        0.0000 
     39 CA         -1.7100    7.5600    8.5700 C.3       4 GLY6        0.0000 
     40 CA         -1.0000    8.6100    6.8700 C.3       4 GLY6        0.0000 
     41 CA         -0.2900    9.6600    5.1700 C.3       4 GLY6        0.0000 
     42 CA         -3.2900    7.6800   13.2800 C.3       4 GLY6        0.0000 
     43 CA         -2.3100    7.3900   12.1900 C.3       4 GLY6        0.0000 
     44 CA         -1.3300    7.1000   11.0900 C.3       4 GLY6        0.0000 
     45 CA         -2.5800    8.7400   11.5800 C.3       4 GLY6        0.0000 
     46 CA         -1.8700    9.7900    9.8800 C.3       4 GLY6        0.0000 
     47 CA         -0.8800    9.4900    8.7900 C.3       4 GLY6        0.0000 
     48 CA          0.1000    9.2000    7.7000 C.3       4 GLY6        0.0000 
     49 CA          1.0800    8.9100    6.6000 C.3       4 GLY6        0.0000 
     50 CA         -0.1700   10.5500    7.0900 C.3       4 GLY6        0.0000 
     51 CA         -1.4200   12.1900    7.5800 C.3       4 GLY6        0.0000 
     52 CA         -1.4800    9.3300   12.4100 C.3       4 GLY6        0.0000 
     53 CA         -0.7700   10.3800   10.7100 C.3       4 GLY6        0.0000 
     54 CA          1.2000    9.7900    8.5300 C.3       4 GLY6        0.0000 
     55 CA          2.1800    9.5000    7.4300 C.3       4 GLY6        0.0000 
     56 DU          0.7000    9.3700    4.0800 H         5 CUB7        0.0000 
@<TRIPOS>BOND
@<TRIPOS>SUBSTRUCTURE
     1 ALA2        1 GROUP   
     2 ASP3       14 GROUP   
     3 PHE5       29 GROUP   
     4 GLY6       32 GROUP   
     5 CUB7       56 GROUP   
@<TRIPOS>SET

