#    Name: 6o04_6_DNA
#    Modification time : Fri May 22 19:30:07 2020

@<TRIPOS>MOLECULE
6o04_6_DNA
   15    16     1     0     0
SMALL
NO_CHARGES


@<TRIPOS>ATOM
      1 O1A        -7.6280   -2.0520  -33.1380 O.co2     1 DNA603      0.0000 
      2 O1B        -8.7920   -0.6670  -31.9050 O.co2     1 DNA603      0.0000 
      3 O1C        -7.0780   -1.2790  -27.2150 O.3       1 DNA603      0.0000 
      4 O1D        -5.7690   -3.4870  -32.2080 O.3       1 DNA603      0.0000 
      5 C1E        -3.9230   -4.1520  -27.4650 C.ar      1 DNA603      0.0000 
      6 C1F        -3.5920   -4.7040  -28.7050 C.ar      1 DNA603      0.0000 
      7 C1G        -4.9450   -3.2130  -27.3400 C.ar      1 DNA603      0.0000 
      8 C1H        -4.2690   -4.3430  -29.8660 C.ar      1 DNA603      0.0000 
      9 C1I        -7.4420   -1.4410  -29.5670 C.ar      1 DNA603      0.0000 
     10 C1J        -7.9050   -1.5360  -32.0320 C.2       1 DNA603      0.0000 
     11 C1K        -6.7490   -1.8220  -28.4160 C.ar      1 DNA603      0.0000 
     12 C1L        -7.1390   -1.9730  -30.8210 C.ar      1 DNA603      0.0000 
     13 C1M        -6.0570   -2.9740  -30.9800 C.ar      1 DNA603      0.0000 
     14 C1N        -5.6470   -2.8210  -28.4760 C.ar      1 DNA603      0.0000 
     15 C1O        -5.2920   -3.4100  -29.7850 C.ar      1 DNA603      0.0000 
@<TRIPOS>BOND
     1    1   10 ar   
     2    2   10 ar   
     3    3   11 1    
     4    4   13 1    
     5    5    6 ar   
     6    5    7 ar   
     7    6    8 ar   
     8    7   14 ar   
     9    8   15 ar   
    10    9   11 ar   
    11    9   12 ar   
    12   10   12 1    
    13   11   14 ar   
    14   12   13 ar   
    15   13   15 ar   
    16   14   15 ar   
@<TRIPOS>SUBSTRUCTURE
     1 DNA603      1 GROUP   
@<TRIPOS>SET

