#    Name: 6o04_4_DNA
#    Modification time : Fri May 22 19:29:29 2020

@<TRIPOS>MOLECULE
6o04_4_DNA
   15    16     1     0     0
SMALL
NO_CHARGES


@<TRIPOS>ATOM
      1 O1A        18.5460   -5.4170    5.3230 O.co2     1 DNA603      0.0000 
      2 O1B        17.6810   -7.2870    6.0570 O.co2     1 DNA603      0.0000 
      3 O1C        16.7760   -4.8600    0.6480 O.3       1 DNA603      0.0000 
      4 O1D        16.0110   -8.6390    4.7260 O.3       1 DNA603      0.0000 
      5 C1E        14.1000   -8.1300   -0.0090 C.ar      1 DNA603      0.0000 
      6 C1F        13.9060   -9.0740    1.0020 C.ar      1 DNA603      0.0000 
      7 C1G        14.9630   -7.0520    0.1640 C.ar      1 DNA603      0.0000 
      8 C1H        14.5660   -8.9750    2.2230 C.ar      1 DNA603      0.0000 
      9 C1I        17.2530   -5.6600    2.8430 C.ar      1 DNA603      0.0000 
     10 C1J        17.8200   -6.4180    5.1680 C.2       1 DNA603      0.0000 
     11 C1K        16.5800   -5.7830    1.6250 C.ar      1 DNA603      0.0000 
     12 C1L        17.0830   -6.5850    3.8740 C.ar      1 DNA603      0.0000 
     13 C1M        16.1700   -7.7440    3.7140 C.ar      1 DNA603      0.0000 
     14 C1N        15.6430   -6.9130    1.3700 C.ar      1 DNA603      0.0000 
     15 C1O        15.4340   -7.9150    2.4370 C.ar      1 DNA603      0.0000 
@<TRIPOS>BOND
     1    1   10 ar   
     2    2   10 ar   
     3    3   11 1    
     4    4   13 1    
     5    5    6 ar   
     6    5    7 ar   
     7    6    8 ar   
     8    7   14 ar   
     9    8   15 ar   
    10    9   11 ar   
    11    9   12 ar   
    12   10   12 1    
    13   11   14 ar   
    14   12   13 ar   
    15   13   15 ar   
    16   14   15 ar   
@<TRIPOS>SUBSTRUCTURE
     1 DNA603      1 GROUP   
@<TRIPOS>SET

