#    Name: 6o04_4_DNA_CAVITY_N1_8
#    Modification time : Fri May 22 19:29:31 2020

@<TRIPOS>MOLECULE
6o04_4_DNA_CAVITY_N1_8
   52     0     6     0     0
SMALL
NO_CHARGES


@<TRIPOS>ATOM
      1 N           8.5800   -6.9100    5.2500 N.am      1 ALA2        0.0000 
      2 N           8.3100   -5.5700    4.6500 N.am      1 ALA2        0.0000 
      3 OD1         7.3600   -8.3900    2.5000 O.co2     2 ASP3        0.0000 
      4 OD1         9.4700   -2.1100    0.6500 O.co2     2 ASP3        0.0000 
      5 OD1        10.4500   -2.4100   -0.4500 O.co2     2 ASP3        0.0000 
      6 OD1         9.8600   -2.5700    3.1700 O.co2     2 ASP3        0.0000 
      7 OD1        10.5700   -1.5200    1.4800 O.co2     2 ASP3        0.0000 
      8 OD1        10.3000   -0.1800    0.8700 O.co2     2 ASP3        0.0000 
      9 NZ          9.3900   -6.1200   -4.5200 N.4       3 LYS4        0.0000 
     10 NZ          9.1200   -4.7700   -5.1200 N.4       3 LYS4        0.0000 
     11 NZ          9.5100   -5.2300   -2.6000 N.4       3 LYS4        0.0000 
     12 NZ          9.2400   -3.8900   -3.2000 N.4       3 LYS4        0.0000 
     13 CZ          6.6500   -9.4400    4.2000 C.ar      4 PHE5        0.0000 
     14 CZ          7.4800   -7.5000    4.4200 C.ar      4 PHE5        0.0000 
     15 CA          6.1500   -9.8700   -0.2500 C.3       5 GLY6        0.0000 
     16 CA          6.8600   -8.8200   -1.9500 C.3       5 GLY6        0.0000 
     17 CA          7.8400   -9.1100   -3.0500 C.3       5 GLY6        0.0000 
     18 CA          6.5900   -7.4700   -2.5600 C.3       5 GLY6        0.0000 
     19 CA          7.5700   -7.7700   -3.6500 C.3       5 GLY6        0.0000 
     20 CA          6.2600   -8.9800    1.6700 C.3       5 GLY6        0.0000 
     21 CA          7.2500   -9.2800    0.5700 C.3       5 GLY6        0.0000 
     22 CA          6.9800   -7.9300   -0.0300 C.3       5 GLY6        0.0000 
     23 CA          7.9600   -8.2300   -1.1200 C.3       5 GLY6        0.0000 
     24 CA          6.7100   -6.5900   -0.6300 C.3       5 GLY6        0.0000 
     25 CA          8.6700   -7.1700   -2.8200 C.3       5 GLY6        0.0000 
     26 CA          9.6600   -7.4700   -3.9200 C.3       5 GLY6        0.0000 
     27 CA          9.2900   -5.8600    3.5500 C.3       5 GLY6        0.0000 
     28 CA          9.0300   -4.5100    2.9500 C.3       5 GLY6        0.0000 
     29 CA         10.0100   -4.8100    1.8600 C.3       5 GLY6        0.0000 
     30 CA          9.4100   -4.9700    5.4800 C.3       5 GLY6        0.0000 
     31 CA          9.1400   -3.6300    4.8700 C.3       5 GLY6        0.0000 
     32 DU          7.6900   -6.8800   -1.7300 H         6 CUB7        0.0000 
     33 DU          7.4200   -5.5300   -2.3300 H         6 CUB7        0.0000 
     34 DU          8.4000   -5.8300   -3.4300 H         6 CUB7        0.0000 
     35 DU          7.0900   -7.0400    1.8900 H         6 CUB7        0.0000 
     36 DU          8.0800   -7.3400    0.8000 H         6 CUB7        0.0000 
     37 DU          6.8200   -5.7000    1.2900 H         6 CUB7        0.0000 
     38 DU          7.8100   -5.9900    0.2000 H         6 CUB7        0.0000 
     39 DU          8.7900   -6.2900   -0.9000 H         6 CUB7        0.0000 
     40 DU          7.5400   -4.6500   -0.4100 H         6 CUB7        0.0000 
     41 DU          8.5200   -4.9400   -1.5000 H         6 CUB7        0.0000 
     42 DU          8.2500   -3.5900   -2.1100 H         6 CUB7        0.0000 
     43 DU          7.2100   -6.1600    3.8200 H         6 CUB7        0.0000 
     44 DU          8.1900   -6.4500    2.7200 H         6 CUB7        0.0000 
     45 DU          7.9200   -5.1100    2.1200 H         6 CUB7        0.0000 
     46 DU          8.9100   -5.4000    1.0300 H         6 CUB7        0.0000 
     47 DU          7.6600   -3.7600    1.5200 H         6 CUB7        0.0000 
     48 DU          8.6400   -4.0500    0.4200 H         6 CUB7        0.0000 
     49 DU          9.6200   -4.3500   -0.6700 H         6 CUB7        0.0000 
     50 DU          8.3700   -2.7100   -0.1800 H         6 CUB7        0.0000 
     51 DU          9.3500   -3.0000   -1.2800 H         6 CUB7        0.0000 
     52 DU          8.7600   -3.1700    2.3500 H         6 CUB7        0.0000 
@<TRIPOS>BOND
@<TRIPOS>SUBSTRUCTURE
     1 ALA2        1 GROUP   
     2 ASP3        3 GROUP   
     3 LYS4        9 GROUP   
     4 PHE5       13 GROUP   
     5 GLY6       15 GROUP   
     6 CUB7       32 GROUP   
@<TRIPOS>SET

