#    Name: 6o04_5_TOI_CAVITY_N1_ALL
#    Modification time : Fri May 22 19:29:45 2020

@<TRIPOS>MOLECULE
6o04_5_TOI_CAVITY_N1_ALL
  100     0     7     0     0
SMALL
NO_CHARGES


@<TRIPOS>ATOM
      1 OG        -21.6800  -11.1300  -16.7000 O.3       1 SER1        0.0000 
      2 OG        -20.6900  -11.4200  -17.8000 O.3       1 SER1        0.0000 
      3 O         -19.0000  -10.6600  -20.5900 O.2       2 ALA2        0.0000 
      4 N         -16.3700  -13.0600  -19.6400 N.am      2 ALA2        0.0000 
      5 O         -15.3900  -13.3500  -20.7400 O.2       2 ALA2        0.0000 
      6 O         -14.4100  -13.6400  -21.8300 O.2       2 ALA2        0.0000 
      7 O         -13.4200  -13.9400  -22.9200 O.2       2 ALA2        0.0000 
      8 O         -12.4400  -14.2300  -24.0200 O.2       2 ALA2        0.0000 
      9 N         -17.6300  -11.4100  -19.1500 N.am      2 ALA2        0.0000 
     10 N         -16.6400  -11.7100  -20.2500 N.am      2 ALA2        0.0000 
     11 O         -15.6600  -12.0000  -21.3400 O.2       2 ALA2        0.0000 
     12 N         -17.9000  -10.0700  -19.7600 N.am      2 ALA2        0.0000 
     13 N         -16.9100  -10.3600  -20.8500 N.am      2 ALA2        0.0000 
     14 O         -15.9900  -13.5100  -17.1200 O.2       2 ALA2        0.0000 
     15 N         -19.2100  -11.2900  -14.4400 N.am      2 ALA2        0.0000 
     16 N         -16.2600  -12.1700  -17.7200 N.am      2 ALA2        0.0000 
     17 N         -15.2700  -12.4600  -18.8100 N.am      2 ALA2        0.0000 
     18 N         -16.5300  -10.8200  -18.3200 N.am      2 ALA2        0.0000 
     19 N         -17.7800   -9.1800  -17.8300 N.am      2 ALA2        0.0000 
     20 N         -16.8000   -9.4800  -18.9300 N.am      2 ALA2        0.0000 
     21 N         -18.1100  -10.6900  -13.6100 N.am      2 ALA2        0.0000 
     22 N         -17.1200  -10.9900  -14.7000 N.am      2 ALA2        0.0000 
     23 O         -16.1400  -11.2800  -15.8000 O.2       2 ALA2        0.0000 
     24 O         -16.4100   -9.9400  -16.4000 O.2       2 ALA2        0.0000 
     25 N         -16.6800   -8.5900  -17.0000 N.am      2 ALA2        0.0000 
     26 O         -15.3100   -9.3400  -15.5700 O.2       2 ALA2        0.0000 
     27 O         -16.5600   -7.7000  -15.0800 O.2       2 ALA2        0.0000 
     28 O         -15.5800   -8.0000  -16.1700 O.2       2 ALA2        0.0000 
     29 OD1       -17.7100  -15.4200  -24.3200 O.co2     3 ASP3        0.0000 
     30 OD1       -15.0800  -17.8100  -23.3800 O.co2     3 ASP3        0.0000 
     31 OD1       -16.3400  -16.1700  -22.8900 O.co2     3 ASP3        0.0000 
     32 OD1       -17.5900  -14.5300  -22.4000 O.co2     3 ASP3        0.0000 
     33 OD1       -12.7300  -18.8600  -23.0400 O.co2     3 ASP3        0.0000 
     34 OD1       -13.9800  -17.2200  -22.5500 O.co2     3 ASP3        0.0000 
     35 OD1       -13.0000  -17.5200  -23.6400 O.co2     3 ASP3        0.0000 
     36 OD1       -16.4900  -13.9400  -21.5700 O.co2     3 ASP3        0.0000 
     37 OD1       -15.5100  -14.2400  -22.6600 O.co2     3 ASP3        0.0000 
     38 OD1       -17.7400  -12.3000  -21.0800 O.co2     3 ASP3        0.0000 
     39 OD1       -14.1400  -14.9900  -21.2300 O.co2     3 ASP3        0.0000 
     40 OD1       -13.1500  -15.2800  -22.3200 O.co2     3 ASP3        0.0000 
     41 OD1       -10.8000  -16.3300  -21.9800 O.co2     3 ASP3        0.0000 
     42 OD1        -9.8200  -16.6200  -23.0700 O.co2     3 ASP3        0.0000 
     43 OD1       -14.0200  -14.1000  -19.3000 O.co2     3 ASP3        0.0000 
     44 OD1       -11.0700  -14.9800  -22.5800 O.co2     3 ASP3        0.0000 
     45 NZ        -11.6300  -18.2700  -22.2100 N.4       4 LYS4        0.0000 
     46 NZ        -10.6500  -18.5600  -23.3000 N.4       4 LYS4        0.0000 
     47 NZ        -17.2800   -8.7500  -13.3800 N.4       4 LYS4        0.0000 
     48 CZ        -21.4100  -12.4700  -16.1000 C.ar      5 PHE5        0.0000 
     49 CZ        -17.0900  -14.1100  -17.9400 C.ar      5 PHE5        0.0000 
     50 CZ        -20.3100  -11.8800  -15.2700 C.ar      5 PHE5        0.0000 
     51 CZ        -19.3200  -12.1700  -16.3600 C.ar      5 PHE5        0.0000 
     52 CZ        -18.3400  -12.4700  -17.4600 C.ar      5 PHE5        0.0000 
     53 CZ        -16.9700  -13.2200  -16.0200 C.ar      5 PHE5        0.0000 
     54 CZ        -18.2200  -11.5800  -15.5300 C.ar      5 PHE5        0.0000 
     55 CZ        -17.2400  -11.8700  -16.6300 C.ar      5 PHE5        0.0000 
     56 CA        -18.4200  -16.4700  -22.6200 C.3       6 GLY6        0.0000 
     57 CA        -16.0700  -17.5200  -22.2800 C.3       6 GLY6        0.0000 
     58 CA        -18.3000  -15.5900  -20.7000 C.3       6 GLY6        0.0000 
     59 CA        -17.3200  -15.8800  -21.7900 C.3       6 GLY6        0.0000 
     60 CA        -15.9500  -16.6300  -20.3600 C.3       6 GLY6        0.0000 
     61 CA        -14.9700  -16.9300  -21.4500 C.3       6 GLY6        0.0000 
     62 CA        -18.1900  -14.7000  -18.7700 C.3       6 GLY6        0.0000 
     63 CA        -17.2000  -14.9900  -19.8700 C.3       6 GLY6        0.0000 
     64 CA        -16.2200  -15.2900  -20.9600 C.3       6 GLY6        0.0000 
     65 CA        -20.4200  -12.7700  -17.1900 C.3       6 GLY6        0.0000 
     66 CA        -19.4400  -13.0600  -18.2800 C.3       6 GLY6        0.0000 
     67 CA        -18.4600  -13.3500  -19.3800 C.3       6 GLY6        0.0000 
     68 CA        -17.4700  -13.6500  -20.4700 C.3       6 GLY6        0.0000 
     69 CA        -18.7300  -12.0100  -19.9800 C.3       6 GLY6        0.0000 
     70 CA        -15.8300  -15.7500  -18.4300 C.3       6 GLY6        0.0000 
     71 CA        -14.8500  -16.0400  -19.5300 C.3       6 GLY6        0.0000 
     72 CA        -16.1000  -14.4000  -19.0400 C.3       6 GLY6        0.0000 
     73 CA        -21.2900  -11.5900  -14.1700 C.3       6 GLY6        0.0000 
     74 CA        -21.5600  -10.2400  -14.7800 C.3       6 GLY6        0.0000 
     75 CA        -20.5800  -10.5300  -15.8700 C.3       6 GLY6        0.0000 
     76 CA        -19.5900  -10.8300  -16.9700 C.3       6 GLY6        0.0000 
     77 CA        -18.8800   -9.7700  -18.6600 C.3       6 GLY6        0.0000 
     78 CA        -15.0000  -13.8100  -18.2100 C.3       6 GLY6        0.0000 
     79 CA        -19.4800   -9.9400  -15.0400 C.3       6 GLY6        0.0000 
     80 CA        -18.4900  -10.2300  -16.1400 C.3       6 GLY6        0.0000 
     81 CA        -18.3800   -9.3500  -14.2100 C.3       6 GLY6        0.0000 
     82 CA        -17.6600   -8.3000  -15.9100 C.3       6 GLY6        0.0000 
     83 CA        -16.2900   -9.0500  -14.4800 C.3       6 GLY6        0.0000 
     84 CA        -17.5500   -7.4100  -13.9900 C.3       6 GLY6        0.0000 
     85 DU        -15.2400  -15.5800  -22.0600 H         7 CUB7        0.0000 
     86 DU        -14.2500  -15.8800  -23.1500 H         7 CUB7        0.0000 
     87 DU        -13.2700  -16.1700  -24.2400 H         7 CUB7        0.0000 
     88 DU        -12.2900  -16.4600  -25.3400 H         7 CUB7        0.0000 
     89 DU        -13.8700  -16.3400  -20.6200 H         7 CUB7        0.0000 
     90 DU        -12.8800  -16.6300  -21.7200 H         7 CUB7        0.0000 
     91 DU        -11.9000  -16.9200  -22.8100 H         7 CUB7        0.0000 
     92 DU        -10.9200  -17.2200  -23.9000 H         7 CUB7        0.0000 
     93 DU        -15.1200  -14.7000  -20.1300 H         7 CUB7        0.0000 
     94 DU        -12.1700  -15.5800  -23.4100 H         7 CUB7        0.0000 
     95 DU        -17.3600  -12.7600  -18.5500 H         7 CUB7        0.0000 
     96 DU        -11.4600  -14.5200  -25.1100 H         7 CUB7        0.0000 
     97 DU        -18.6100  -11.1200  -18.0600 H         7 CUB7        0.0000 
     98 DU        -10.0900  -15.2800  -23.6800 H         7 CUB7        0.0000 
     99 DU        -17.5100  -10.5300  -17.2300 H         7 CUB7        0.0000 
    100 DU        -17.3900   -9.6400  -15.3100 H         7 CUB7        0.0000 
@<TRIPOS>BOND
@<TRIPOS>SUBSTRUCTURE
     1 SER1        1 GROUP   
     2 ALA2        3 GROUP   
     3 ASP3       29 GROUP   
     4 LYS4       45 GROUP   
     5 PHE5       48 GROUP   
     6 GLY6       56 GROUP   
     7 CUB7       85 GROUP   
@<TRIPOS>SET

