#    Name: 6c83_2_ACP
#    Modification time : Fri May 22 19:42:53 2020

@<TRIPOS>MOLECULE
6c83_2_ACP
   31    33     1     0     1
SMALL
NO_CHARGES


@<TRIPOS>ATOM
      1 PG          7.0960   12.4430   15.4760 P.3       1 ACP501      0.0000 
      2 O1G         6.9540   13.5380   14.4700 O.co2     1 ACP501      0.0000 
      3 O2G         7.2040   11.1160   14.7600 O.co2     1 ACP501      0.0000 
      4 O3G         5.8860   12.4160   16.3910 O.co2     1 ACP501      0.0000 
      5 PB          8.4350   14.2830   17.5120 P.3       1 ACP501      0.0000 
      6 O1B         9.7760   14.9130   17.7260 O.co2     1 ACP501      0.0000 
      7 O2B         7.8320   13.9400   18.8420 O.co2     1 ACP501      0.0000 
      8 C3B         8.6390   12.7360   16.5010 C.3       1 ACP501      0.0000 
      9 PA          5.8310   15.5310   16.9950 P.3       1 ACP501      0.0000 
     10 O1A         5.0250   14.9810   15.8310 O.co2     1 ACP501      0.0000 
     11 O2A         5.4380   14.8170   18.2760 O.co2     1 ACP501      0.0000 
     12 O3A         7.4520   15.3450   16.7130 O.3       1 ACP501      0.0000 
     13 O5'         5.5040   17.1850   17.1420 O.3       1 ACP501      0.0000 
     14 C5'         5.8040   17.9960   16.0270 C.3       1 ACP501      0.0000 
     15 C4'         4.5620   18.0540   15.0530 C.3       1 ACP501      0.0000 
     16 O4'         3.3000   18.5820   15.7830 O.3       1 ACP501      0.0000 
     17 C3'         4.7980   18.8720   14.1140 C.3       1 ACP501      0.0000 
     18 O3'         4.5600   18.2220   12.8490 O.3       1 ACP501      0.0000 
     19 C2'         3.7850   20.1680   14.2840 C.3       1 ACP501      0.0000 
     20 O2'         2.7650   20.1230   13.2350 O.3       1 ACP501      0.0000 
     21 C1'         3.2210   20.0800   15.4230 C.3       1 ACP501      0.0000 
     22 N9          3.9230   20.8880   16.4850 N.pl3     1 ACP501      0.0000 
     23 C8          4.7870   20.6920   17.5010 C.2       1 ACP501      0.0000 
     24 N7          5.0200   21.8590   18.0910 N.2       1 ACP501      0.0000 
     25 C5          4.2950   22.7940   17.4520 C.ar      1 ACP501      0.0000 
     26 C6          4.1720   24.1520   17.6620 C.ar      1 ACP501      0.0000 
     27 N6          4.6790   25.1920   18.5560 N.pl3     1 ACP501      0.0000 
     28 N1          3.3800   24.8750   16.8840 N.ar      1 ACP501      0.0000 
     29 C2          2.6880   24.2750   15.8780 C.ar      1 ACP501      0.0000 
     30 N3          2.8070   22.9410   15.6720 N.ar      1 ACP501      0.0000 
     31 C4          3.6150   22.1980   16.4630 C.ar      1 ACP501      0.0000 
@<TRIPOS>BOND
     1    1    2 ar   
     2    1    3 ar   
     3    1    4 ar   
     4    1    8 1    
     5    5    6 ar   
     6    5    7 ar   
     7    5    8 1    
     8    5   12 1    
     9    9   10 ar   
    10    9   11 ar   
    11    9   12 1    
    12    9   13 1    
    13   13   14 1    
    14   14   15 1    
    15   15   16 1    
    16   15   17 1    
    17   16   21 1    
    18   17   18 1    
    19   17   19 1    
    20   19   20 1    
    21   19   21 1    
    22   21   22 1    
    23   22   23 1    
    24   22   31 1    
    25   23   24 2    
    26   24   25 1    
    27   25   26 ar   
    28   25   31 ar   
    29   26   27 1    
    30   26   28 ar   
    31   28   29 ar   
    32   29   30 ar   
    33   30   31 ar   
@<TRIPOS>SUBSTRUCTURE
     1 ACP501      1 GROUP   
@<TRIPOS>SET
ATOM$ORANGE STATIC     ATOMS   COLORGROUP SYSTEM 
22 8 8 14 14 15 15 17 17 19 19 21 21 23 23 25 25 26 \
26 29 29 31 31 

