#    Name: 6c83_1_ACP
#    Modification time : Fri May 22 19:42:51 2020

@<TRIPOS>MOLECULE
6c83_1_ACP
   31    33     1     0     1
SMALL
NO_CHARGES


@<TRIPOS>ATOM
      1 PG         18.9800   -5.1770   32.5100 P.3       1 ACP501      0.0000 
      2 O1G        17.6230   -5.6870   32.0780 O.co2     1 ACP501      0.0000 
      3 O2G        18.9280   -4.7900   33.9510 O.co2     1 ACP501      0.0000 
      4 O3G        20.0150   -6.2690   32.3190 O.co2     1 ACP501      0.0000 
      5 PB         19.5490   -4.1730   29.6870 P.3       1 ACP501      0.0000 
      6 O1B        20.1880   -3.0710   28.9020 O.co2     1 ACP501      0.0000 
      7 O2B        18.1650   -4.4190   29.1650 O.co2     1 ACP501      0.0000 
      8 C3B        19.4450   -3.6810   31.4770 C.3       1 ACP501      0.0000 
      9 PA         20.0500   -6.9130   28.7380 P.3       1 ACP501      0.0000 
     10 O1A        18.9450   -6.6170   27.7380 O.co2     1 ACP501      0.0000 
     11 O2A        21.2620   -7.4360   27.9880 O.co2     1 ACP501      0.0000 
     12 O3A        20.4680   -5.5430   29.5650 O.3       1 ACP501      0.0000 
     13 O5'        19.5110   -8.0780   29.8470 O.3       1 ACP501      0.0000 
     14 C5'        19.7290   -9.4420   29.5560 C.3       1 ACP501      0.0000 
     15 C4'        20.1610  -10.1930   30.8770 C.3       1 ACP501      0.0000 
     16 O4'        20.7780  -11.5690   30.5150 O.3       1 ACP501      0.0000 
     17 C3'        21.0640   -9.5280   31.4750 C.3       1 ACP501      0.0000 
     18 O3'        20.5520   -9.0220   32.7250 O.3       1 ACP501      0.0000 
     19 C2'        22.3320  -10.5490   31.7580 C.3       1 ACP501      0.0000 
     20 O2'        22.2010  -11.1560   33.0840 O.3       1 ACP501      0.0000 
     21 C1'        22.2750  -11.4470   30.8620 C.3       1 ACP501      0.0000 
     22 N9         23.0620  -11.0320   29.6490 N.pl3     1 ACP501      0.0000 
     23 C8         23.0600  -10.0870   28.6910 C.2       1 ACP501      0.0000 
     24 N7         24.0950  -10.3170   27.8840 N.2       1 ACP501      0.0000 
     25 C5         24.7440  -11.4080   28.3370 C.ar      1 ACP501      0.0000 
     26 C6         25.8670  -12.0740   27.8840 C.ar      1 ACP501      0.0000 
     27 N6         26.8580  -11.9990   26.8100 N.pl3     1 ACP501      0.0000 
     28 N1         26.3080  -13.1460   28.5280 N.ar      1 ACP501      0.0000 
     29 C2         25.6540  -13.5910   29.6360 C.ar      1 ACP501      0.0000 
     30 N3         24.5540  -12.9390   30.0810 N.ar      1 ACP501      0.0000 
     31 C4         24.1030  -11.8470   29.4270 C.ar      1 ACP501      0.0000 
@<TRIPOS>BOND
     1    1    2 ar   
     2    1    3 ar   
     3    1    4 ar   
     4    1    8 1    
     5    5    6 ar   
     6    5    7 ar   
     7    5    8 1    
     8    5   12 1    
     9    9   10 ar   
    10    9   11 ar   
    11    9   12 1    
    12    9   13 1    
    13   13   14 1    
    14   14   15 1    
    15   15   16 1    
    16   15   17 1    
    17   16   21 1    
    18   17   18 1    
    19   17   19 1    
    20   19   20 1    
    21   19   21 1    
    22   21   22 1    
    23   22   23 1    
    24   22   31 1    
    25   23   24 2    
    26   24   25 1    
    27   25   26 ar   
    28   25   31 ar   
    29   26   27 1    
    30   26   28 ar   
    31   28   29 ar   
    32   29   30 ar   
    33   30   31 ar   
@<TRIPOS>SUBSTRUCTURE
     1 ACP501      1 GROUP   
@<TRIPOS>SET
ATOM$ORANGE STATIC     ATOMS   COLORGROUP SYSTEM 
22 8 8 14 14 15 15 17 17 19 19 21 21 23 23 25 25 26 \
26 29 29 31 31 

