#    Name: 5mnv_4_DEB
#    Modification time : Fri May 22 19:19:58 2020

@<TRIPOS>MOLECULE
5mnv_4_DEB
   27    27     1     0     0
SMALL
NO_CHARGES


@<TRIPOS>ATOM
      1 C1         -2.8780  -53.0490   53.4620 C.2       1 DEB502      0.0000 
      2 C2         -2.4420  -54.2790   54.1970 C.3       1 DEB502      0.0000 
      3 C3         -3.6080  -54.9480   54.9480 C.3       1 DEB502      0.0000 
      4 C4         -3.9630  -54.1850   56.2440 C.3       1 DEB502      0.0000 
      5 C5         -5.3580  -54.5450   56.7950 C.3       1 DEB502      0.0000 
      6 C6         -6.5440  -54.4510   55.8080 C.3       1 DEB502      0.0000 
      7 C7         -6.4780  -53.3540   54.7280 C.3       1 DEB502      0.0000 
      8 C8         -7.4070  -52.1140   54.6360 C.3       1 DEB502      0.0000 
      9 C9         -7.0380  -51.0610   55.6410 C.2       1 DEB502      0.0000 
     10 C10        -5.8050  -50.1930   55.4690 C.3       1 DEB502      0.0000 
     11 C11        -4.9090  -50.5580   54.2520 C.3       1 DEB502      0.0000 
     12 C12        -3.4820  -49.9940   54.3060 C.3       1 DEB502      0.0000 
     13 C13        -2.5960  -50.6060   53.2100 C.3       1 DEB502      0.0000 
     14 C14        -1.4190  -49.6910   52.9040 C.3       1 DEB502      0.0000 
     15 C15        -0.5050  -50.3060   51.8710 C.3       1 DEB502      0.0000 
     16 O16        -2.0410  -51.8670   53.5910 O.3       1 DEB502      0.0000 
     17 O17        -3.8810  -53.0510   52.7710 O.2       1 DEB502      0.0000 
     18 C18        -1.7560  -55.1840   53.1720 C.3       1 DEB502      0.0000 
     19 O19        -3.2980  -56.3220   55.2560 O.3       1 DEB502      0.0000 
     20 C20        -2.9130  -54.4240   57.3340 C.3       1 DEB502      0.0000 
     21 O21        -5.6390  -53.7900   57.9920 O.3       1 DEB502      0.0000 
     22 C22        -7.8160  -54.4320   56.6180 C.3       1 DEB502      0.0000 
     23 C23        -8.9230  -52.3470   54.6860 C.3       1 DEB502      0.0000 
     24 O24        -7.7650  -50.9020   56.6160 O.2       1 DEB502      0.0000 
     25 C25        -6.2390  -48.7290   55.4490 C.3       1 DEB502      0.0000 
     26 O26        -5.4860  -50.2100   52.9750 O.3       1 DEB502      0.0000 
     27 C27        -2.8250  -50.1990   55.6710 C.3       1 DEB502      0.0000 
@<TRIPOS>BOND
     1    1    2 1    
     2    1   16 1    
     3    1   17 2    
     4    2    3 1    
     5    2   18 1    
     6    3    4 1    
     7    3   19 1    
     8    4    5 1    
     9    4   20 1    
    10    5    6 1    
    11    5   21 1    
    12    6    7 1    
    13    6   22 1    
    14    7    8 1    
    15    8    9 1    
    16    8   23 1    
    17    9   10 1    
    18    9   24 2    
    19   10   11 1    
    20   10   25 1    
    21   11   12 1    
    22   11   26 1    
    23   12   13 1    
    24   12   27 1    
    25   13   14 1    
    26   13   16 1    
    27   14   15 1    
@<TRIPOS>SUBSTRUCTURE
     1 DEB502      1 GROUP   
@<TRIPOS>SET

