#    Name: 5mnv_6_DEB
#    Modification time : Fri May 22 19:20:07 2020

@<TRIPOS>MOLECULE
5mnv_6_DEB
   27    27     1     0     0
SMALL
NO_CHARGES


@<TRIPOS>ATOM
      1 C1        -27.7690  -86.0910   39.5120 C.2       1 DEB502      0.0000 
      2 C2        -26.2720  -86.2180   39.4000 C.3       1 DEB502      0.0000 
      3 C3        -25.6450  -85.2420   38.4060 C.3       1 DEB502      0.0000 
      4 C4        -26.4690  -84.9540   37.1340 C.3       1 DEB502      0.0000 
      5 C5        -26.3780  -83.4490   36.8390 C.3       1 DEB502      0.0000 
      6 C6        -27.1910  -82.8570   35.6850 C.3       1 DEB502      0.0000 
      7 C7        -28.6820  -83.1340   35.8020 C.3       1 DEB502      0.0000 
      8 C8        -29.3460  -82.5510   37.0400 C.3       1 DEB502      0.0000 
      9 C9        -30.8150  -82.8660   36.9090 C.2       1 DEB502      0.0000 
     10 C10       -31.2960  -84.3040   36.9280 C.3       1 DEB502      0.0000 
     11 C11       -30.8930  -85.0360   38.2200 C.3       1 DEB502      0.0000 
     12 C12       -30.6570  -86.5350   38.0300 C.3       1 DEB502      0.0000 
     13 C13       -29.9720  -87.1310   39.2530 C.3       1 DEB502      0.0000 
     14 C14       -30.5050  -88.5310   39.4960 C.3       1 DEB502      0.0000 
     15 C15       -29.7690  -89.2550   40.6040 C.3       1 DEB502      0.0000 
     16 O16       -28.5670  -87.2110   39.0350 O.3       1 DEB502      0.0000 
     17 O17       -28.2980  -85.0860   39.9750 O.2       1 DEB502      0.0000 
     18 C18       -25.6260  -86.0280   40.7670 C.3       1 DEB502      0.0000 
     19 O19       -24.3560  -85.7860   38.0830 O.3       1 DEB502      0.0000 
     20 C20       -26.0300  -85.8710   35.9880 C.3       1 DEB502      0.0000 
     21 O21       -25.0180  -83.1330   36.5540 O.3       1 DEB502      0.0000 
     22 C22       -26.7160  -83.2650   34.2800 C.3       1 DEB502      0.0000 
     23 C23       -29.1070  -81.0480   37.1880 C.3       1 DEB502      0.0000 
     24 O24       -31.6110  -81.9550   36.7470 O.2       1 DEB502      0.0000 
     25 C25       -32.8040  -84.3950   36.6890 C.3       1 DEB502      0.0000 
     26 O26       -31.9120  -84.8960   39.2260 O.3       1 DEB502      0.0000 
     27 C27       -29.8700  -86.9190   36.7760 C.3       1 DEB502      0.0000 
@<TRIPOS>BOND
     1    1    2 1    
     2    1   16 1    
     3    1   17 2    
     4    2    3 1    
     5    2   18 1    
     6    3    4 1    
     7    3   19 1    
     8    4    5 1    
     9    4   20 1    
    10    5    6 1    
    11    5   21 1    
    12    6    7 1    
    13    6   22 1    
    14    7    8 1    
    15    8    9 1    
    16    8   23 1    
    17    9   10 1    
    18    9   24 2    
    19   10   11 1    
    20   10   25 1    
    21   11   12 1    
    22   11   26 1    
    23   12   13 1    
    24   12   27 1    
    25   13   14 1    
    26   13   16 1    
    27   14   15 1    
@<TRIPOS>SUBSTRUCTURE
     1 DEB502      1 GROUP   
@<TRIPOS>SET

