#    Name: 5mnv_8_DEB
#    Modification time : Fri May 22 19:20:16 2020

@<TRIPOS>MOLECULE
5mnv_8_DEB
   27    27     1     0     0
SMALL
NO_CHARGES


@<TRIPOS>ATOM
      1 C1        -46.9650    9.2890  -10.7140 C.2       1 DEB502      0.0000 
      2 C2        -46.6420   10.2980   -9.6470 C.3       1 DEB502      0.0000 
      3 C3        -46.2180    9.6490   -8.3310 C.3       1 DEB502      0.0000 
      4 C4        -47.1570    8.5350   -7.8380 C.3       1 DEB502      0.0000 
      5 C5        -46.4020    7.6550   -6.8310 C.3       1 DEB502      0.0000 
      6 C6        -47.0950    6.3650   -6.3550 C.3       1 DEB502      0.0000 
      7 C7        -47.7090    5.5380   -7.4910 C.3       1 DEB502      0.0000 
      8 C8        -46.7470    5.1180   -8.6070 C.3       1 DEB502      0.0000 
      9 C9        -47.5200    4.2650   -9.5780 C.2       1 DEB502      0.0000 
     10 C10       -48.6600    4.8550  -10.3790 C.3       1 DEB502      0.0000 
     11 C11       -48.1460    6.0390  -11.2210 C.3       1 DEB502      0.0000 
     12 C12       -49.2320    7.0410  -11.6100 C.3       1 DEB502      0.0000 
     13 C13       -48.6000    8.2730  -12.2570 C.3       1 DEB502      0.0000 
     14 C14       -49.5440    8.8750  -13.2930 C.3       1 DEB502      0.0000 
     15 C15       -48.8420    9.9150  -14.1360 C.3       1 DEB502      0.0000 
     16 O16       -48.3150    9.2600  -11.2610 O.3       1 DEB502      0.0000 
     17 O17       -46.1150    8.5090  -11.1050 O.2       1 DEB502      0.0000 
     18 C18       -45.5390   11.2240  -10.1420 C.3       1 DEB502      0.0000 
     19 O19       -46.1360   10.7030   -7.3570 O.3       1 DEB502      0.0000 
     20 C20       -48.4690    9.1060   -7.2920 C.3       1 DEB502      0.0000 
     21 O21       -46.0910    8.4540   -5.6830 O.3       1 DEB502      0.0000 
     22 C22       -48.1600    6.5790   -5.2630 C.3       1 DEB502      0.0000 
     23 C23       -45.5340    4.3530   -8.0950 C.3       1 DEB502      0.0000 
     24 O24       -47.2340    3.0860   -9.6930 O.2       1 DEB502      0.0000 
     25 C25       -49.3790    3.7940  -11.2190 C.3       1 DEB502      0.0000 
     26 O26       -47.4980    5.5840  -12.4230 O.3       1 DEB502      0.0000 
     27 C27       -50.1310    7.4710  -10.4500 C.3       1 DEB502      0.0000 
@<TRIPOS>BOND
     1    1    2 1    
     2    1   16 1    
     3    1   17 2    
     4    2    3 1    
     5    2   18 1    
     6    3    4 1    
     7    3   19 1    
     8    4    5 1    
     9    4   20 1    
    10    5    6 1    
    11    5   21 1    
    12    6    7 1    
    13    6   22 1    
    14    7    8 1    
    15    8    9 1    
    16    8   23 1    
    17    9   10 1    
    18    9   24 2    
    19   10   11 1    
    20   10   25 1    
    21   11   12 1    
    22   11   26 1    
    23   12   13 1    
    24   12   27 1    
    25   13   14 1    
    26   13   16 1    
    27   14   15 1    
@<TRIPOS>SUBSTRUCTURE
     1 DEB502      1 GROUP   
@<TRIPOS>SET

