#    Name: 5mnv_1_DEB
#    Modification time : Fri May 22 19:19:45 2020

@<TRIPOS>MOLECULE
5mnv_1_DEB
   27    27     1     0     0
SMALL
NO_CHARGES


@<TRIPOS>ATOM
      1 C1         -5.6920    4.8780    5.7110 C.2       1 DEB502      0.0000 
      2 C2         -5.9670    6.2740    5.2450 C.3       1 DEB502      0.0000 
      3 C3         -6.5380    6.2770    3.8310 C.3       1 DEB502      0.0000 
      4 C4         -5.5330    5.7860    2.7660 C.3       1 DEB502      0.0000 
      5 C5         -6.3000    5.3980    1.4830 C.3       1 DEB502      0.0000 
      6 C6         -5.5310    4.5880    0.4310 C.3       1 DEB502      0.0000 
      7 C7         -4.8100    3.3740    1.0050 C.3       1 DEB502      0.0000 
      8 C8         -5.6840    2.4080    1.7970 C.3       1 DEB502      0.0000 
      9 C9         -4.7800    1.2850    2.2380 C.2       1 DEB502      0.0000 
     10 C10        -3.7100    1.5220    3.2660 C.3       1 DEB502      0.0000 
     11 C11        -4.3420    2.0660    4.5450 C.3       1 DEB502      0.0000 
     12 C12        -3.3240    2.6330    5.5290 C.3       1 DEB502      0.0000 
     13 C13        -4.0330    3.3320    6.6900 C.3       1 DEB502      0.0000 
     14 C14        -3.1000    3.4440    7.8840 C.3       1 DEB502      0.0000 
     15 C15        -3.8230    3.9800    9.0960 C.3       1 DEB502      0.0000 
     16 O16        -4.4120    4.6570    6.3560 O.3       1 DEB502      0.0000 
     17 O17        -6.5050    3.9850    5.5470 O.2       1 DEB502      0.0000 
     18 C18        -6.8920    6.9270    6.2590 C.3       1 DEB502      0.0000 
     19 O19        -6.9930    7.6000    3.5370 O.3       1 DEB502      0.0000 
     20 C20        -4.4020    6.7850    2.5180 C.3       1 DEB502      0.0000 
     21 O21        -6.8140    6.5720    0.8350 O.3       1 DEB502      0.0000 
     22 C22        -4.5180    5.3990   -0.3930 C.3       1 DEB502      0.0000 
     23 C23        -6.8460    1.8440    0.9850 C.3       1 DEB502      0.0000 
     24 O24        -4.8840    0.1780    1.7310 O.2       1 DEB502      0.0000 
     25 C25        -2.8900    0.2490    3.4950 C.3       1 DEB502      0.0000 
     26 O26        -5.1030    1.0380    5.1950 O.3       1 DEB502      0.0000 
     27 C27        -2.3290    3.5750    4.8590 C.3       1 DEB502      0.0000 
@<TRIPOS>BOND
     1    1    2 1    
     2    1   16 1    
     3    1   17 2    
     4    2    3 1    
     5    2   18 1    
     6    3    4 1    
     7    3   19 1    
     8    4    5 1    
     9    4   20 1    
    10    5    6 1    
    11    5   21 1    
    12    6    7 1    
    13    6   22 1    
    14    7    8 1    
    15    8    9 1    
    16    8   23 1    
    17    9   10 1    
    18    9   24 2    
    19   10   11 1    
    20   10   25 1    
    21   11   12 1    
    22   11   26 1    
    23   12   13 1    
    24   12   27 1    
    25   13   14 1    
    26   13   16 1    
    27   14   15 1    
@<TRIPOS>SUBSTRUCTURE
     1 DEB502      1 GROUP   
@<TRIPOS>SET

