#    Name: 5mnv_2_DEB
#    Modification time : Fri May 22 19:19:49 2020

@<TRIPOS>MOLECULE
5mnv_2_DEB
   27    27     1     0     0
SMALL
NO_CHARGES


@<TRIPOS>ATOM
      1 C1        -38.4540   -6.9970   37.4230 C.2       1 DEB502      0.0000 
      2 C2        -39.3390   -7.8970   36.6050 C.3       1 DEB502      0.0000 
      3 C3        -40.2110   -8.7890   37.5020 C.3       1 DEB502      0.0000 
      4 C4        -40.1740  -10.2630   37.1080 C.3       1 DEB502      0.0000 
      5 C5        -40.8920  -11.1290   38.1530 C.3       1 DEB502      0.0000 
      6 C6        -40.1330  -11.4500   39.4530 C.3       1 DEB502      0.0000 
      7 C7        -38.6800  -11.8850   39.2910 C.3       1 DEB502      0.0000 
      8 C8        -37.9420  -11.9800   40.6280 C.3       1 DEB502      0.0000 
      9 C9        -37.4220  -10.6290   41.0470 C.2       1 DEB502      0.0000 
     10 C10       -36.2840   -9.9870   40.2830 C.3       1 DEB502      0.0000 
     11 C11       -36.6030   -8.5320   39.9040 C.3       1 DEB502      0.0000 
     12 C12       -35.6040   -7.9090   38.9130 C.3       1 DEB502      0.0000 
     13 C13       -36.2030   -6.6360   38.3130 C.3       1 DEB502      0.0000 
     14 C14       -35.1160   -5.6670   37.8780 C.3       1 DEB502      0.0000 
     15 C15       -35.7360   -4.3990   37.3350 C.3       1 DEB502      0.0000 
     16 O16       -37.0150   -6.9520   37.1810 O.3       1 DEB502      0.0000 
     17 O17       -38.9450   -6.2860   38.2860 O.2       1 DEB502      0.0000 
     18 C18       -40.1630   -7.0020   35.6770 C.3       1 DEB502      0.0000 
     19 O19       -41.5680   -8.3460   37.4390 O.3       1 DEB502      0.0000 
     20 C20       -40.7990  -10.4920   35.7310 C.3       1 DEB502      0.0000 
     21 O21       -41.2960  -12.3650   37.5500 O.3       1 DEB502      0.0000 
     22 C22       -40.9140  -12.5430   40.1800 C.3       1 DEB502      0.0000 
     23 C23       -36.8020  -12.9970   40.5520 C.3       1 DEB502      0.0000 
     24 O24       -37.9310  -10.0820   42.0190 O.2       1 DEB502      0.0000 
     25 C25       -34.9900  -10.1130   41.0850 C.3       1 DEB502      0.0000 
     26 O26       -36.6390   -7.6970   41.0750 O.3       1 DEB502      0.0000 
     27 C27       -35.1170   -8.8600   37.8140 C.3       1 DEB502      0.0000 
@<TRIPOS>BOND
     1    1    2 1    
     2    1   16 1    
     3    1   17 2    
     4    2    3 1    
     5    2   18 1    
     6    3    4 1    
     7    3   19 1    
     8    4    5 1    
     9    4   20 1    
    10    5    6 1    
    11    5   21 1    
    12    6    7 1    
    13    6   22 1    
    14    7    8 1    
    15    8    9 1    
    16    8   23 1    
    17    9   10 1    
    18    9   24 2    
    19   10   11 1    
    20   10   25 1    
    21   11   12 1    
    22   11   26 1    
    23   12   13 1    
    24   12   27 1    
    25   13   14 1    
    26   13   16 1    
    27   14   15 1    
@<TRIPOS>SUBSTRUCTURE
     1 DEB502      1 GROUP   
@<TRIPOS>SET

