#    Name: 5mnv_9_DEB
#    Modification time : Fri May 22 19:20:20 2020

@<TRIPOS>MOLECULE
5mnv_9_DEB
   27    27     1     0     0
SMALL
NO_CHARGES


@<TRIPOS>ATOM
      1 C1         20.2000  -69.8630  -33.2740 C.2       1 DEB502      0.0000 
      2 C2         18.7910  -69.3690  -33.4690 C.3       1 DEB502      0.0000 
      3 C3         18.7600  -68.0860  -34.3180 C.3       1 DEB502      0.0000 
      4 C4         17.8510  -66.9960  -33.7210 C.3       1 DEB502      0.0000 
      5 C5         17.9660  -65.6690  -34.4920 C.3       1 DEB502      0.0000 
      6 C6         19.3080  -64.9350  -34.3110 C.3       1 DEB502      0.0000 
      7 C7         19.5020  -64.3470  -32.9040 C.3       1 DEB502      0.0000 
      8 C8         20.7860  -63.5240  -32.7250 C.3       1 DEB502      0.0000 
      9 C9         22.0110  -64.3770  -32.9490 C.2       1 DEB502      0.0000 
     10 C10        22.4870  -65.3960  -31.9410 C.3       1 DEB502      0.0000 
     11 C11        22.1990  -66.8040  -32.4740 C.3       1 DEB502      0.0000 
     12 C12        22.5800  -67.9390  -31.5190 C.3       1 DEB502      0.0000 
     13 C13        22.2800  -69.2930  -32.1680 C.3       1 DEB502      0.0000 
     14 C14        23.1430  -70.4100  -31.5820 C.3       1 DEB502      0.0000 
     15 C15        22.8110  -71.7670  -32.1750 C.3       1 DEB502      0.0000 
     16 O16        20.8930  -69.6040  -32.0170 O.3       1 DEB502      0.0000 
     17 O17        20.7590  -70.4990  -34.1540 O.2       1 DEB502      0.0000 
     18 C18        17.9680  -70.5110  -34.0610 C.3       1 DEB502      0.0000 
     19 O19        18.3420  -68.3640  -35.6630 O.3       1 DEB502      0.0000 
     20 C20        16.3900  -67.4560  -33.6490 C.3       1 DEB502      0.0000 
     21 O21        16.8920  -64.7870  -34.1290 O.3       1 DEB502      0.0000 
     22 C22        19.4480  -63.8730  -35.4010 C.3       1 DEB502      0.0000 
     23 C23        20.8310  -62.8670  -31.3470 C.3       1 DEB502      0.0000 
     24 O24        22.6280  -64.2400  -33.9900 O.2       1 DEB502      0.0000 
     25 C25        23.9680  -65.1620  -31.6410 C.3       1 DEB502      0.0000 
     26 O26        22.9030  -66.9850  -33.7080 O.3       1 DEB502      0.0000 
     27 C27        21.8870  -67.7940  -30.1640 C.3       1 DEB502      0.0000 
@<TRIPOS>BOND
     1    1    2 1    
     2    1   16 1    
     3    1   17 2    
     4    2    3 1    
     5    2   18 1    
     6    3    4 1    
     7    3   19 1    
     8    4    5 1    
     9    4   20 1    
    10    5    6 1    
    11    5   21 1    
    12    6    7 1    
    13    6   22 1    
    14    7    8 1    
    15    8    9 1    
    16    8   23 1    
    17    9   10 1    
    18    9   24 2    
    19   10   11 1    
    20   10   25 1    
    21   11   12 1    
    22   11   26 1    
    23   12   13 1    
    24   12   27 1    
    25   13   14 1    
    26   13   16 1    
    27   14   15 1    
@<TRIPOS>SUBSTRUCTURE
     1 DEB502      1 GROUP   
@<TRIPOS>SET

