#    Name: 5mnv_7_DEB
#    Modification time : Fri May 22 19:20:11 2020

@<TRIPOS>MOLECULE
5mnv_7_DEB
   27    27     1     0     0
SMALL
NO_CHARGES


@<TRIPOS>ATOM
      1 C1        -80.4420  -34.8430   35.8660 C.2       1 DEB502      0.0000 
      2 C2        -80.9620  -35.6020   34.6820 C.3       1 DEB502      0.0000 
      3 C3        -79.8220  -36.0060   33.7380 C.3       1 DEB502      0.0000 
      4 C4        -79.4080  -34.8620   32.8040 C.3       1 DEB502      0.0000 
      5 C5        -77.9880  -35.1280   32.2640 C.3       1 DEB502      0.0000 
      6 C6        -77.2460  -33.9210   31.6560 C.3       1 DEB502      0.0000 
      7 C7        -77.0980  -32.7210   32.5980 C.3       1 DEB502      0.0000 
      8 C8        -76.5020  -33.0260   33.9730 C.3       1 DEB502      0.0000 
      9 C9        -76.4370  -31.7220   34.7280 C.2       1 DEB502      0.0000 
     10 C10       -77.6810  -31.1020   35.3080 C.3       1 DEB502      0.0000 
     11 C11       -78.4270  -32.1200   36.1840 C.3       1 DEB502      0.0000 
     12 C12       -79.8000  -31.6730   36.7000 C.3       1 DEB502      0.0000 
     13 C13       -80.5220  -32.8670   37.3380 C.3       1 DEB502      0.0000 
     14 C14       -81.5470  -32.4090   38.3680 C.3       1 DEB502      0.0000 
     15 C15       -82.1130  -33.5980   39.1120 C.3       1 DEB502      0.0000 
     16 O16       -81.1780  -33.6710   36.3430 O.3       1 DEB502      0.0000 
     17 O17       -79.4180  -35.2080   36.4210 O.2       1 DEB502      0.0000 
     18 C18       -81.7250  -36.8160   35.1910 C.3       1 DEB502      0.0000 
     19 O19       -80.2010  -37.1490   32.9570 O.3       1 DEB502      0.0000 
     20 C20       -80.4610  -34.6530   31.7060 C.3       1 DEB502      0.0000 
     21 O21       -78.0330  -36.1770   31.2860 O.3       1 DEB502      0.0000 
     22 C22       -77.8570  -33.4300   30.3410 C.3       1 DEB502      0.0000 
     23 C23       -75.1230  -33.6800   33.9070 C.3       1 DEB502      0.0000 
     24 O24       -75.3720  -31.1440   34.8550 O.2       1 DEB502      0.0000 
     25 C25       -77.3130  -29.8370   36.0850 C.3       1 DEB502      0.0000 
     26 O26       -77.6030  -32.4840   37.3050 O.3       1 DEB502      0.0000 
     27 C27       -80.6580  -31.0290   35.6130 C.3       1 DEB502      0.0000 
@<TRIPOS>BOND
     1    1    2 1    
     2    1   16 1    
     3    1   17 2    
     4    2    3 1    
     5    2   18 1    
     6    3    4 1    
     7    3   19 1    
     8    4    5 1    
     9    4   20 1    
    10    5    6 1    
    11    5   21 1    
    12    6    7 1    
    13    6   22 1    
    14    7    8 1    
    15    8    9 1    
    16    8   23 1    
    17    9   10 1    
    18    9   24 2    
    19   10   11 1    
    20   10   25 1    
    21   11   12 1    
    22   11   26 1    
    23   12   13 1    
    24   12   27 1    
    25   13   14 1    
    26   13   16 1    
    27   14   15 1    
@<TRIPOS>SUBSTRUCTURE
     1 DEB502      1 GROUP   
@<TRIPOS>SET

