#    Name: 5mnv_5_DEB
#    Modification time : Fri May 22 19:20:02 2020

@<TRIPOS>MOLECULE
5mnv_5_DEB
   27    27     1     0     0
SMALL
NO_CHARGES


@<TRIPOS>ATOM
      1 C1        -37.7340  -63.2260  -28.4280 C.2       1 DEB502      0.0000 
      2 C2        -39.2220  -62.9870  -28.4960 C.3       1 DEB502      0.0000 
      3 C3        -39.8660  -63.0320  -27.1090 C.3       1 DEB502      0.0000 
      4 C4        -39.2720  -64.0890  -26.1590 C.3       1 DEB502      0.0000 
      5 C5        -39.6140  -63.7620  -24.7060 C.3       1 DEB502      0.0000 
      6 C6        -38.7470  -62.5960  -24.2000 C.3       1 DEB502      0.0000 
      7 C7        -37.3880  -63.0580  -23.6580 C.3       1 DEB502      0.0000 
      8 C8        -36.2160  -62.3180  -24.3010 C.3       1 DEB502      0.0000 
      9 C9        -34.9810  -63.1770  -24.1680 C.2       1 DEB502      0.0000 
     10 C10       -34.6950  -64.3360  -25.1050 C.3       1 DEB502      0.0000 
     11 C11       -35.0530  -63.9960  -26.5600 C.3       1 DEB502      0.0000 
     12 C12       -34.9990  -65.1450  -27.5780 C.3       1 DEB502      0.0000 
     13 C13       -35.8120  -64.7440  -28.8270 C.3       1 DEB502      0.0000 
     14 C14       -35.7090  -65.7330  -29.9930 C.3       1 DEB502      0.0000 
     15 C15       -34.3460  -65.7420  -30.6530 C.3       1 DEB502      0.0000 
     16 O16       -37.2070  -64.5930  -28.5070 O.3       1 DEB502      0.0000 
     17 O17       -36.9730  -62.2810  -28.2800 O.2       1 DEB502      0.0000 
     18 C18       -39.5230  -61.6300  -29.1320 C.3       1 DEB502      0.0000 
     19 O19       -41.2780  -63.2160  -27.2810 O.3       1 DEB502      0.0000 
     20 C20       -39.6960  -65.5010  -26.5470 C.3       1 DEB502      0.0000 
     21 O21       -39.4610  -64.9310  -23.8820 O.3       1 DEB502      0.0000 
     22 C22       -39.5250  -61.7660  -23.1830 C.3       1 DEB502      0.0000 
     23 C23       -36.0140  -60.9500  -23.6590 C.3       1 DEB502      0.0000 
     24 O24       -34.2140  -62.9430  -23.2490 O.2       1 DEB502      0.0000 
     25 C25       -33.2330  -64.7650  -24.9860 C.3       1 DEB502      0.0000 
     26 O26       -34.1970  -62.9510  -27.0430 O.3       1 DEB502      0.0000 
     27 C27       -35.4500  -66.4800  -26.9900 C.3       1 DEB502      0.0000 
@<TRIPOS>BOND
     1    1    2 1    
     2    1   16 1    
     3    1   17 2    
     4    2    3 1    
     5    2   18 1    
     6    3    4 1    
     7    3   19 1    
     8    4    5 1    
     9    4   20 1    
    10    5    6 1    
    11    5   21 1    
    12    6    7 1    
    13    6   22 1    
    14    7    8 1    
    15    8    9 1    
    16    8   23 1    
    17    9   10 1    
    18    9   24 2    
    19   10   11 1    
    20   10   25 1    
    21   11   12 1    
    22   11   26 1    
    23   12   13 1    
    24   12   27 1    
    25   13   14 1    
    26   13   16 1    
    27   14   15 1    
@<TRIPOS>SUBSTRUCTURE
     1 DEB502      1 GROUP   
@<TRIPOS>SET

