#    Name: 5mnv_3_DEB
#    Modification time : Fri May 22 19:19:53 2020

@<TRIPOS>MOLECULE
5mnv_3_DEB
   27    27     1     0     0
SMALL
NO_CHARGES


@<TRIPOS>ATOM
      1 C1         -3.5000  -54.9880    6.3290 C.2       1 DEB502      0.0000 
      2 C2         -4.9390  -55.2130    6.0180 C.3       1 DEB502      0.0000 
      3 C3         -5.1790  -54.9310    4.5410 C.3       1 DEB502      0.0000 
      4 C4         -6.3070  -53.9110    4.3070 C.3       1 DEB502      0.0000 
      5 C5         -6.3150  -53.4340    2.8480 C.3       1 DEB502      0.0000 
      6 C6         -5.2040  -52.4320    2.4470 C.3       1 DEB502      0.0000 
      7 C7         -5.0570  -51.2280    3.3720 C.3       1 DEB502      0.0000 
      8 C8         -3.9090  -50.2780    2.9990 C.3       1 DEB502      0.0000 
      9 C9         -2.5730  -50.8290    3.4420 C.2       1 DEB502      0.0000 
     10 C10        -2.1870  -50.7920    4.8980 C.3       1 DEB502      0.0000 
     11 C11        -1.7720  -52.1740    5.4150 C.3       1 DEB502      0.0000 
     12 C12        -1.7110  -52.2370    6.9450 C.3       1 DEB502      0.0000 
     13 C13        -1.7430  -53.6910    7.3910 C.3       1 DEB502      0.0000 
     14 C14        -1.1200  -53.8690    8.7620 C.3       1 DEB502      0.0000 
     15 C15        -1.0030  -55.3430    9.0710 C.3       1 DEB502      0.0000 
     16 O16        -3.0980  -54.1390    7.4440 O.3       1 DEB502      0.0000 
     17 O17        -2.6630  -55.5370    5.6400 O.2       1 DEB502      0.0000 
     18 C18        -5.2750  -56.6510    6.3960 C.3       1 DEB502      0.0000 
     19 O19        -5.4480  -56.1720    3.8790 O.3       1 DEB502      0.0000 
     20 C20        -7.6790  -54.4690    4.6910 C.3       1 DEB502      0.0000 
     21 O21        -7.6110  -52.9040    2.5490 O.3       1 DEB502      0.0000 
     22 C22        -5.4430  -51.9620    1.0160 C.3       1 DEB502      0.0000 
     23 C23        -4.1640  -48.8980    3.6190 C.3       1 DEB502      0.0000 
     24 O24        -1.8000  -51.2930    2.6210 O.2       1 DEB502      0.0000 
     25 C25        -1.0900  -49.7560    5.1200 C.3       1 DEB502      0.0000 
     26 O26        -0.4800  -52.5560    4.9150 O.3       1 DEB502      0.0000 
     27 C27        -2.8090  -51.4290    7.6520 C.3       1 DEB502      0.0000 
@<TRIPOS>BOND
     1    1    2 1    
     2    1   16 1    
     3    1   17 2    
     4    2    3 1    
     5    2   18 1    
     6    3    4 1    
     7    3   19 1    
     8    4    5 1    
     9    4   20 1    
    10    5    6 1    
    11    5   21 1    
    12    6    7 1    
    13    6   22 1    
    14    7    8 1    
    15    8    9 1    
    16    8   23 1    
    17    9   10 1    
    18    9   24 2    
    19   10   11 1    
    20   10   25 1    
    21   11   12 1    
    22   11   26 1    
    23   12   13 1    
    24   12   27 1    
    25   13   14 1    
    26   13   16 1    
    27   14   15 1    
@<TRIPOS>SUBSTRUCTURE
     1 DEB502      1 GROUP   
@<TRIPOS>SET

