#    Name: 6k96_1_NAD
#    Modification time : Fri May 22 19:31:06 2020

@<TRIPOS>MOLECULE
6k96_1_NAD
   44    48     1     0     1
SMALL
NO_CHARGES


@<TRIPOS>ATOM
      1 PA         34.7100  -42.4210   11.4290 P.3       1 NAD400      0.0000 
      2 O1A        35.6360  -41.8870   10.4080 O.co2     1 NAD400      0.0000 
      3 O2A        35.1600  -43.4940   12.3560 O.co2     1 NAD400      0.0000 
      4 O5B        33.3530  -42.9840   10.7870 O.3       1 NAD400      0.0000 
      5 C5B        32.9510  -42.6760    9.4760 C.3       1 NAD400      0.0000 
      6 C4B        32.1680  -43.8350    8.9330 C.3       1 NAD400      0.0000 
      7 O4B        31.4860  -43.4270    7.7120 O.3       1 NAD400      0.0000 
      8 C3B        32.9990  -45.0680    8.5500 C.3       1 NAD400      0.0000 
      9 O3B        32.3010  -46.2740    8.8540 O.3       1 NAD400      0.0000 
     10 C2B        33.1090  -44.9170    7.0320 C.3       1 NAD400      0.0000 
     11 O2B        33.3310  -46.1570    6.4370 O.3       1 NAD400      0.0000 
     12 C1B        31.6920  -44.4640    6.7590 C.3       1 NAD400      0.0000 
     13 N9A        31.4250  -43.9890    5.3920 N.pl3     1 NAD400      0.0000 
     14 C8A        32.2620  -43.3330    4.5150 C.2       1 NAD400      0.0000 
     15 N7A        31.6510  -42.9510    3.4240 N.2       1 NAD400      0.0000 
     16 C5A        30.3410  -43.3720    3.5960 C.ar      1 NAD400      0.0000 
     17 C6A        29.2050  -43.3010    2.7750 C.ar      1 NAD400      0.0000 
     18 N6A        29.2230  -42.6900    1.6080 N.pl3     1 NAD400      0.0000 
     19 N1A        28.0300  -43.8080    3.2390 N.ar      1 NAD400      0.0000 
     20 C2A        28.0300  -44.3620    4.4620 C.ar      1 NAD400      0.0000 
     21 N3A        29.0460  -44.5020    5.3160 N.ar      1 NAD400      0.0000 
     22 C4A        30.1800  -43.9850    4.8150 C.ar      1 NAD400      0.0000 
     23 O3         34.1360  -41.1190   12.0850 O.3       1 NAD400      0.0000 
     24 PN         33.5060  -40.7310   13.4810 P.3       1 NAD400      0.0000 
     25 O1N        32.2180  -41.4480   13.6670 O.co2     1 NAD400      0.0000 
     26 O2N        34.5630  -40.7980   14.5530 O.co2     1 NAD400      0.0000 
     27 O5D        33.2450  -39.2310   13.0660 O.3       1 NAD400      0.0000 
     28 C5D        32.0370  -38.9640   12.3920 C.3       1 NAD400      0.0000 
     29 C4D        31.9640  -37.4880   12.1030 C.3       1 NAD400      0.0000 
     30 O4D        31.7650  -36.7390   13.3260 O.3       1 NAD400      0.0000 
     31 C3D        33.2160  -36.9030   11.4460 C.3       1 NAD400      0.0000 
     32 O3D        32.7810  -36.1230   10.3390 O.3       1 NAD400      0.0000 
     33 C2D        33.7820  -36.0030   12.5400 C.3       1 NAD400      0.0000 
     34 O2D        34.5840  -34.9820   11.9860 O.3       1 NAD400      0.0000 
     35 C1D        32.4690  -35.4990   13.1570 C.3       1 NAD400      0.0000 
     36 N1N        32.5970  -34.8140   14.5040 N.pl3     1 NAD400      0.0000 
     37 C2N        33.0750  -35.5500   15.5080 C.ar      1 NAD400      0.0000 
     38 C3N        33.5090  -34.9790   16.6830 C.ar      1 NAD400      0.0000 
     39 C7N        33.8490  -36.0800   17.6380 C.2       1 NAD400      0.0000 
     40 O7N        34.1620  -37.1900   17.2370 O.2       1 NAD400      0.0000 
     41 N7N        33.7080  -35.8010   18.9080 N.am      1 NAD400      0.0000 
     42 C4N        33.4520  -33.5980   16.8690 C.ar      1 NAD400      0.0000 
     43 C5N        32.7650  -32.8360   15.9530 C.ar      1 NAD400      0.0000 
     44 C6N        32.3050  -33.4480   14.7720 C.ar      1 NAD400      0.0000 
@<TRIPOS>BOND
     1    1    2 ar   
     2    1    3 ar   
     3    1    4 1    
     4    1   23 1    
     5    4    5 1    
     6    5    6 1    
     7    6    7 1    
     8    6    8 1    
     9    7   12 1    
    10    8    9 1    
    11    8   10 1    
    12   10   11 1    
    13   10   12 1    
    14   12   13 1    
    15   13   14 1    
    16   13   22 1    
    17   14   15 2    
    18   15   16 1    
    19   16   17 ar   
    20   16   22 ar   
    21   17   18 1    
    22   17   19 ar   
    23   19   20 ar   
    24   20   21 ar   
    25   21   22 ar   
    26   23   24 1    
    27   24   25 ar   
    28   24   26 ar   
    29   24   27 1    
    30   27   28 1    
    31   28   29 1    
    32   29   30 1    
    33   29   31 1    
    34   30   35 1    
    35   31   32 1    
    36   31   33 1    
    37   33   34 1    
    38   33   35 1    
    39   35   36 1    
    40   36   37 ar   
    41   36   44 ar   
    42   37   38 ar   
    43   38   39 1    
    44   38   42 ar   
    45   39   40 2    
    46   39   41 am   
    47   42   43 ar   
    48   43   44 ar   
@<TRIPOS>SUBSTRUCTURE
     1 NAD400      1 GROUP   
@<TRIPOS>SET
ATOM$ORANGE STATIC     ATOMS   COLORGROUP SYSTEM 
42 5 5 6 6 8 8 10 10 12 12 14 14 16 16 17 17 20 \
20 22 22 28 28 29 29 31 31 33 33 35 35 37 37 38 38 39 \
39 42 42 43 43 44 44 

