#    Name: 6n9a_2_ATP
#    Modification time : Fri May 22 19:36:01 2020

@<TRIPOS>MOLECULE
6n9a_2_ATP
   31    33     1     0     1
SMALL
NO_CHARGES


@<TRIPOS>ATOM
      1 PG        -66.2970   14.5590   15.3510 P.3       1 ATP201      0.0000 
      2 O1G       -66.0240   13.1680   14.8280 O.co2     1 ATP201      0.0000 
      3 O2G       -67.1670   15.3820   14.4330 O.co2     1 ATP201      0.0000 
      4 O3G       -65.0680   15.2760   15.8650 O.co2     1 ATP201      0.0000 
      5 PB        -66.6610   14.0740   18.1320 P.3       1 ATP201      0.0000 
      6 O1B       -66.1150   12.6730   18.1500 O.co2     1 ATP201      0.0000 
      7 O2B       -65.7610   15.2160   18.5250 O.co2     1 ATP201      0.0000 
      8 O3B       -67.2420   14.3590   16.6530 O.3       1 ATP201      0.0000 
      9 PA        -68.4260   15.5140   19.7890 P.3       1 ATP201      0.0000 
     10 O1A       -68.2570   16.6690   18.8330 O.co2     1 ATP201      0.0000 
     11 O2A       -67.7330   15.5760   21.1280 O.co2     1 ATP201      0.0000 
     12 O3A       -67.9840   14.1370   19.0620 O.3       1 ATP201      0.0000 
     13 O5'       -70.0070   15.3740   20.0290 O.3       1 ATP201      0.0000 
     14 C5'       -70.5610   14.2820   20.7540 C.3       1 ATP201      0.0000 
     15 C4'       -71.9910   14.6220   21.1540 C.3       1 ATP201      0.0000 
     16 O4'       -72.5770   13.5110   21.8400 O.3       1 ATP201      0.0000 
     17 C3'       -72.0590   15.7980   22.1120 C.3       1 ATP201      0.0000 
     18 O3'       -73.2430   16.5700   21.8580 O.3       1 ATP201      0.0000 
     19 C2'       -72.1930   15.1430   23.4620 C.3       1 ATP201      0.0000 
     20 O2'       -72.8360   16.0360   24.3650 O.3       1 ATP201      0.0000 
     21 C1'       -73.0520   13.9410   23.1180 C.3       1 ATP201      0.0000 
     22 N9        -72.9990   12.8180   24.0820 N.pl3     1 ATP201      0.0000 
     23 C8        -74.0680   12.0970   24.4780 C.2       1 ATP201      0.0000 
     24 N7        -73.7050   11.1340   25.3630 N.2       1 ATP201      0.0000 
     25 C5        -72.3810   11.2410   25.5360 C.ar      1 ATP201      0.0000 
     26 C6        -71.3690   10.5350   26.3330 C.ar      1 ATP201      0.0000 
     27 N6        -71.7190    9.5080   27.1320 N.pl3     1 ATP201      0.0000 
     28 N1        -70.0930   10.9530   26.2330 N.ar      1 ATP201      0.0000 
     29 C2        -69.7330   11.9820   25.4350 C.ar      1 ATP201      0.0000 
     30 N3        -70.6070   12.6700   24.6790 N.ar      1 ATP201      0.0000 
     31 C4        -71.9180   12.3490   24.6900 C.ar      1 ATP201      0.0000 
@<TRIPOS>BOND
     1    1    2 ar   
     2    1    3 ar   
     3    1    4 ar   
     4    1    8 1    
     5    5    6 ar   
     6    5    7 ar   
     7    5    8 1    
     8    5   12 1    
     9    9   10 ar   
    10    9   11 ar   
    11    9   12 1    
    12    9   13 1    
    13   13   14 1    
    14   14   15 1    
    15   15   16 1    
    16   15   17 1    
    17   16   21 1    
    18   17   18 1    
    19   17   19 1    
    20   19   20 1    
    21   19   21 1    
    22   21   22 1    
    23   22   23 1    
    24   22   31 1    
    25   23   24 2    
    26   24   25 1    
    27   25   26 ar   
    28   25   31 ar   
    29   26   27 1    
    30   26   28 ar   
    31   28   29 ar   
    32   29   30 ar   
    33   30   31 ar   
@<TRIPOS>SUBSTRUCTURE
     1 ATP201      1 GROUP   
@<TRIPOS>SET
ATOM$ORANGE STATIC     ATOMS   COLORGROUP SYSTEM 
20 14 14 15 15 17 17 19 19 21 21 23 23 25 25 26 26 29 \
29 31 31 

