#    Name: 6oix_5_GTP
#    Modification time : Fri May 22 19:29:06 2020

@<TRIPOS>MOLECULE
6oix_5_GTP
   32    34     1     0     1
SMALL
NO_CHARGES


@<TRIPOS>ATOM
      1 PG         18.4670   42.2930   83.8640 P.3       1 GTP601      0.0000 
      2 O1G        18.2570   43.6380   83.2390 O.co2     1 GTP601      0.0000 
      3 O2G        19.5490   42.2800   84.9570 O.co2     1 GTP601      0.0000 
      4 O3G        17.1880   41.6900   84.4690 O.co2     1 GTP601      0.0000 
      5 O3B        18.9780   41.3120   82.7200 O.3       1 GTP601      0.0000 
      6 PB         20.0770   41.6060   81.6080 P.3       1 GTP601      0.0000 
      7 O1B        19.8820   40.7220   80.4320 O.co2     1 GTP601      0.0000 
      8 O2B        19.9160   43.0770   81.1880 O.co2     1 GTP601      0.0000 
      9 O3A        21.5260   41.4090   82.2510 O.3       1 GTP601      0.0000 
     10 PA         22.1290   40.6010   83.4920 P.3       1 GTP601      0.0000 
     11 O1A        22.8840   41.4990   84.4000 O.co2     1 GTP601      0.0000 
     12 O2A        20.9450   40.0410   84.2870 O.co2     1 GTP601      0.0000 
     13 O5'        23.0040   39.3380   82.9380 O.3       1 GTP601      0.0000 
     14 C5'        22.7730   38.7810   81.6220 C.3       1 GTP601      0.0000 
     15 C4'        23.5610   37.5090   81.4140 C.3       1 GTP601      0.0000 
     16 O4'        24.9520   37.7550   81.6930 O.3       1 GTP601      0.0000 
     17 C3'        23.1870   36.3230   82.2960 C.3       1 GTP601      0.0000 
     18 O3'        22.0700   35.6030   81.7840 O.3       1 GTP601      0.0000 
     19 C2'        24.4810   35.4960   82.3270 C.3       1 GTP601      0.0000 
     20 O2'        24.5440   34.4940   81.3150 O.3       1 GTP601      0.0000 
     21 C1'        25.5730   36.5690   82.1540 C.3       1 GTP601      0.0000 
     22 N9         26.3810   36.9000   83.3620 N.pl3     1 GTP601      0.0000 
     23 C8         25.9430   37.0930   84.6510 C.2       1 GTP601      0.0000 
     24 N7         26.8820   37.4870   85.4800 N.2       1 GTP601      0.0000 
     25 C5         28.0210   37.5630   84.6930 C.2       1 GTP601      0.0000 
     26 C6         29.3960   37.9790   84.9980 C.2       1 GTP601      0.0000 
     27 O6         29.8230   38.4310   86.0640 O.2       1 GTP601      0.0000 
     28 N1         30.2230   37.8930   83.8840 N.am      1 GTP601      0.0000 
     29 C2         29.8250   37.5000   82.6200 C.2       1 GTP601      0.0000 
     30 N2         30.7450   37.5480   81.6530 N.pl3     1 GTP601      0.0000 
     31 N3         28.5780   37.1280   82.3190 N.2       1 GTP601      0.0000 
     32 C4         27.7300   37.1850   83.3820 C.2       1 GTP601      0.0000 
@<TRIPOS>BOND
     1    1    2 ar   
     2    1    3 ar   
     3    1    4 ar   
     4    1    5 1    
     5    5    6 1    
     6    6    7 ar   
     7    6    8 ar   
     8    6    9 1    
     9    9   10 1    
    10   10   11 ar   
    11   10   12 ar   
    12   10   13 1    
    13   13   14 1    
    14   14   15 1    
    15   15   16 1    
    16   15   17 1    
    17   16   21 1    
    18   17   18 1    
    19   17   19 1    
    20   19   20 1    
    21   19   21 1    
    22   21   22 1    
    23   22   23 1    
    24   22   32 1    
    25   23   24 2    
    26   24   25 1    
    27   25   26 1    
    28   25   32 2    
    29   26   27 2    
    30   26   28 am   
    31   28   29 1    
    32   29   30 1    
    33   29   31 2    
    34   31   32 1    
@<TRIPOS>SUBSTRUCTURE
     1 GTP601      1 GROUP   
@<TRIPOS>SET
ATOM$ORANGE STATIC     ATOMS   COLORGROUP SYSTEM 
20 14 14 15 15 17 17 19 19 21 21 23 23 25 25 26 26 29 \
29 32 32 

