#    Name: 6oix_6_GTP_CAVITY_N1_12
#    Modification time : Fri May 22 19:29:20 2020

@<TRIPOS>MOLECULE
6oix_6_GTP_CAVITY_N1_12
  204     0     7     0     0
SMALL
NO_CHARGES


@<TRIPOS>ATOM
      1 OG         44.6900   62.5700   42.9900 O.3       1 SER1        0.0000 
      2 OG         43.0700   63.5700   43.9200 O.3       1 SER1        0.0000 
      3 OG         42.1900   63.2900   45.1100 O.3       1 SER1        0.0000 
      4 OG         41.4500   64.5700   44.8600 O.3       1 SER1        0.0000 
      5 OG         45.6500   63.3100   43.8700 O.3       1 SER1        0.0000 
      6 OG         44.9000   64.5800   43.6100 O.3       1 SER1        0.0000 
      7 OG         44.0300   64.3100   44.8000 O.3       1 SER1        0.0000 
      8 OG         45.7500   74.3600   37.0400 O.3       1 SER1        0.0000 
      9 OG         45.9900   66.8700   43.0500 O.3       1 SER1        0.0000 
     10 OG         45.8700   65.3200   44.4900 O.3       1 SER1        0.0000 
     11 OG         48.2100   72.5400   38.4200 O.3       1 SER1        0.0000 
     12 OG         47.4600   73.8200   38.1700 O.3       1 SER1        0.0000 
     13 OG         48.0800   70.9900   39.8600 O.3       1 SER1        0.0000 
     14 OG         47.7100   66.3400   44.1900 O.3       1 SER1        0.0000 
     15 OG         49.8000   70.4600   41.0000 O.3       1 SER1        0.0000 
     16 OG         49.4200   65.8000   45.3200 O.3       1 SER1        0.0000 
     17 OG         50.3800   66.5400   46.2000 O.3       1 SER1        0.0000 
     18 O          45.3500   60.8300   41.1700 O.2       2 ALA2        0.0000 
     19 N          43.8200   72.8800   35.2800 N.am      2 ALA2        0.0000 
     20 O          46.3100   61.5700   42.0500 O.2       2 ALA2        0.0000 
     21 O          46.1800   60.0200   43.4900 O.2       2 ALA2        0.0000 
     22 O          45.4400   61.2900   43.2400 O.2       2 ALA2        0.0000 
     23 O          45.3100   59.7400   44.6800 O.2       2 ALA2        0.0000 
     24 O          47.2700   62.3100   42.9300 O.2       2 ALA2        0.0000 
     25 O          46.1500   58.9300   47.0000 O.2       2 ALA2        0.0000 
     26 N          46.2400   59.3900   49.0700 N.am      2 ALA2        0.0000 
     27 O          45.4900   60.6700   48.8200 O.2       2 ALA2        0.0000 
     28 N          45.3600   59.1200   50.2600 N.am      2 ALA2        0.0000 
     29 O          49.2000   63.7900   44.6900 O.2       2 ALA2        0.0000 
     30 N          51.9100   65.0800   43.2000 N.am      2 ALA2        0.0000 
     31 N          51.0400   64.8000   44.3900 N.am      2 ALA2        0.0000 
     32 O          50.1600   64.5300   45.5700 O.2       2 ALA2        0.0000 
     33 N          52.1300   67.0900   43.8200 N.am      2 ALA2        0.0000 
     34 N          51.3800   68.3700   43.5700 N.am      2 ALA2        0.0000 
     35 OD1        41.7700   69.8500   34.9600 O.co2     3 ASP3        0.0000 
     36 OD1        43.4800   69.3100   36.0900 O.co2     3 ASP3        0.0000 
     37 OD1        42.7300   70.5900   35.8400 O.co2     3 ASP3        0.0000 
     38 OD1        40.4500   62.7400   47.4900 O.co2     3 ASP3        0.0000 
     39 OD1        39.7000   64.0200   47.2300 O.co2     3 ASP3        0.0000 
     40 OD1        39.5700   62.4600   48.6700 O.co2     3 ASP3        0.0000 
     41 OD1        47.4000   63.8600   41.4900 O.co2     3 ASP3        0.0000 
     42 OD1        47.1500   60.7600   44.3700 O.co2     3 ASP3        0.0000 
     43 OD1        46.4000   62.0300   44.1200 O.co2     3 ASP3        0.0000 
     44 OD1        47.0200   59.2000   45.8200 O.co2     3 ASP3        0.0000 
     45 OD1        46.2700   60.4800   45.5600 O.co2     3 ASP3        0.0000 
     46 OD1        40.6600   64.7600   48.1100 O.co2     3 ASP3        0.0000 
     47 OD1        40.5400   63.2000   49.5500 O.co2     3 ASP3        0.0000 
     48 OD1        48.7400   69.2500   38.0500 O.co2     3 ASP3        0.0000 
     49 OD1        47.8700   68.9800   39.2400 O.co2     3 ASP3        0.0000 
     50 OD1        48.4900   66.1500   40.9300 O.co2     3 ASP3        0.0000 
     51 OD1        45.5000   71.2500   39.9200 O.co2     3 ASP3        0.0000 
     52 OD1        49.1100   63.3200   42.6300 O.co2     3 ASP3        0.0000 
     53 OD1        48.3600   64.6000   42.3700 O.co2     3 ASP3        0.0000 
     54 OD1        48.2400   63.0500   43.8100 O.co2     3 ASP3        0.0000 
     55 OD1        47.3600   62.7700   45.0000 O.co2     3 ASP3        0.0000 
     56 OD1        47.2400   61.2200   46.4400 O.co2     3 ASP3        0.0000 
     57 OD1        46.4900   62.5000   46.1900 O.co2     3 ASP3        0.0000 
     58 OD1        47.1100   59.6700   47.8800 O.co2     3 ASP3        0.0000 
     59 OD1        46.3600   60.9400   47.6300 O.co2     3 ASP3        0.0000 
     60 OD1        48.9600   71.2700   38.6800 O.co2     3 ASP3        0.0000 
     61 OD1        49.5800   68.4400   40.3700 O.co2     3 ASP3        0.0000 
     62 OD1        48.8300   69.7200   40.1200 O.co2     3 ASP3        0.0000 
     63 OD1        47.3400   72.2700   39.6100 O.co2     3 ASP3        0.0000 
     64 OD1        50.2000   65.6100   42.0600 O.co2     3 ASP3        0.0000 
     65 OD1        47.2100   70.7200   41.0500 O.co2     3 ASP3        0.0000 
     66 OD1        47.8300   67.8900   42.7500 O.co2     3 ASP3        0.0000 
     67 OD1        47.0800   69.1600   42.4900 O.co2     3 ASP3        0.0000 
     68 OD1        46.3400   70.4400   42.2400 O.co2     3 ASP3        0.0000 
     69 OD1        49.9500   62.5100   44.9500 O.co2     3 ASP3        0.0000 
     70 OD1        46.9600   67.6100   43.9300 O.co2     3 ASP3        0.0000 
     71 OD1        48.2000   61.9600   47.3200 O.co2     3 ASP3        0.0000 
     72 OD1        51.2900   67.9000   41.5000 O.co2     3 ASP3        0.0000 
     73 OD1        50.5400   69.1800   41.2500 O.co2     3 ASP3        0.0000 
     74 OD1        49.6700   68.9000   42.4400 O.co2     3 ASP3        0.0000 
     75 OD1        48.9200   70.1800   42.1900 O.co2     3 ASP3        0.0000 
     76 OD1        49.5400   67.3500   43.8800 O.co2     3 ASP3        0.0000 
     77 OD1        48.8000   68.6300   43.6300 O.co2     3 ASP3        0.0000 
     78 OD1        48.0500   69.9000   43.3700 O.co2     3 ASP3        0.0000 
     79 OD1        50.6300   69.6400   43.3200 O.co2     3 ASP3        0.0000 
     80 OD1        50.5100   68.0900   44.7600 O.co2     3 ASP3        0.0000 
     81 NZ         43.6100   70.8600   34.6500 N.4       4 LYS4        0.0000 
     82 NZ         44.5700   71.6000   35.5300 N.4       4 LYS4        0.0000 
     83 NZ         45.1900   68.7700   37.2200 N.4       4 LYS4        0.0000 
     84 NZ         44.4500   70.0500   36.9700 N.4       4 LYS4        0.0000 
     85 NZ         42.8200   60.4700   46.8000 N.4       4 LYS4        0.0000 
     86 NZ         42.6900   58.9100   48.2500 N.4       4 LYS4        0.0000 
     87 NZ         41.9400   60.1900   47.9900 N.4       4 LYS4        0.0000 
     88 NZ         41.1900   61.4600   47.7400 N.4       4 LYS4        0.0000 
     89 NZ         45.5400   72.3400   36.4100 N.4       4 LYS4        0.0000 
     90 NZ         44.7900   73.6200   36.1600 N.4       4 LYS4        0.0000 
     91 NZ         47.6500   66.9600   38.6100 N.4       4 LYS4        0.0000 
     92 NZ         46.9000   68.2400   38.3600 N.4       4 LYS4        0.0000 
     93 NZ         46.1600   69.5100   38.1000 N.4       4 LYS4        0.0000 
     94 NZ         45.4100   70.7900   37.8500 N.4       4 LYS4        0.0000 
     95 NZ         44.5300   59.9300   47.9400 N.4       4 LYS4        0.0000 
     96 NZ         43.7800   61.2000   47.6800 N.4       4 LYS4        0.0000 
     97 NZ         43.0300   62.4800   47.4300 N.4       4 LYS4        0.0000 
     98 NZ         43.6500   59.6500   49.1300 N.4       4 LYS4        0.0000 
     99 NZ         41.4100   63.4800   48.3700 N.4       4 LYS4        0.0000 
    100 NZ         47.2500   71.8000   37.5400 N.4       4 LYS4        0.0000 
    101 NZ         46.5000   73.0800   37.2900 N.4       4 LYS4        0.0000 
    102 NZ         48.6200   67.7000   39.4900 N.4       4 LYS4        0.0000 
    103 NZ         47.1200   70.2500   38.9800 N.4       4 LYS4        0.0000 
    104 NZ         46.3700   71.5300   38.7300 N.4       4 LYS4        0.0000 
    105 NZ         44.6200   60.3900   50.0100 N.4       4 LYS4        0.0000 
    106 NZ         43.1200   62.9400   49.5000 N.4       4 LYS4        0.0000 
    107 NZ         42.3700   64.2200   49.2500 N.4       4 LYS4        0.0000 
    108 NZ         51.0700   65.8900   40.8800 N.4       4 LYS4        0.0000 
    109 NZ         50.3300   67.1600   40.6200 N.4       4 LYS4        0.0000 
    110 NZ         50.0700   64.0600   43.5100 N.4       4 LYS4        0.0000 
    111 NZ         51.2500   66.8200   45.0100 N.4       4 LYS4        0.0000 
    112 CZ         43.7200   61.8300   42.1100 C.ar      5 PHE5        0.0000 
    113 CZ         42.8500   61.5500   43.2900 C.ar      5 PHE5        0.0000 
    114 CZ         42.1000   62.8300   43.0400 C.ar      5 PHE5        0.0000 
    115 CZ         41.9800   61.2800   44.4800 C.ar      5 PHE5        0.0000 
    116 CZ         41.2300   62.5500   44.2300 C.ar      5 PHE5        0.0000 
    117 CZ         41.8500   59.7300   45.9200 C.ar      5 PHE5        0.0000 
    118 CZ         41.1000   61.0000   45.6700 C.ar      5 PHE5        0.0000 
    119 CZ         40.3600   62.2800   45.4200 C.ar      5 PHE5        0.0000 
    120 CZ         44.3200   68.5000   38.4100 C.ar      5 PHE5        0.0000 
    121 CZ         43.4500   68.2200   39.6000 C.ar      5 PHE5        0.0000 
    122 CZ         45.5600   62.8400   41.8000 C.ar      5 PHE5        0.0000 
    123 CZ         41.3200   63.0200   46.3000 C.ar      5 PHE5        0.0000 
    124 CZ         40.5700   64.2900   46.0400 C.ar      5 PHE5        0.0000 
    125 CZ         46.0300   67.9600   39.5400 C.ar      5 PHE5        0.0000 
    126 CZ         45.2800   69.2400   39.2900 C.ar      5 PHE5        0.0000 
    127 CZ         44.4100   68.9600   40.4800 C.ar      5 PHE5        0.0000 
    128 CZ         46.5300   63.5800   42.6800 C.ar      5 PHE5        0.0000 
    129 CZ         45.7800   64.8600   42.4300 C.ar      5 PHE5        0.0000 
    130 CZ         47.7400   67.4300   40.6800 C.ar      5 PHE5        0.0000 
    131 CZ         46.9900   68.7000   40.4200 C.ar      5 PHE5        0.0000 
    132 CZ         47.6200   65.8700   42.1200 C.ar      5 PHE5        0.0000 
    133 CZ         46.8700   67.1500   41.8700 C.ar      5 PHE5        0.0000 
    134 CZ         46.1200   68.4300   41.6100 C.ar      5 PHE5        0.0000 
    135 CZ         46.7400   65.6000   43.3100 C.ar      5 PHE5        0.0000 
    136 CZ         46.6200   64.0500   44.7500 C.ar      5 PHE5        0.0000 
    137 CZ         45.7400   63.7700   45.9400 C.ar      5 PHE5        0.0000 
    138 CZ         46.7200   75.1000   37.9200 C.ar      5 PHE5        0.0000 
    139 CZ         48.4500   65.0600   44.4400 C.ar      5 PHE5        0.0000 
    140 CZ         48.3300   63.5100   45.8800 C.ar      5 PHE5        0.0000 
    141 CZ         47.4500   63.2300   47.0700 C.ar      5 PHE5        0.0000 
    142 CZ         49.2900   64.2500   46.7600 C.ar      5 PHE5        0.0000 
    143 CZ         51.5100   69.9200   42.1300 C.ar      5 PHE5        0.0000 
    144 CA         40.1500   70.8500   35.8900 C.3       6 GLY6        0.0000 
    145 CA         40.0200   69.3000   37.3300 C.3       6 GLY6        0.0000 
    146 CA         39.2800   70.5700   37.0800 C.3       6 GLY6        0.0000 
    147 CA         38.4000   70.3000   38.2700 C.3       6 GLY6        0.0000 
    148 CA         41.8600   70.3100   37.0200 C.3       6 GLY6        0.0000 
    149 CA         40.9900   70.0300   38.2100 C.3       6 GLY6        0.0000 
    150 CA         40.1100   69.7600   39.4000 C.3       6 GLY6        0.0000 
    151 CA         45.2200   59.2800   42.6100 C.3       6 GLY6        0.0000 
    152 CA         44.4700   60.5500   42.3600 C.3       6 GLY6        0.0000 
    153 CA         43.6000   60.2800   43.5500 C.3       6 GLY6        0.0000 
    154 CA         43.4700   58.7300   44.9900 C.3       6 GLY6        0.0000 
    155 CA         42.7300   60.0000   44.7400 C.3       6 GLY6        0.0000 
    156 CA         42.6000   58.4500   46.1800 C.3       6 GLY6        0.0000 
    157 CA         40.9800   59.4500   47.1100 C.3       6 GLY6        0.0000 
    158 CA         40.2300   60.7300   46.8600 C.3       6 GLY6        0.0000 
    159 CA         43.5700   69.7700   38.1600 C.3       6 GLY6        0.0000 
    160 CA         42.7000   69.5000   39.3500 C.3       6 GLY6        0.0000 
    161 CA         44.4400   59.4700   45.8700 C.3       6 GLY6        0.0000 
    162 CA         43.5600   59.1900   47.0600 C.3       6 GLY6        0.0000 
    163 CA         45.6200   62.2200   47.3800 C.3       6 GLY6        0.0000 
    164 CA         44.8700   63.5000   47.1200 C.3       6 GLY6        0.0000 
    165 CA         44.7400   61.9400   48.5600 C.3       6 GLY6        0.0000 
    166 CA         44.0000   63.2200   48.3100 C.3       6 GLY6        0.0000 
    167 CA         43.2500   64.4900   48.0600 C.3       6 GLY6        0.0000 
    168 CA         46.5900   73.5400   39.3600 C.3       6 GLY6        0.0000 
    169 CA         45.8400   74.8200   39.1000 C.3       6 GLY6        0.0000 
    170 CA         45.7200   73.2700   40.5500 C.3       6 GLY6        0.0000 
    171 DU         41.9900   71.8600   35.5800 H         7 CUB7        0.0000 
    172 DU         41.1100   71.5900   36.7700 H         7 CUB7        0.0000 
    173 DU         40.2400   71.3100   37.9600 H         7 CUB7        0.0000 
    174 DU         43.7000   71.3300   36.7200 H         7 CUB7        0.0000 
    175 DU         42.9500   72.6000   36.4600 H         7 CUB7        0.0000 
    176 DU         42.8300   71.0500   37.9000 H         7 CUB7        0.0000 
    177 DU         44.5600   61.0200   44.4300 H         7 CUB7        0.0000 
    178 DU         43.8200   62.2900   44.1800 H         7 CUB7        0.0000 
    179 DU         43.6900   60.7400   45.6200 H         7 CUB7        0.0000 
    180 DU         42.9400   62.0200   45.3600 H         7 CUB7        0.0000 
    181 DU         42.0700   61.7400   46.5500 H         7 CUB7        0.0000 
    182 DU         44.6600   72.0700   37.6000 H         7 CUB7        0.0000 
    183 DU         43.9200   73.3400   37.3400 H         7 CUB7        0.0000 
    184 DU         44.5400   70.5100   39.0400 H         7 CUB7        0.0000 
    185 DU         45.5300   61.7600   45.3100 H         7 CUB7        0.0000 
    186 DU         44.7800   63.0300   45.0600 H         7 CUB7        0.0000 
    187 DU         45.4000   60.2000   46.7500 H         7 CUB7        0.0000 
    188 DU         44.6500   61.4800   46.5000 H         7 CUB7        0.0000 
    189 DU         43.1600   64.0300   45.9900 H         7 CUB7        0.0000 
    190 DU         42.2800   63.7600   47.1800 H         7 CUB7        0.0000 
    191 DU         41.5400   65.0300   46.9200 H         7 CUB7        0.0000 
    192 DU         45.6300   72.8000   38.4800 H         7 CUB7        0.0000 
    193 DU         44.8800   74.0800   38.2200 H         7 CUB7        0.0000 
    194 DU         46.2500   69.9800   40.1700 H         7 CUB7        0.0000 
    195 DU         45.3700   69.7000   41.3600 H         7 CUB7        0.0000 
    196 DU         47.4900   64.3200   43.5600 H         7 CUB7        0.0000 
    197 DU         49.4500   66.8900   41.8100 H         7 CUB7        0.0000 
    198 DU         48.7100   68.1600   41.5600 H         7 CUB7        0.0000 
    199 DU         47.9600   69.4400   41.3000 H         7 CUB7        0.0000 
    200 DU         49.3300   65.3400   43.2500 H         7 CUB7        0.0000 
    201 DU         48.5800   66.6100   43.0000 H         7 CUB7        0.0000 
    202 DU         51.1600   66.3500   42.9400 H         7 CUB7        0.0000 
    203 DU         50.4200   67.6300   42.6900 H         7 CUB7        0.0000 
    204 DU         50.2900   66.0800   44.1300 H         7 CUB7        0.0000 
@<TRIPOS>BOND
@<TRIPOS>SUBSTRUCTURE
     1 SER1        1 GROUP   
     2 ALA2       18 GROUP   
     3 ASP3       35 GROUP   
     4 LYS4       81 GROUP   
     5 PHE5      112 GROUP   
     6 GLY6      144 GROUP   
     7 CUB7      171 GROUP   
@<TRIPOS>SET

