#    Name: 6oix_4_GTP
#    Modification time : Fri May 22 19:28:53 2020

@<TRIPOS>MOLECULE
6oix_4_GTP
   32    34     1     0     1
SMALL
NO_CHARGES


@<TRIPOS>ATOM
      1 PG         75.4610   42.0650   85.9940 P.3       1 GTP601      0.0000 
      2 O1G        76.1870   43.2940   85.5230 O.co2     1 GTP601      0.0000 
      3 O2G        76.2530   40.7760   85.7870 O.co2     1 GTP601      0.0000 
      4 O3G        75.0440   42.1310   87.4620 O.co2     1 GTP601      0.0000 
      5 O3B        74.1110   41.8840   85.1670 O.3       1 GTP601      0.0000 
      6 PB         73.5720   40.7790   84.1500 P.3       1 GTP601      0.0000 
      7 O1B        74.1580   39.4520   84.4710 O.co2     1 GTP601      0.0000 
      8 O2B        72.0420   40.6970   84.3140 O.co2     1 GTP601      0.0000 
      9 O3A        73.8850   41.2090   82.6430 O.3       1 GTP601      0.0000 
     10 PA         74.9310   42.1510   81.8870 P.3       1 GTP601      0.0000 
     11 O1A        74.6020   43.5780   82.1060 O.co2     1 GTP601      0.0000 
     12 O2A        76.3200   41.8970   82.4910 O.co2     1 GTP601      0.0000 
     13 O5'        74.9770   41.7310   80.3120 O.3       1 GTP601      0.0000 
     14 C5'        73.7930   41.3170   79.5960 C.3       1 GTP601      0.0000 
     15 C4'        74.0380   40.0840   78.7510 C.3       1 GTP601      0.0000 
     16 O4'        73.3750   40.2400   77.4770 O.3       1 GTP601      0.0000 
     17 C3'        75.4940   39.7150   78.4480 C.3       1 GTP601      0.0000 
     18 O3'        75.9430   38.6390   79.2630 O.3       1 GTP601      0.0000 
     19 C2'        75.4920   39.3850   76.9460 C.3       1 GTP601      0.0000 
     20 O2'        75.2570   38.0090   76.6600 O.3       1 GTP601      0.0000 
     21 C1'        74.3280   40.2280   76.4340 C.3       1 GTP601      0.0000 
     22 N9         74.6210   41.6380   76.0320 N.pl3     1 GTP601      0.0000 
     23 C8         75.5640   42.5020   76.5420 C.2       1 GTP601      0.0000 
     24 N7         75.4550   43.7330   76.1000 N.2       1 GTP601      0.0000 
     25 C5         74.3720   43.6880   75.2350 C.2       1 GTP601      0.0000 
     26 C6         73.6860   44.7350   74.4720 C.2       1 GTP601      0.0000 
     27 O6         73.9130   45.9440   74.4860 O.2       1 GTP601      0.0000 
     28 N1         72.6220   44.2350   73.7400 N.am      1 GTP601      0.0000 
     29 C2         72.2120   42.9240   73.7270 C.2       1 GTP601      0.0000 
     30 N2         71.1190   42.6410   73.0150 N.pl3     1 GTP601      0.0000 
     31 N3         72.8140   41.9540   74.4220 N.2       1 GTP601      0.0000 
     32 C4         73.8650   42.3950   75.1590 C.2       1 GTP601      0.0000 
@<TRIPOS>BOND
     1    1    2 ar   
     2    1    3 ar   
     3    1    4 ar   
     4    1    5 1    
     5    5    6 1    
     6    6    7 ar   
     7    6    8 ar   
     8    6    9 1    
     9    9   10 1    
    10   10   11 ar   
    11   10   12 ar   
    12   10   13 1    
    13   13   14 1    
    14   14   15 1    
    15   15   16 1    
    16   15   17 1    
    17   16   21 1    
    18   17   18 1    
    19   17   19 1    
    20   19   20 1    
    21   19   21 1    
    22   21   22 1    
    23   22   23 1    
    24   22   32 1    
    25   23   24 2    
    26   24   25 1    
    27   25   26 1    
    28   25   32 2    
    29   26   27 2    
    30   26   28 am   
    31   28   29 1    
    32   29   30 1    
    33   29   31 2    
    34   31   32 1    
@<TRIPOS>SUBSTRUCTURE
     1 GTP601      1 GROUP   
@<TRIPOS>SET
ATOM$ORANGE STATIC     ATOMS   COLORGROUP SYSTEM 
20 14 14 15 15 17 17 19 19 21 21 23 23 25 25 26 26 29 \
29 32 32 

