#    Name: 6oix_4_GTP_CAVITY_N1_8
#    Modification time : Fri May 22 19:28:54 2020

@<TRIPOS>MOLECULE
6oix_4_GTP_CAVITY_N1_8
  186     0     7     0     0
SMALL
NO_CHARGES


@<TRIPOS>ATOM
      1 OG         76.4000   41.9800   76.6800 O.3       1 SER1        0.0000 
      2 OG         75.6600   43.2500   76.4300 O.3       1 SER1        0.0000 
      3 OG         75.5300   41.7000   77.8700 O.3       1 SER1        0.0000 
      4 OG         74.7800   42.9800   77.6100 O.3       1 SER1        0.0000 
      5 OG         74.6600   41.4300   79.0600 O.3       1 SER1        0.0000 
      6 OG         73.9100   42.7000   78.8000 O.3       1 SER1        0.0000 
      7 OG         75.8700   45.2700   77.0500 O.3       1 SER1        0.0000 
      8 OG         75.0000   44.9900   78.2400 O.3       1 SER1        0.0000 
      9 OG         75.6200   42.1600   79.9400 O.3       1 SER1        0.0000 
     10 OG         74.8700   43.4400   79.6800 O.3       1 SER1        0.0000 
     11 OG         73.0000   41.3400   83.5000 O.3       1 SER1        0.0000 
     12 OG         72.2500   42.6100   83.2500 O.3       1 SER1        0.0000 
     13 OG         71.3800   42.3400   84.4300 O.3       1 SER1        0.0000 
     14 OG         74.9600   43.9000   81.7500 O.3       1 SER1        0.0000 
     15 OG         74.0900   43.6300   82.9400 O.3       1 SER1        0.0000 
     16 OG         73.2200   43.3500   84.1300 O.3       1 SER1        0.0000 
     17 OG         77.5100   42.5600   85.2100 O.3       1 SER1        0.0000 
     18 N          68.4700   41.8300   72.7100 N.am      2 ALA2        0.0000 
     19 N          68.3400   40.2800   74.1500 N.am      2 ALA2        0.0000 
     20 N          67.6000   41.5600   73.8900 N.am      2 ALA2        0.0000 
     21 N          67.4700   40.0100   75.3400 N.am      2 ALA2        0.0000 
     22 N          66.7200   41.2800   75.0800 N.am      2 ALA2        0.0000 
     23 N          65.9800   42.5600   74.8300 N.am      2 ALA2        0.0000 
     24 N          65.8500   41.0100   76.2700 N.am      2 ALA2        0.0000 
     25 N          69.3100   41.0200   75.0300 N.am      2 ALA2        0.0000 
     26 N          68.4300   40.7400   76.2200 N.am      2 ALA2        0.0000 
     27 N          67.6900   42.0200   75.9600 N.am      2 ALA2        0.0000 
     28 N          66.9400   43.3000   75.7100 N.am      2 ALA2        0.0000 
     29 N          71.8900   40.7600   74.9700 N.am      2 ALA2        0.0000 
     30 N          71.1400   42.0400   74.7200 N.am      2 ALA2        0.0000 
     31 N          70.2700   41.7600   75.9100 N.am      2 ALA2        0.0000 
     32 N          70.1500   40.2100   77.3500 N.am      2 ALA2        0.0000 
     33 N          68.6500   42.7600   76.8400 N.am      2 ALA2        0.0000 
     34 N          67.9000   44.0400   76.5900 N.am      2 ALA2        0.0000 
     35 O          74.3500   38.9500   76.3600 O.2       2 ALA2        0.0000 
     36 N          72.8600   41.5000   75.8500 N.am      2 ALA2        0.0000 
     37 N          72.7300   39.9500   77.2900 N.am      2 ALA2        0.0000 
     38 N          71.9800   41.2200   77.0400 N.am      2 ALA2        0.0000 
     39 O          69.6100   43.5000   77.7200 O.2       2 ALA2        0.0000 
     40 O          68.8700   44.7700   77.4700 O.2       2 ALA2        0.0000 
     41 N          76.0600   38.4100   77.4900 N.am      2 ALA2        0.0000 
     42 O          75.3100   39.6900   77.2400 O.2       2 ALA2        0.0000 
     43 O          75.1900   38.1300   78.6800 O.2       2 ALA2        0.0000 
     44 O          74.4400   39.4100   78.4300 O.2       2 ALA2        0.0000 
     45 O          73.5700   39.1300   79.6200 O.2       2 ALA2        0.0000 
     46 O          72.0400   40.6000   82.6200 O.2       2 ALA2        0.0000 
     47 N          71.1600   40.3200   83.8100 N.am      2 ALA2        0.0000 
     48 N          72.1300   41.0600   84.6900 N.am      2 ALA2        0.0000 
     49 N          72.0000   39.5100   86.1300 N.am      2 ALA2        0.0000 
     50 N          71.2500   40.7900   85.8700 N.am      2 ALA2        0.0000 
     51 O          70.5100   42.0600   85.6200 O.2       2 ALA2        0.0000 
     52 N          73.8400   40.5300   85.8200 N.am      2 ALA2        0.0000 
     53 N          72.2200   41.5200   86.7500 N.am      2 ALA2        0.0000 
     54 N          74.8000   41.2600   86.7000 N.am      2 ALA2        0.0000 
     55 OD1        67.5600   40.4700   77.4000 O.co2     3 ASP3        0.0000 
     56 OD1        69.4000   41.4800   77.1000 O.co2     3 ASP3        0.0000 
     57 OD1        71.8600   39.6700   78.4800 O.co2     3 ASP3        0.0000 
     58 OD1        71.1100   40.9500   78.2300 O.co2     3 ASP3        0.0000 
     59 OD1        70.3600   42.2200   77.9800 O.co2     3 ASP3        0.0000 
     60 OD1        69.4900   41.9500   79.1600 O.co2     3 ASP3        0.0000 
     61 OD1        73.3200   46.6200   73.6000 O.co2     3 ASP3        0.0000 
     62 OD1        72.8200   40.4100   79.3600 O.co2     3 ASP3        0.0000 
     63 OD1        72.0700   41.6900   79.1100 O.co2     3 ASP3        0.0000 
     64 OD1        72.6900   38.8600   80.8000 O.co2     3 ASP3        0.0000 
     65 OD1        71.9500   40.1300   80.5500 O.co2     3 ASP3        0.0000 
     66 OD1        71.2000   41.4100   80.3000 O.co2     3 ASP3        0.0000 
     67 OD1        71.0700   39.8600   81.7400 O.co2     3 ASP3        0.0000 
     68 OD1        70.3300   41.1300   81.4900 O.co2     3 ASP3        0.0000 
     69 OD1        73.4100   47.0800   75.6700 O.co2     3 ASP3        0.0000 
     70 OD1        72.6700   48.3600   75.4100 O.co2     3 ASP3        0.0000 
     71 OD1        74.5300   39.8700   80.5000 O.co2     3 ASP3        0.0000 
     72 OD1        73.6600   39.6000   81.6800 O.co2     3 ASP3        0.0000 
     73 OD1        76.2400   39.3400   81.6300 O.co2     3 ASP3        0.0000 
     74 OD1        75.3700   39.0600   82.8200 O.co2     3 ASP3        0.0000 
     75 OD1        74.6200   40.3400   82.5600 O.co2     3 ASP3        0.0000 
     76 OD1        73.9600   42.0800   84.3800 O.co2     3 ASP3        0.0000 
     77 OD1        73.0900   41.8000   85.5700 O.co2     3 ASP3        0.0000 
     78 OD1        77.3000   40.5400   84.5800 O.co2     3 ASP3        0.0000 
     79 OD1        75.8000   43.0900   84.0700 O.co2     3 ASP3        0.0000 
     80 OD1        75.6800   41.5400   85.5100 O.co2     3 ASP3        0.0000 
     81 OD1        74.9300   42.8200   85.2600 O.co2     3 ASP3        0.0000 
     82 OD1        74.0500   42.5400   86.4500 O.co2     3 ASP3        0.0000 
     83 OD1        78.2600   41.2800   85.4600 O.co2     3 ASP3        0.0000 
     84 OD1        76.7600   43.8300   84.9500 O.co2     3 ASP3        0.0000 
     85 OD1        75.8900   43.5600   86.1400 O.co2     3 ASP3        0.0000 
     86 NZ         69.4300   42.5700   73.5900 N.4       4 LYS4        0.0000 
     87 NZ         71.2700   43.5900   73.2800 N.4       4 LYS4        0.0000 
     88 NZ         70.4000   43.3100   74.4700 N.4       4 LYS4        0.0000 
     89 NZ         69.5200   43.0400   75.6500 N.4       4 LYS4        0.0000 
     90 NZ         68.7800   44.3100   75.4000 N.4       4 LYS4        0.0000 
     91 NZ         72.2300   44.3300   74.1600 N.4       4 LYS4        0.0000 
     92 NZ         71.3600   44.0500   75.3500 N.4       4 LYS4        0.0000 
     93 NZ         70.4900   43.7700   76.5300 N.4       4 LYS4        0.0000 
     94 NZ         69.7400   45.0500   76.2800 N.4       4 LYS4        0.0000 
     95 NZ         73.2000   45.0700   75.0400 N.4       4 LYS4        0.0000 
     96 NZ         72.4500   46.3400   74.7900 N.4       4 LYS4        0.0000 
     97 NZ         72.3200   44.7900   76.2300 N.4       4 LYS4        0.0000 
     98 NZ         71.5800   46.0700   75.9700 N.4       4 LYS4        0.0000 
     99 NZ         70.8300   47.3400   75.7200 N.4       4 LYS4        0.0000 
    100 NZ         72.7800   39.3200   82.8700 N.4       4 LYS4        0.0000 
    101 NZ         73.7500   40.0600   83.7500 N.4       4 LYS4        0.0000 
    102 NZ         72.8700   39.7900   84.9400 N.4       4 LYS4        0.0000 
    103 NZ         77.9500   38.8000   82.7600 N.4       4 LYS4        0.0000 
    104 NZ         76.3300   39.8000   83.7000 N.4       4 LYS4        0.0000 
    105 NZ         75.4600   39.5300   84.8900 N.4       4 LYS4        0.0000 
    106 NZ         74.5900   39.2500   86.0700 N.4       4 LYS4        0.0000 
    107 NZ         72.3400   43.0800   85.3100 N.4       4 LYS4        0.0000 
    108 NZ         79.1300   41.5600   84.2700 N.4       4 LYS4        0.0000 
    109 CZ         74.4800   40.5000   74.9200 C.ar      5 PHE5        0.0000 
    110 CZ         73.7300   41.7700   74.6700 C.ar      5 PHE5        0.0000 
    111 CZ         72.9800   43.0500   74.4100 C.ar      5 PHE5        0.0000 
    112 CZ         74.8200   44.0700   74.1000 C.ar      5 PHE5        0.0000 
    113 CZ         76.1900   39.9600   76.0500 C.ar      5 PHE5        0.0000 
    114 CZ         75.4400   41.2400   75.8000 C.ar      5 PHE5        0.0000 
    115 CZ         74.6900   42.5100   75.5500 C.ar      5 PHE5        0.0000 
    116 CZ         73.9500   43.7900   75.2900 C.ar      5 PHE5        0.0000 
    117 CZ         71.3300   42.9600   78.8600 C.ar      5 PHE5        0.0000 
    118 CZ         70.4500   42.6900   80.0400 C.ar      5 PHE5        0.0000 
    119 CZ         75.7800   44.8000   74.9800 C.ar      5 PHE5        0.0000 
    120 CZ         75.0400   46.0800   74.7300 C.ar      5 PHE5        0.0000 
    121 CZ         77.0200   39.1500   78.3700 C.ar      5 PHE5        0.0000 
    122 CZ         76.2800   40.4300   78.1200 C.ar      5 PHE5        0.0000 
    123 CZ         71.7900   48.0800   76.6000 C.ar      5 PHE5        0.0000 
    124 CZ         76.1500   38.8700   79.5600 C.ar      5 PHE5        0.0000 
    125 CZ         75.4000   40.1500   79.3100 C.ar      5 PHE5        0.0000 
    126 CZ         73.1600   43.9800   78.5500 C.ar      5 PHE5        0.0000 
    127 CZ         73.0400   42.4300   79.9900 C.ar      5 PHE5        0.0000 
    128 CZ         72.2900   43.7000   79.7400 C.ar      5 PHE5        0.0000 
    129 CZ         72.1600   42.1500   81.1800 C.ar      5 PHE5        0.0000 
    130 CZ         71.2900   41.8700   82.3700 C.ar      5 PHE5        0.0000 
    131 CZ         76.7500   45.5400   75.8700 C.ar      5 PHE5        0.0000 
    132 CZ         73.3800   45.9900   79.1800 C.ar      5 PHE5        0.0000 
    133 CZ         75.4900   40.6100   81.3800 C.ar      5 PHE5        0.0000 
    134 CZ         74.7500   41.8900   81.1200 C.ar      5 PHE5        0.0000 
    135 CZ         74.0000   43.1600   80.8700 C.ar      5 PHE5        0.0000 
    136 CZ         73.1300   42.8900   82.0600 C.ar      5 PHE5        0.0000 
    137 CZ         73.6200   38.5100   85.1900 C.ar      5 PHE5        0.0000 
    138 CZ         77.2100   40.0800   82.5100 C.ar      5 PHE5        0.0000 
    139 CZ         76.4600   41.3500   82.2600 C.ar      5 PHE5        0.0000 
    140 CZ         75.7100   42.6300   82.0000 C.ar      5 PHE5        0.0000 
    141 CZ         79.7900   39.8200   82.4600 C.ar      5 PHE5        0.0000 
    142 CZ         78.1700   40.8200   83.3900 C.ar      5 PHE5        0.0000 
    143 CZ         77.4200   42.0900   83.1400 C.ar      5 PHE5        0.0000 
    144 CA         66.6300   40.8200   73.0100 C.3       6 GLY6        0.0000 
    145 CA         65.7600   40.5400   74.2000 C.3       6 GLY6        0.0000 
    146 CA         65.0100   41.8200   73.9500 C.3       6 GLY6        0.0000 
    147 CA         66.8500   42.8300   73.6400 C.3       6 GLY6        0.0000 
    148 CA         71.0500   41.5700   72.6500 C.3       6 GLY6        0.0000 
    149 CA         70.3100   42.8500   72.4000 C.3       6 GLY6        0.0000 
    150 CA         70.1800   41.3000   73.8400 C.3       6 GLY6        0.0000 
    151 CA         67.8100   43.5700   74.5200 C.3       6 GLY6        0.0000 
    152 CA         72.7700   41.0400   73.7900 C.3       6 GLY6        0.0000 
    153 CA         72.0200   42.3100   73.5300 C.3       6 GLY6        0.0000 
    154 CA         67.7800   42.4800   78.0300 C.3       6 GLY6        0.0000 
    155 CA         73.1100   44.6000   72.9700 C.3       6 GLY6        0.0000 
    156 CA         73.6000   40.2200   76.1100 C.3       6 GLY6        0.0000 
    157 CA         74.0700   45.3400   73.8500 C.3       6 GLY6        0.0000 
    158 CA         71.4500   44.5100   77.4200 C.3       6 GLY6        0.0000 
    159 CA         70.7000   45.7900   77.1600 C.3       6 GLY6        0.0000 
    160 CA         70.5800   44.2400   78.6000 C.3       6 GLY6        0.0000 
    161 CA         72.4200   45.2500   78.3000 C.3       6 GLY6        0.0000 
    162 CA         71.6700   46.5300   78.0400 C.3       6 GLY6        0.0000 
    163 CA         70.9200   47.8000   77.7900 C.3       6 GLY6        0.0000 
    164 DU         68.5600   42.3000   74.7700 H         7 CUB7        0.0000 
    165 DU         72.1100   42.7700   75.6000 H         7 CUB7        0.0000 
    166 DU         71.2400   42.5000   76.7900 H         7 CUB7        0.0000 
    167 DU         74.5700   40.9600   76.9900 H         7 CUB7        0.0000 
    168 DU         73.8200   42.2400   76.7300 H         7 CUB7        0.0000 
    169 DU         73.6900   40.6900   78.1700 H         7 CUB7        0.0000 
    170 DU         72.9500   41.9600   77.9200 H         7 CUB7        0.0000 
    171 DU         72.2000   43.2400   77.6700 H         7 CUB7        0.0000 
    172 DU         74.9100   44.5300   76.1700 H         7 CUB7        0.0000 
    173 DU         74.1600   45.8000   75.9200 H         7 CUB7        0.0000 
    174 DU         74.0400   44.2500   77.3600 H         7 CUB7        0.0000 
    175 DU         73.2900   45.5300   77.1100 H         7 CUB7        0.0000 
    176 DU         72.5400   46.8000   76.8500 H         7 CUB7        0.0000 
    177 DU         73.7800   41.1500   80.2400 H         7 CUB7        0.0000 
    178 DU         72.9100   40.8700   81.4300 H         7 CUB7        0.0000 
    179 DU         74.2500   46.2700   77.9900 H         7 CUB7        0.0000 
    180 DU         73.8700   41.6100   82.3100 H         7 CUB7        0.0000 
    181 DU         75.5800   41.0800   83.4400 H         7 CUB7        0.0000 
    182 DU         74.8400   42.3500   83.1900 H         7 CUB7        0.0000 
    183 DU         74.7100   40.8000   84.6300 H         7 CUB7        0.0000 
    184 DU         76.6700   43.3700   82.8800 H         7 CUB7        0.0000 
    185 DU         76.5500   41.8200   84.3200 H         7 CUB7        0.0000 
    186 DU         78.3900   42.8300   84.0200 H         7 CUB7        0.0000 
@<TRIPOS>BOND
@<TRIPOS>SUBSTRUCTURE
     1 SER1        1 GROUP   
     2 ALA2       18 GROUP   
     3 ASP3       55 GROUP   
     4 LYS4       86 GROUP   
     5 PHE5      109 GROUP   
     6 GLY6      144 GROUP   
     7 CUB7      164 GROUP   
@<TRIPOS>SET

