#    Name: 6oix_3_GTP
#    Modification time : Fri May 22 19:28:40 2020

@<TRIPOS>MOLECULE
6oix_3_GTP
   32    34     1     0     1
SMALL
NO_CHARGES


@<TRIPOS>ATOM
      1 PG         15.2840   19.1450   49.5750 P.3       1 GTP601      0.0000 
      2 O1G        16.3500   18.1110   49.7770 O.co2     1 GTP601      0.0000 
      3 O2G        14.9050   19.4700   48.0690 O.co2     1 GTP601      0.0000 
      4 O3G        14.0590   18.7640   50.3690 O.co2     1 GTP601      0.0000 
      5 O3B        15.8140   20.5030   50.2220 O.3       1 GTP601      0.0000 
      6 PB         17.2770   20.9430   50.6890 P.3       1 GTP601      0.0000 
      7 O1B        17.2320   22.0210   51.7160 O.co2     1 GTP601      0.0000 
      8 O2B        18.0000   19.6870   51.2740 O.co2     1 GTP601      0.0000 
      9 O3A        18.0310   21.4410   49.3710 O.3       1 GTP601      0.0000 
     10 PA         17.6250   22.2740   48.0690 P.3       1 GTP601      0.0000 
     11 O1A        18.4210   21.8720   46.8870 O.co2     1 GTP601      0.0000 
     12 O2A        16.1300   21.9910   47.7770 O.co2     1 GTP601      0.0000 
     13 O5'        17.9070   23.8250   48.4980 O.3       1 GTP601      0.0000 
     14 C5'        19.2530   24.3120   48.7040 C.3       1 GTP601      0.0000 
     15 C4'        19.3120   25.5580   49.5650 C.3       1 GTP601      0.0000 
     16 O4'        20.5830   26.2100   49.3610 O.3       1 GTP601      0.0000 
     17 C3'        18.2250   26.6200   49.3550 C.3       1 GTP601      0.0000 
     18 O3'        17.3980   26.7490   50.5070 O.3       1 GTP601      0.0000 
     19 C2'        18.9880   27.9200   49.0260 C.3       1 GTP601      0.0000 
     20 O2'        19.0480   28.8460   50.1070 O.3       1 GTP601      0.0000 
     21 C1'        20.3930   27.4340   48.6820 C.3       1 GTP601      0.0000 
     22 N9         20.7390   27.2640   47.2360 N.pl3     1 GTP601      0.0000 
     23 C8         19.9500   26.8740   46.1770 C.2       1 GTP601      0.0000 
     24 N7         20.5960   26.7930   45.0370 N.2       1 GTP601      0.0000 
     25 C5         21.8970   27.1550   45.3520 C.2       1 GTP601      0.0000 
     26 C6         23.1420   27.2400   44.5350 C.2       1 GTP601      0.0000 
     27 O6         23.2760   27.0070   43.3300 O.2       1 GTP601      0.0000 
     28 N1         24.2460   27.5820   45.3060 N.am      1 GTP601      0.0000 
     29 C2         24.2370   27.7750   46.6740 C.2       1 GTP601      0.0000 
     30 N2         25.4260   27.8260   47.2900 N.pl3     1 GTP601      0.0000 
     31 N3         23.1240   27.7580   47.4140 N.2       1 GTP601      0.0000 
     32 C4         22.0030   27.4410   46.7080 C.2       1 GTP601      0.0000 
@<TRIPOS>BOND
     1    1    2 ar   
     2    1    3 ar   
     3    1    4 ar   
     4    1    5 1    
     5    5    6 1    
     6    6    7 ar   
     7    6    8 ar   
     8    6    9 1    
     9    9   10 1    
    10   10   11 ar   
    11   10   12 ar   
    12   10   13 1    
    13   13   14 1    
    14   14   15 1    
    15   15   16 1    
    16   15   17 1    
    17   16   21 1    
    18   17   18 1    
    19   17   19 1    
    20   19   20 1    
    21   19   21 1    
    22   21   22 1    
    23   22   23 1    
    24   22   32 1    
    25   23   24 2    
    26   24   25 1    
    27   25   26 1    
    28   25   32 2    
    29   26   27 2    
    30   26   28 am   
    31   28   29 1    
    32   29   30 1    
    33   29   31 2    
    34   31   32 1    
@<TRIPOS>SUBSTRUCTURE
     1 GTP601      1 GROUP   
@<TRIPOS>SET
ATOM$ORANGE STATIC     ATOMS   COLORGROUP SYSTEM 
20 14 14 15 15 17 17 19 19 21 21 23 23 25 25 26 26 29 \
29 32 32 

