#    Name: 6oix_1_GTP
#    Modification time : Fri May 22 19:28:15 2020

@<TRIPOS>MOLECULE
6oix_1_GTP
   32    34     1     0     1
SMALL
NO_CHARGES


@<TRIPOS>ATOM
      1 PG         65.1340   34.3790   26.6130 P.3       1 GTP601      0.0000 
      2 O1G        64.8850   33.0540   26.0180 O.co2     1 GTP601      0.0000 
      3 O2G        66.5840   34.7340   26.6530 O.co2     1 GTP601      0.0000 
      4 O3G        64.2050   35.4700   26.2570 O.co2     1 GTP601      0.0000 
      5 O3B        64.6910   34.1540   28.1200 O.3       1 GTP601      0.0000 
      6 PB         64.4330   35.4500   29.0040 P.3       1 GTP601      0.0000 
      7 O1B        65.2660   36.5630   28.4680 O.co2     1 GTP601      0.0000 
      8 O2B        62.9730   35.7430   29.0900 O.co2     1 GTP601      0.0000 
      9 O3A        65.0300   34.9370   30.3830 O.3       1 GTP601      0.0000 
     10 PA         66.5610   34.5470   30.4230 P.3       1 GTP601      0.0000 
     11 O1A        66.7470   33.0870   30.6180 O.co2     1 GTP601      0.0000 
     12 O2A        67.2420   35.1820   29.2870 O.co2     1 GTP601      0.0000 
     13 O5'        67.0100   35.3030   31.7260 O.3       1 GTP601      0.0000 
     14 C5'        66.6310   34.8510   33.0080 C.3       1 GTP601      0.0000 
     15 C4'        66.2970   36.0640   33.8340 C.3       1 GTP601      0.0000 
     16 O4'        66.1830   35.6470   35.1670 O.3       1 GTP601      0.0000 
     17 C3'        67.3790   37.1070   33.8050 C.3       1 GTP601      0.0000 
     18 O3'        66.8080   38.3450   33.3750 O.3       1 GTP601      0.0000 
     19 C2'        67.9640   37.1530   35.2050 C.3       1 GTP601      0.0000 
     20 O2'        67.6730   38.3770   35.8640 O.3       1 GTP601      0.0000 
     21 C1'        67.2840   36.0450   35.9570 C.3       1 GTP601      0.0000 
     22 N9         68.0210   34.7780   36.1380 N.pl3     1 GTP601      0.0000 
     23 C8         68.9020   34.1970   35.3340 C.2       1 GTP601      0.0000 
     24 N7         69.3130   33.0200   35.8390 N.2       1 GTP601      0.0000 
     25 C5         68.6670   32.8260   36.9890 C.2       1 GTP601      0.0000 
     26 C6         68.6190   31.7990   38.0520 C.2       1 GTP601      0.0000 
     27 O6         69.3140   30.7670   38.0110 O.2       1 GTP601      0.0000 
     28 N1         67.7980   32.0020   39.0760 N.am      1 GTP601      0.0000 
     29 C2         67.0600   33.0940   39.1650 C.2       1 GTP601      0.0000 
     30 N2         66.2790   33.2280   40.2300 N.pl3     1 GTP601      0.0000 
     31 N3         67.0510   34.0610   38.2540 N.2       1 GTP601      0.0000 
     32 C4         67.8160   33.9820   37.1640 C.2       1 GTP601      0.0000 
@<TRIPOS>BOND
     1    1    2 ar   
     2    1    3 ar   
     3    1    4 ar   
     4    1    5 1    
     5    5    6 1    
     6    6    7 ar   
     7    6    8 ar   
     8    6    9 1    
     9    9   10 1    
    10   10   11 ar   
    11   10   12 ar   
    12   10   13 1    
    13   13   14 1    
    14   14   15 1    
    15   15   16 1    
    16   15   17 1    
    17   16   21 1    
    18   17   18 1    
    19   17   19 1    
    20   19   20 1    
    21   19   21 1    
    22   21   22 1    
    23   22   23 1    
    24   22   32 1    
    25   23   24 2    
    26   24   25 1    
    27   25   26 1    
    28   25   32 2    
    29   26   27 2    
    30   26   28 am   
    31   28   29 1    
    32   29   30 1    
    33   29   31 2    
    34   31   32 1    
@<TRIPOS>SUBSTRUCTURE
     1 GTP601      1 GROUP   
@<TRIPOS>SET
ATOM$ORANGE STATIC     ATOMS   COLORGROUP SYSTEM 
20 14 14 15 15 17 17 19 19 21 21 23 23 25 25 26 26 29 \
29 32 32 

