#    Name: 6oix_2_GTP
#    Modification time : Fri May 22 19:28:28 2020

@<TRIPOS>MOLECULE
6oix_2_GTP
   32    34     1     0     1
SMALL
NO_CHARGES


@<TRIPOS>ATOM
      1 PG         63.4810    2.7480   74.3230 P.3       1 GTP601      0.0000 
      2 O1G        62.1110    2.3140   74.8080 O.co2     1 GTP601      0.0000 
      3 O2G        64.4100    1.5420   74.0550 O.co2     1 GTP601      0.0000 
      4 O3G        63.4330    3.6250   73.0370 O.co2     1 GTP601      0.0000 
      5 O3B        64.1870    3.6390   75.4430 O.3       1 GTP601      0.0000 
      6 PB         64.3960    5.2020   75.6850 P.3       1 GTP601      0.0000 
      7 O1B        65.4460    5.3490   76.7170 O.co2     1 GTP601      0.0000 
      8 O2B        64.8940    5.8440   74.3700 O.co2     1 GTP601      0.0000 
      9 O3A        63.0610    5.9350   76.1720 O.3       1 GTP601      0.0000 
     10 PA         61.5260    5.9910   75.7290 P.3       1 GTP601      0.0000 
     11 O1A        61.4200    5.5290   74.3320 O.co2     1 GTP601      0.0000 
     12 O2A        60.7130    5.0300   76.6140 O.co2     1 GTP601      0.0000 
     13 O5'        60.8850    7.4770   75.8730 O.3       1 GTP601      0.0000 
     14 C5'        60.7500    8.0690   77.1790 C.3       1 GTP601      0.0000 
     15 C4'        59.7550    9.2000   77.1540 C.3       1 GTP601      0.0000 
     16 O4'        58.5710    8.7910   76.4540 O.3       1 GTP601      0.0000 
     17 C3'        59.2650    9.6570   78.5290 C.3       1 GTP601      0.0000 
     18 O3'        59.9750   10.8070   78.9730 O.3       1 GTP601      0.0000 
     19 C2'        57.7810    9.9920   78.3120 C.3       1 GTP601      0.0000 
     20 O2'        57.5460   11.3640   78.6030 O.3       1 GTP601      0.0000 
     21 C1'        57.5640    9.7010   76.8240 C.3       1 GTP601      0.0000 
     22 N9         56.2490    9.1150   76.4890 N.pl3     1 GTP601      0.0000 
     23 C8         55.7460    7.8960   76.8770 C.2       1 GTP601      0.0000 
     24 N7         54.5500    7.6420   76.3970 N.2       1 GTP601      0.0000 
     25 C5         54.2370    8.7640   75.6440 C.2       1 GTP601      0.0000 
     26 C6         53.0710    9.0970   74.8200 C.2       1 GTP601      0.0000 
     27 O6         52.0600    8.4110   74.6390 O.2       1 GTP601      0.0000 
     28 N1         53.2150   10.3190   74.1750 N.am      1 GTP601      0.0000 
     29 C2         54.3180   11.1400   74.2590 C.2       1 GTP601      0.0000 
     30 N2         54.3330   12.2210   73.4680 N.pl3     1 GTP601      0.0000 
     31 N3         55.3800   10.8700   75.0250 N.2       1 GTP601      0.0000 
     32 C4         55.2810    9.6810   75.6840 C.2       1 GTP601      0.0000 
@<TRIPOS>BOND
     1    1    2 ar   
     2    1    3 ar   
     3    1    4 ar   
     4    1    5 1    
     5    5    6 1    
     6    6    7 ar   
     7    6    8 ar   
     8    6    9 1    
     9    9   10 1    
    10   10   11 ar   
    11   10   12 ar   
    12   10   13 1    
    13   13   14 1    
    14   14   15 1    
    15   15   16 1    
    16   15   17 1    
    17   16   21 1    
    18   17   18 1    
    19   17   19 1    
    20   19   20 1    
    21   19   21 1    
    22   21   22 1    
    23   22   23 1    
    24   22   32 1    
    25   23   24 2    
    26   24   25 1    
    27   25   26 1    
    28   25   32 2    
    29   26   27 2    
    30   26   28 am   
    31   28   29 1    
    32   29   30 1    
    33   29   31 2    
    34   31   32 1    
@<TRIPOS>SUBSTRUCTURE
     1 GTP601      1 GROUP   
@<TRIPOS>SET
ATOM$ORANGE STATIC     ATOMS   COLORGROUP SYSTEM 
20 14 14 15 15 17 17 19 19 21 21 23 23 25 25 26 26 29 \
29 32 32 

