#    Name: 6oix_5_GTP_CAVITY_N1_4
#    Modification time : Fri May 22 19:29:08 2020

@<TRIPOS>MOLECULE
6oix_5_GTP_CAVITY_N1_4
   93     0     7     0     0
SMALL
NO_CHARGES


@<TRIPOS>ATOM
      1 OG         24.7400   37.6900   83.1600 O.3       1 SER1        0.0000 
      2 OG         23.9900   38.9700   82.9000 O.3       1 SER1        0.0000 
      3 OG         26.7100   40.2600   81.4100 O.3       1 SER1        0.0000 
      4 OG         25.8300   39.9800   82.6000 O.3       1 SER1        0.0000 
      5 OG         25.7100   38.4300   84.0400 O.3       1 SER1        0.0000 
      6 OG         26.6700   39.1700   84.9200 O.3       1 SER1        0.0000 
      7 OG         26.5400   37.6200   86.3600 O.3       1 SER1        0.0000 
      8 OG         25.8000   38.9000   86.1100 O.3       1 SER1        0.0000 
      9 N          23.5600   34.9400   81.6500 N.am      2 ALA2        0.0000 
     10 O          22.8100   36.2200   81.4000 O.2       2 ALA2        0.0000 
     11 O          25.5300   37.5100   79.9000 O.2       2 ALA2        0.0000 
     12 O          24.6500   37.2300   81.0900 O.2       2 ALA2        0.0000 
     13 O          28.1100   37.2500   79.8500 O.2       2 ALA2        0.0000 
     14 N          31.6200   36.6400   84.1800 N.am      2 ALA2        0.0000 
     15 OD1        22.0700   37.4900   81.1400 O.co2     3 ASP3        0.0000 
     16 OD1        26.4000   37.7800   78.7100 O.co2     3 ASP3        0.0000 
     17 OD1        27.3600   38.5200   79.5900 O.co2     3 ASP3        0.0000 
     18 OD1        26.6200   39.8000   79.3400 O.co2     3 ASP3        0.0000 
     19 OD1        25.7400   39.5200   80.5300 O.co2     3 ASP3        0.0000 
     20 OD1        26.6300   38.0800   88.4300 O.co2     3 ASP3        0.0000 
     21 OD1        30.9600   38.3800   86.0000 O.co2     3 ASP3        0.0000 
     22 OD1        30.2200   39.6500   85.7400 O.co2     3 ASP3        0.0000 
     23 OD1        29.4700   40.9300   85.4900 O.co2     3 ASP3        0.0000 
     24 OD1        32.6800   37.8400   87.1300 O.co2     3 ASP3        0.0000 
     25 OD1        30.4300   41.6700   86.3700 O.co2     3 ASP3        0.0000 
     26 OD1        31.8000   37.5600   88.3200 O.co2     3 ASP3        0.0000 
     27 OD1        31.0600   38.8400   88.0700 O.co2     3 ASP3        0.0000 
     28 OD1        30.3100   40.1100   87.8100 O.co2     3 ASP3        0.0000 
     29 OD1        32.0200   39.5800   88.9500 O.co2     3 ASP3        0.0000 
     30 OD1        31.2700   40.8500   88.6900 O.co2     3 ASP3        0.0000 
     31 NZ         24.5300   35.6800   82.5300 N.4       4 LYS4        0.0000 
     32 NZ         30.1600   40.2800   80.1700 N.4       4 LYS4        0.0000 
     33 NZ         30.7800   37.4500   81.8600 N.4       4 LYS4        0.0000 
     34 NZ         30.0400   38.7200   81.6100 N.4       4 LYS4        0.0000 
     35 NZ         29.2900   40.0000   81.3500 N.4       4 LYS4        0.0000 
     36 NZ         29.9100   37.1700   83.0500 N.4       4 LYS4        0.0000 
     37 NZ         29.1600   38.4500   82.8000 N.4       4 LYS4        0.0000 
     38 NZ         28.4200   39.7200   82.5400 N.4       4 LYS4        0.0000 
     39 NZ         30.8700   37.9100   83.9300 N.4       4 LYS4        0.0000 
     40 NZ         29.3800   40.4600   83.4200 N.4       4 LYS4        0.0000 
     41 NZ         29.2500   38.9100   84.8600 N.4       4 LYS4        0.0000 
     42 CZ         25.2700   34.4000   82.7800 C.ar      5 PHE5        0.0000 
     43 CZ         23.7800   36.9500   82.2800 C.ar      5 PHE5        0.0000 
     44 CZ         23.0300   38.2300   82.0200 C.ar      5 PHE5        0.0000 
     45 CZ         27.1100   35.4200   82.4800 C.ar      5 PHE5        0.0000 
     46 CZ         25.4900   36.4200   83.4100 C.ar      5 PHE5        0.0000 
     47 CZ         28.9500   36.4300   82.1700 C.ar      5 PHE5        0.0000 
     48 CZ         28.0700   36.1600   83.3600 C.ar      5 PHE5        0.0000 
     49 CZ         26.4500   37.1600   84.2900 C.ar      5 PHE5        0.0000 
     50 CZ         29.0400   36.9000   84.2400 C.ar      5 PHE5        0.0000 
     51 CZ         26.8000   40.7200   83.4800 C.ar      5 PHE5        0.0000 
     52 CZ         27.4200   37.9000   85.1700 C.ar      5 PHE5        0.0000 
     53 CZ         29.1300   37.3600   86.3000 C.ar      5 PHE5        0.0000 
     54 CZ         28.2500   37.0800   87.4900 C.ar      5 PHE5        0.0000 
     55 CA         26.2700   36.2300   80.1600 C.3       6 GLY6        0.0000 
     56 CA         25.4000   35.9500   81.3400 C.3       6 GLY6        0.0000 
     57 CA         27.2400   36.9700   81.0400 C.3       6 GLY6        0.0000 
     58 CA         26.3600   36.6900   82.2200 C.3       6 GLY6        0.0000 
     59 CA         29.8200   36.7100   80.9800 C.3       6 GLY6        0.0000 
     60 CA         30.6600   35.9000   83.3000 C.3       6 GLY6        0.0000 
     61 CA         27.6700   41.0000   82.2900 C.3       6 GLY6        0.0000 
     62 CA         30.0000   37.6400   85.1200 C.3       6 GLY6        0.0000 
     63 CA         27.7600   41.4600   84.3600 C.3       6 GLY6        0.0000 
     64 CA         31.7100   37.1000   86.2500 C.3       6 GLY6        0.0000 
     65 CA         30.8400   36.8200   87.4400 C.3       6 GLY6        0.0000 
     66 CA         30.0900   38.1000   87.1900 C.3       6 GLY6        0.0000 
     67 CA         29.9700   36.5500   88.6300 C.3       6 GLY6        0.0000 
     68 CA         29.2200   37.8200   88.3700 C.3       6 GLY6        0.0000 
     69 CA         30.9300   37.2900   89.5100 C.3       6 GLY6        0.0000 
     70 DU         23.9000   38.5100   80.8400 H         7 CUB7        0.0000 
     71 DU         26.4900   38.2500   80.7800 H         7 CUB7        0.0000 
     72 DU         25.6200   37.9700   81.9700 H         7 CUB7        0.0000 
     73 DU         24.8700   39.2500   81.7200 H         7 CUB7        0.0000 
     74 DU         29.0700   37.9800   80.7300 H         7 CUB7        0.0000 
     75 DU         28.3300   39.2600   80.4700 H         7 CUB7        0.0000 
     76 DU         28.2000   37.7100   81.9200 H         7 CUB7        0.0000 
     77 DU         27.4500   38.9800   81.6600 H         7 CUB7        0.0000 
     78 DU         27.3300   37.4300   83.1000 H         7 CUB7        0.0000 
     79 DU         26.5800   38.7100   82.8500 H         7 CUB7        0.0000 
     80 DU         28.2900   38.1700   83.9800 H         7 CUB7        0.0000 
     81 DU         27.5400   39.4500   83.7300 H         7 CUB7        0.0000 
     82 DU         28.5100   40.1900   84.6100 H         7 CUB7        0.0000 
     83 DU         28.3800   38.6400   86.0500 H         7 CUB7        0.0000 
     84 DU         27.6300   39.9100   85.8000 H         7 CUB7        0.0000 
     85 DU         26.8900   41.1900   85.5500 H         7 CUB7        0.0000 
     86 DU         27.5100   38.3600   87.2400 H         7 CUB7        0.0000 
     87 DU         29.3400   39.3800   86.9300 H         7 CUB7        0.0000 
     88 DU         28.6000   40.6500   86.6800 H         7 CUB7        0.0000 
     89 DU         28.4700   39.1000   88.1200 H         7 CUB7        0.0000 
     90 DU         29.5600   41.3900   87.5600 H         7 CUB7        0.0000 
     91 DU         30.1800   38.5600   89.2500 H         7 CUB7        0.0000 
     92 DU         29.4300   39.8400   89.0000 H         7 CUB7        0.0000 
     93 DU         28.6900   41.1100   88.7500 H         7 CUB7        0.0000 
@<TRIPOS>BOND
@<TRIPOS>SUBSTRUCTURE
     1 SER1        1 GROUP   
     2 ALA2        9 GROUP   
     3 ASP3       15 GROUP   
     4 LYS4       31 GROUP   
     5 PHE5       42 GROUP   
     6 GLY6       55 GROUP   
     7 CUB7       70 GROUP   
@<TRIPOS>SET

