#    Name: 6oix_6_GTP
#    Modification time : Fri May 22 19:29:18 2020

@<TRIPOS>MOLECULE
6oix_6_GTP
   32    34     1     0     1
SMALL
NO_CHARGES


@<TRIPOS>ATOM
      1 PG         50.1670   68.9210   42.8100 P.3       1 GTP601      0.0000 
      2 O1G        48.7140   69.2570   42.5080 O.co2     1 GTP601      0.0000 
      3 O2G        51.1550   69.7520   42.0110 O.co2     1 GTP601      0.0000 
      4 O3G        50.5570   69.0170   44.2930 O.co2     1 GTP601      0.0000 
      5 O3B        50.5160   67.4180   42.4170 O.3       1 GTP601      0.0000 
      6 PB         49.7490   66.0390   42.6430 P.3       1 GTP601      0.0000 
      7 O1B        50.1910   65.0570   41.6230 O.co2     1 GTP601      0.0000 
      8 O2B        50.0640   65.4790   44.0500 O.co2     1 GTP601      0.0000 
      9 O3A        48.1860   66.3490   42.5010 O.3       1 GTP601      0.0000 
     10 PA         46.8610   66.1160   43.3640 P.3       1 GTP601      0.0000 
     11 O1A        47.1890   66.1530   44.8040 O.co2     1 GTP601      0.0000 
     12 O2A        45.9290   67.2930   43.0350 O.co2     1 GTP601      0.0000 
     13 O5'        46.1460   64.6760   43.0330 O.3       1 GTP601      0.0000 
     14 C5'        46.9640   63.6110   42.4960 C.3       1 GTP601      0.0000 
     15 C4'        46.1990   62.3260   42.3080 C.3       1 GTP601      0.0000 
     16 O4'        45.5320   61.9800   43.5330 O.3       1 GTP601      0.0000 
     17 C3'        45.0980   62.3230   41.2550 C.3       1 GTP601      0.0000 
     18 O3'        45.5870   62.0910   39.9380 O.3       1 GTP601      0.0000 
     19 C2'        44.2070   61.1760   41.7240 C.3       1 GTP601      0.0000 
     20 O2'        44.6970   59.9260   41.2650 O.3       1 GTP601      0.0000 
     21 C1'        44.3610   61.2420   43.2460 C.3       1 GTP601      0.0000 
     22 N9         43.2310   61.8600   43.9640 N.pl3     1 GTP601      0.0000 
     23 C8         42.6270   63.0720   43.7350 C.2       1 GTP601      0.0000 
     24 N7         41.6880   63.3640   44.6020 N.2       1 GTP601      0.0000 
     25 C5         41.6700   62.2760   45.4620 C.2       1 GTP601      0.0000 
     26 C6         40.8800   61.9920   46.6510 C.2       1 GTP601      0.0000 
     27 O6         39.9880   62.6890   47.1410 O.2       1 GTP601      0.0000 
     28 N1         41.2180   60.7770   47.2280 N.am      1 GTP601      0.0000 
     29 C2         42.1810   59.9180   46.7570 C.2       1 GTP601      0.0000 
     30 N2         42.4010   58.8030   47.4620 N.pl3     1 GTP601      0.0000 
     31 N3         42.9080   60.1560   45.6660 N.2       1 GTP601      0.0000 
     32 C4         42.6130   61.3380   45.0750 C.2       1 GTP601      0.0000 
@<TRIPOS>BOND
     1    1    2 ar   
     2    1    3 ar   
     3    1    4 ar   
     4    1    5 1    
     5    5    6 1    
     6    6    7 ar   
     7    6    8 ar   
     8    6    9 1    
     9    9   10 1    
    10   10   11 ar   
    11   10   12 ar   
    12   10   13 1    
    13   13   14 1    
    14   14   15 1    
    15   15   16 1    
    16   15   17 1    
    17   16   21 1    
    18   17   18 1    
    19   17   19 1    
    20   19   20 1    
    21   19   21 1    
    22   21   22 1    
    23   22   23 1    
    24   22   32 1    
    25   23   24 2    
    26   24   25 1    
    27   25   26 1    
    28   25   32 2    
    29   26   27 2    
    30   26   28 am   
    31   28   29 1    
    32   29   30 1    
    33   29   31 2    
    34   31   32 1    
@<TRIPOS>SUBSTRUCTURE
     1 GTP601      1 GROUP   
@<TRIPOS>SET
ATOM$ORANGE STATIC     ATOMS   COLORGROUP SYSTEM 
20 14 14 15 15 17 17 19 19 21 21 23 23 25 25 26 26 29 \
29 32 32 

