#    Name: 6oix_3_GTP_CAVITY_N1_4
#    Modification time : Fri May 22 19:28:42 2020

@<TRIPOS>MOLECULE
6oix_3_GTP_CAVITY_N1_4
  129     0     7     0     0
SMALL
NO_CHARGES


@<TRIPOS>ATOM
      1 OG         14.3400   19.4400   48.5400 O.3       1 SER1        0.0000 
      2 OG         16.3000   22.0000   46.7900 O.3       1 SER1        0.0000 
      3 OG         19.1400   24.8400   43.8500 O.3       1 SER1        0.0000 
      4 OG         18.1400   23.0200   46.4800 O.3       1 SER1        0.0000 
      5 OG         17.2600   22.7400   47.6700 O.3       1 SER1        0.0000 
      6 OG         20.8500   24.3100   44.9900 O.3       1 SER1        0.0000 
      7 OG         20.1000   25.5800   44.7300 O.3       1 SER1        0.0000 
      8 OG         19.9700   24.0300   46.1700 O.3       1 SER1        0.0000 
      9 OG         19.1000   23.7600   47.3600 O.3       1 SER1        0.0000 
     10 OG         18.2300   23.4800   48.5500 O.3       1 SER1        0.0000 
     11 OG         21.6800   23.5000   47.3100 O.3       1 SER1        0.0000 
     12 OG         20.1900   26.0500   46.8000 O.3       1 SER1        0.0000 
     13 OG         20.8100   23.2200   48.4900 O.3       1 SER1        0.0000 
     14 OG         19.3200   25.7700   47.9900 O.3       1 SER1        0.0000 
     15 OG         22.6500   24.2300   48.1900 O.3       1 SER1        0.0000 
     16 OG         21.7800   23.9600   49.3700 O.3       1 SER1        0.0000 
     17 N          15.1700   18.6200   50.8600 N.am      2 ALA2        0.0000 
     18 N          16.8800   18.0900   51.9900 N.am      2 ALA2        0.0000 
     19 O          19.4100   26.2300   50.0600 O.2       2 ALA2        0.0000 
     20 O          18.6600   27.5100   49.8000 O.2       2 ALA2        0.0000 
     21 O          18.5300   25.9600   51.2400 O.2       2 ALA2        0.0000 
     22 O          25.2300   23.9700   48.1300 O.2       2 ALA2        0.0000 
     23 N          22.8600   26.2500   48.8100 N.am      2 ALA2        0.0000 
     24 N          21.9900   25.9700   50.0000 N.am      2 ALA2        0.0000 
     25 N          21.2400   27.2500   49.7500 N.am      2 ALA2        0.0000 
     26 N          24.7000   27.2600   48.5100 N.am      2 ALA2        0.0000 
     27 N          24.5800   25.7100   49.9500 N.am      2 ALA2        0.0000 
     28 N          23.8300   26.9900   49.6900 N.am      2 ALA2        0.0000 
     29 OD1        15.3400   21.2600   45.9100 O.co2     3 ASP3        0.0000 
     30 OD1        15.2100   19.7100   47.3500 O.co2     3 ASP3        0.0000 
     31 OD1        14.4600   20.9900   47.1000 O.co2     3 ASP3        0.0000 
     32 OD1        13.5900   20.7100   48.2800 O.co2     3 ASP3        0.0000 
     33 OD1        13.4600   19.1600   49.7200 O.co2     3 ASP3        0.0000 
     34 OD1        11.9700   21.7100   49.2200 O.co2     3 ASP3        0.0000 
     35 OD1        16.1700   20.4500   48.2300 O.co2     3 ASP3        0.0000 
     36 OD1        16.7900   17.6200   49.9200 O.co2     3 ASP3        0.0000 
     37 OD1        16.0500   18.9000   49.6700 O.co2     3 ASP3        0.0000 
     38 OD1        14.4300   19.9000   50.6100 O.co2     3 ASP3        0.0000 
     39 OD1        13.6800   21.1700   50.3500 O.co2     3 ASP3        0.0000 
     40 OD1        21.6300   24.1200   41.7300 O.co2     3 ASP3        0.0000 
     41 OD1        20.8800   25.4000   41.4800 O.co2     3 ASP3        0.0000 
     42 OD1        17.8800   19.9100   49.3600 O.co2     3 ASP3        0.0000 
     43 OD1        17.0100   19.6400   50.5500 O.co2     3 ASP3        0.0000 
     44 OD1        23.3400   23.5800   42.8600 O.co2     3 ASP3        0.0000 
     45 OD1        21.8500   26.1400   42.3600 O.co2     3 ASP3        0.0000 
     46 OD1        21.7200   24.5800   43.8000 O.co2     3 ASP3        0.0000 
     47 OD1        17.3500   23.2000   49.7400 O.co2     3 ASP3        0.0000 
     48 OD1        17.2300   21.6500   51.1800 O.co2     3 ASP3        0.0000 
     49 OD1        16.4800   22.9300   50.9200 O.co2     3 ASP3        0.0000 
     50 OD1        24.3100   24.3200   43.7400 O.co2     3 ASP3        0.0000 
     51 OD1        23.5600   25.6000   43.4900 O.co2     3 ASP3        0.0000 
     52 OD1        22.8100   26.8700   43.2400 O.co2     3 ASP3        0.0000 
     53 OD1        18.3200   23.9400   50.6200 O.co2     3 ASP3        0.0000 
     54 OD1        17.5700   25.2200   50.3600 O.co2     3 ASP3        0.0000 
     55 OD1        20.1500   24.9600   50.3100 O.co2     3 ASP3        0.0000 
     56 OD1        19.2800   24.6800   51.5000 O.co2     3 ASP3        0.0000 
     57 OD1        22.7400   24.7000   50.2500 O.co2     3 ASP3        0.0000 
     58 OD1        21.1200   25.7000   51.1900 O.co2     3 ASP3        0.0000 
     59 NZ         12.8400   21.9900   48.0300 N.4       4 LYS4        0.0000 
     60 NZ         12.9300   22.4500   50.1000 N.4       4 LYS4        0.0000 
     61 NZ         17.7600   18.3600   50.8000 N.4       4 LYS4        0.0000 
     62 NZ         15.5200   22.1900   50.0400 N.4       4 LYS4        0.0000 
     63 NZ         15.3900   20.6400   51.4900 N.4       4 LYS4        0.0000 
     64 NZ         14.6400   21.9100   51.2300 N.4       4 LYS4        0.0000 
     65 NZ         24.5200   26.3400   44.3700 N.4       4 LYS4        0.0000 
     66 NZ         24.4000   24.7900   45.8100 N.4       4 LYS4        0.0000 
     67 NZ         23.6500   26.0600   45.5600 N.4       4 LYS4        0.0000 
     68 NZ         19.5300   27.7900   48.6200 N.4       4 LYS4        0.0000 
     69 NZ         24.6100   26.8000   46.4400 N.4       4 LYS4        0.0000 
     70 NZ         24.4900   25.2500   47.8800 N.4       4 LYS4        0.0000 
     71 NZ         25.5800   27.5400   47.3200 N.4       4 LYS4        0.0000 
     72 CZ         14.5900   22.5400   45.6500 C.ar      5 PHE5        0.0000 
     73 CZ         13.7200   22.2600   46.8400 C.ar      5 PHE5        0.0000 
     74 CZ         14.2100   17.8800   49.9800 C.ar      5 PHE5        0.0000 
     75 CZ         15.4300   21.7300   47.9800 C.ar      5 PHE5        0.0000 
     76 CZ         14.6800   23.0000   47.7200 C.ar      5 PHE5        0.0000 
     77 CZ         13.8100   22.7300   48.9100 C.ar      5 PHE5        0.0000 
     78 CZ         18.0100   21.4700   47.9200 C.ar      5 PHE5        0.0000 
     79 CZ         17.1400   21.1900   49.1100 C.ar      5 PHE5        0.0000 
     80 CZ         16.3900   22.4700   48.8600 C.ar      5 PHE5        0.0000 
     81 CZ         14.7700   23.4700   49.7900 C.ar      5 PHE5        0.0000 
     82 CZ         21.1000   27.4100   42.1000 C.ar      5 PHE5        0.0000 
     83 CZ         19.8500   22.4800   47.6100 C.ar      5 PHE5        0.0000 
     84 CZ         18.9700   22.2000   48.8000 C.ar      5 PHE5        0.0000 
     85 CZ         18.8500   20.6500   50.2400 C.ar      5 PHE5        0.0000 
     86 CZ         18.1000   21.9300   49.9900 C.ar      5 PHE5        0.0000 
     87 CZ         16.6100   24.4800   49.4800 C.ar      5 PHE5        0.0000 
     88 CZ         17.9700   20.3800   51.4300 C.ar      5 PHE5        0.0000 
     89 CZ         21.9400   26.6000   44.4200 C.ar      5 PHE5        0.0000 
     90 CZ         21.0600   26.3200   45.6100 C.ar      5 PHE5        0.0000 
     91 CZ         19.4400   27.3200   46.5500 C.ar      5 PHE5        0.0000 
     92 CZ         18.5700   27.0500   47.7300 C.ar      5 PHE5        0.0000 
     93 CZ         18.4400   25.5000   49.1800 C.ar      5 PHE5        0.0000 
     94 CZ         17.7000   26.7700   48.9200 C.ar      5 PHE5        0.0000 
     95 CZ         16.8200   26.5000   50.1100 C.ar      5 PHE5        0.0000 
     96 CZ         22.9000   27.3400   45.3000 C.ar      5 PHE5        0.0000 
     97 CZ         22.0300   27.0600   46.4900 C.ar      5 PHE5        0.0000 
     98 CZ         21.2800   28.3400   46.2400 C.ar      5 PHE5        0.0000 
     99 CZ         20.4100   28.0600   47.4300 C.ar      5 PHE5        0.0000 
    100 CZ         23.8600   28.0800   46.1800 C.ar      5 PHE5        0.0000 
    101 CZ         22.9900   27.8000   47.3700 C.ar      5 PHE5        0.0000 
    102 CA         15.0800   18.1600   48.7900 C.3       6 GLY6        0.0000 
    103 CA         22.5600   23.7700   46.1200 C.3       6 GLY6        0.0000 
    104 CA         23.7700   27.6100   44.1200 C.3       6 GLY6        0.0000 
    105 CA         22.1200   27.5300   48.5600 C.3       6 GLY6        0.0000 
    106 CA         21.3700   28.8000   48.3100 C.3       6 GLY6        0.0000 
    107 CA         20.5000   28.5300   49.5000 C.3       6 GLY6        0.0000 
    108 CA         23.9500   28.5400   48.2500 C.3       6 GLY6        0.0000 
    109 DU         15.3000   20.1700   49.4200 H         7 CUB7        0.0000 
    110 DU         14.5500   21.4500   49.1600 H         7 CUB7        0.0000 
    111 DU         20.7600   23.8400   42.9200 H         7 CUB7        0.0000 
    112 DU         20.0100   25.1200   42.6600 H         7 CUB7        0.0000 
    113 DU         16.2600   20.9100   50.3000 H         7 CUB7        0.0000 
    114 DU         22.4700   23.3100   44.0500 H         7 CUB7        0.0000 
    115 DU         20.9700   25.8600   43.5400 H         7 CUB7        0.0000 
    116 DU         23.4300   24.0500   44.9300 H         7 CUB7        0.0000 
    117 DU         22.6800   25.3200   44.6800 H         7 CUB7        0.0000 
    118 DU         21.8100   25.0500   45.8700 H         7 CUB7        0.0000 
    119 DU         20.9400   24.7700   47.0500 H         7 CUB7        0.0000 
    120 DU         20.0600   24.5000   48.2400 H         7 CUB7        0.0000 
    121 DU         19.1900   24.2200   49.4300 H         7 CUB7        0.0000 
    122 DU         23.5200   24.5100   47.0000 H         7 CUB7        0.0000 
    123 DU         22.7700   25.7900   46.7500 H         7 CUB7        0.0000 
    124 DU         21.9000   25.5100   47.9300 H         7 CUB7        0.0000 
    125 DU         21.1500   26.7900   47.6800 H         7 CUB7        0.0000 
    126 DU         21.0300   25.2300   49.1200 H         7 CUB7        0.0000 
    127 DU         20.2800   26.5100   48.8700 H         7 CUB7        0.0000 
    128 DU         23.7400   26.5300   47.6300 H         7 CUB7        0.0000 
    129 DU         23.6100   24.9700   49.0700 H         7 CUB7        0.0000 
@<TRIPOS>BOND
@<TRIPOS>SUBSTRUCTURE
     1 SER1        1 GROUP   
     2 ALA2       17 GROUP   
     3 ASP3       29 GROUP   
     4 LYS4       59 GROUP   
     5 PHE5       72 GROUP   
     6 GLY6      102 GROUP   
     7 CUB7      109 GROUP   
@<TRIPOS>SET

