#    Name: 6oix_1_GTP_CAVITY_N1_6
#    Modification time : Fri May 22 19:28:16 2020

@<TRIPOS>MOLECULE
6oix_1_GTP_CAVITY_N1_6
  124     0     7     0     0
SMALL
NO_CHARGES


@<TRIPOS>ATOM
      1 OG         66.8800   34.5800   31.9700 O.3       1 SER1        0.0000 
      2 OG         66.7600   33.0300   33.4100 O.3       1 SER1        0.0000 
      3 OG         67.2500   28.6500   36.5500 O.3       1 SER1        0.0000 
      4 OG         66.5000   29.9200   36.2900 O.3       1 SER1        0.0000 
      5 OG         67.8400   35.3200   32.8500 O.3       1 SER1        0.0000 
      6 OG         68.4700   32.4900   34.5500 O.3       1 SER1        0.0000 
      7 OG         67.7200   33.7700   34.2900 O.3       1 SER1        0.0000 
      8 OG         66.9700   35.0400   34.0400 O.3       1 SER1        0.0000 
      9 OG         66.8500   33.4900   35.4800 O.3       1 SER1        0.0000 
     10 OG         66.1000   34.7700   35.2300 O.3       1 SER1        0.0000 
     11 OG         67.4700   30.6600   37.1700 O.3       1 SER1        0.0000 
     12 OG         69.4300   33.2300   35.4300 O.3       1 SER1        0.0000 
     13 OG         68.6800   34.5100   35.1700 O.3       1 SER1        0.0000 
     14 OG         67.9400   35.7800   34.9200 O.3       1 SER1        0.0000 
     15 OG         66.9400   33.9500   37.5500 O.3       1 SER1        0.0000 
     16 OG         66.1900   35.2300   37.3000 O.3       1 SER1        0.0000 
     17 O          64.0300   33.4500   25.8200 O.2       2 ALA2        0.0000 
     18 N          62.4100   34.4500   26.7600 N.am      2 ALA2        0.0000 
     19 N          64.2400   35.4600   26.4500 N.am      2 ALA2        0.0000 
     20 N          63.3700   35.1900   27.6400 N.am      2 ALA2        0.0000 
     21 N          62.5000   34.9100   28.8200 N.am      2 ALA2        0.0000 
     22 O          62.3700   33.3600   30.2600 O.2       2 ALA2        0.0000 
     23 N          63.4600   35.6500   29.7000 N.am      2 ALA2        0.0000 
     24 O          66.2200   36.3200   33.7900 O.2       2 ALA2        0.0000 
     25 O          65.4800   37.5900   33.5300 O.2       2 ALA2        0.0000 
     26 O          65.3500   36.0400   34.9700 O.2       2 ALA2        0.0000 
     27 O          67.1900   37.0600   34.6700 O.2       2 ALA2        0.0000 
     28 O          66.3100   36.7800   35.8500 O.2       2 ALA2        0.0000 
     29 OD1        64.9900   34.1900   26.7000 O.co2     3 ASP3        0.0000 
     30 OD1        64.1200   33.9100   27.8900 O.co2     3 ASP3        0.0000 
     31 OD1        63.9900   32.3600   29.3300 O.co2     3 ASP3        0.0000 
     32 OD1        63.2400   33.6400   29.0800 O.co2     3 ASP3        0.0000 
     33 OD1        63.8600   30.8100   30.7700 O.co2     3 ASP3        0.0000 
     34 OD1        67.4500   32.3800   28.0900 O.co2     3 ASP3        0.0000 
     35 OD1        66.7000   33.6500   27.8300 O.co2     3 ASP3        0.0000 
     36 OD1        65.2100   36.2000   27.3300 O.co2     3 ASP3        0.0000 
     37 OD1        66.5700   32.1000   29.2800 O.co2     3 ASP3        0.0000 
     38 OD1        65.8300   33.3800   29.0200 O.co2     3 ASP3        0.0000 
     39 OD1        65.7000   31.8300   30.4600 O.co2     3 ASP3        0.0000 
     40 OD1        64.9500   33.1000   30.2100 O.co2     3 ASP3        0.0000 
     41 OD1        65.3000   36.6700   29.4000 O.co2     3 ASP3        0.0000 
     42 OD1        64.5500   37.9400   29.1400 O.co2     3 ASP3        0.0000 
     43 OD1        64.4200   36.3900   30.5800 O.co2     3 ASP3        0.0000 
     44 OD1        66.2600   37.4100   30.2800 O.co2     3 ASP3        0.0000 
     45 OD1        65.3900   37.1300   31.4600 O.co2     3 ASP3        0.0000 
     46 OD1        64.5100   36.8600   32.6500 O.co2     3 ASP3        0.0000 
     47 OD1        69.4900   24.8200   37.3100 O.co2     3 ASP3        0.0000 
     48 OD1        68.7400   26.1000   37.0500 O.co2     3 ASP3        0.0000 
     49 OD1        68.0000   27.3700   36.8000 O.co2     3 ASP3        0.0000 
     50 OD1        67.2200   38.1500   31.1600 O.co2     3 ASP3        0.0000 
     51 OD1        66.3500   37.8700   32.3400 O.co2     3 ASP3        0.0000 
     52 OD1        71.3300   25.8400   37.0000 O.co2     3 ASP3        0.0000 
     53 OD1        70.5800   27.1100   36.7500 O.co2     3 ASP3        0.0000 
     54 OD1        69.8300   28.3900   36.4900 O.co2     3 ASP3        0.0000 
     55 OD1        70.4600   25.5600   38.1900 O.co2     3 ASP3        0.0000 
     56 OD1        69.7100   26.8400   37.9300 O.co2     3 ASP3        0.0000 
     57 OD1        68.9600   28.1100   37.6800 O.co2     3 ASP3        0.0000 
     58 OD1        68.2100   29.3900   37.4300 O.co2     3 ASP3        0.0000 
     59 OD1        67.3400   29.1100   38.6200 O.co2     3 ASP3        0.0000 
     60 OD1        67.3100   38.6100   33.2200 O.co2     3 ASP3        0.0000 
     61 OD1        73.1700   26.8500   36.6900 O.co2     3 ASP3        0.0000 
     62 OD1        72.4200   28.1300   36.4400 O.co2     3 ASP3        0.0000 
     63 OD1        71.6700   29.4000   36.1900 O.co2     3 ASP3        0.0000 
     64 OD1        72.2900   26.5800   37.8800 O.co2     3 ASP3        0.0000 
     65 OD1        71.5500   27.8500   37.6300 O.co2     3 ASP3        0.0000 
     66 OD1        70.8000   29.1300   37.3700 O.co2     3 ASP3        0.0000 
     67 OD1        70.0500   30.4000   37.1200 O.co2     3 ASP3        0.0000 
     68 OD1        69.1800   30.1300   38.3100 O.co2     3 ASP3        0.0000 
     69 NZ         63.1500   33.1700   27.0100 N.4       4 LYS4        0.0000 
     70 NZ         61.5300   34.1700   27.9400 N.4       4 LYS4        0.0000 
     71 NZ         63.1200   32.0900   30.5200 N.4       4 LYS4        0.0000 
     72 NZ         63.5900   37.2000   28.2600 N.4       4 LYS4        0.0000 
     73 NZ         62.7100   36.9300   29.4500 N.4       4 LYS4        0.0000 
     74 NZ         66.1700   36.9400   28.2100 N.4       4 LYS4        0.0000 
     75 NZ         63.6800   37.6700   30.3300 N.4       4 LYS4        0.0000 
     76 NZ         67.1300   37.6800   29.0900 N.4       4 LYS4        0.0000 
     77 NZ         66.5900   30.3900   38.3600 N.4       4 LYS4        0.0000 
     78 NZ         68.1500   37.8000   35.5500 N.4       4 LYS4        0.0000 
     79 CZ         66.1600   26.3600   37.1100 C.ar      5 PHE5        0.0000 
     80 CZ         67.8800   36.4100   29.3400 C.ar      5 PHE5        0.0000 
     81 CZ         67.7500   34.8600   30.7800 C.ar      5 PHE5        0.0000 
     82 CZ         67.0100   36.1300   30.5300 C.ar      5 PHE5        0.0000 
     83 CZ         66.1300   35.8600   31.7200 C.ar      5 PHE5        0.0000 
     84 CZ         65.8800   32.7500   34.6000 C.ar      5 PHE5        0.0000 
     85 CZ         65.1300   34.0300   34.3500 C.ar      5 PHE5        0.0000 
     86 CZ         66.3800   28.3700   37.7400 C.ar      5 PHE5        0.0000 
     87 CZ         67.1000   36.5900   32.6000 C.ar      5 PHE5        0.0000 
     88 CZ         67.5900   32.2200   35.7300 C.ar      5 PHE5        0.0000 
     89 CZ         66.7200   31.9400   36.9200 C.ar      5 PHE5        0.0000 
     90 CZ         68.0600   37.3300   33.4800 C.ar      5 PHE5        0.0000 
     91 CZ         70.9200   30.6800   35.9300 C.ar      5 PHE5        0.0000 
     92 CZ         70.1800   31.9500   35.6800 C.ar      5 PHE5        0.0000 
     93 CZ         69.3000   31.6800   36.8700 C.ar      5 PHE5        0.0000 
     94 CZ         68.5600   32.9500   36.6100 C.ar      5 PHE5        0.0000 
     95 CZ         67.8100   34.2300   36.3600 C.ar      5 PHE5        0.0000 
     96 CZ         68.4300   31.4000   38.0500 C.ar      5 PHE5        0.0000 
     97 CZ         67.6800   32.6800   37.8000 C.ar      5 PHE5        0.0000 
     98 CZ         66.8100   32.4000   38.9900 C.ar      5 PHE5        0.0000 
     99 CZ         66.0600   33.6800   38.7400 C.ar      5 PHE5        0.0000 
    100 CZ         71.0100   31.1400   38.0000 C.ar      5 PHE5        0.0000 
    101 CZ         68.0300   36.2500   36.9900 C.ar      5 PHE5        0.0000 
    102 CZ         67.9000   34.6900   38.4300 C.ar      5 PHE5        0.0000 
    103 CZ         67.7700   33.1400   39.8700 C.ar      5 PHE5        0.0000 
    104 CA         67.7800   25.3600   36.1700 C.3       6 GLY6        0.0000 
    105 CA         66.2900   27.9100   35.6700 C.3       6 GLY6        0.0000 
    106 CA         74.1300   27.5900   37.5700 C.3       6 GLY6        0.0000 
    107 CA         67.0300   34.4200   39.6200 C.3       6 GLY6        0.0000 
    108 DU         65.9500   34.9300   27.5800 H         7 CUB7        0.0000 
    109 DU         65.0800   34.6500   28.7700 H         7 CUB7        0.0000 
    110 DU         64.3300   35.9300   28.5200 H         7 CUB7        0.0000 
    111 DU         64.2100   34.3800   29.9600 H         7 CUB7        0.0000 
    112 DU         66.7900   34.1200   29.9000 H         7 CUB7        0.0000 
    113 DU         66.0400   35.3900   29.6500 H         7 CUB7        0.0000 
    114 DU         65.9200   33.8400   31.0900 H         7 CUB7        0.0000 
    115 DU         65.1700   35.1200   30.8400 H         7 CUB7        0.0000 
    116 DU         67.0300   26.6300   35.9200 H         7 CUB7        0.0000 
    117 DU         66.0100   34.3000   33.1600 H         7 CUB7        0.0000 
    118 DU         65.2600   35.5800   32.9100 H         7 CUB7        0.0000 
    119 DU         69.6200   26.3700   35.8700 H         7 CUB7        0.0000 
    120 DU         68.1200   28.9200   35.3600 H         7 CUB7        0.0000 
    121 DU         72.2000   26.1100   35.8100 H         7 CUB7        0.0000 
    122 DU         69.0900   29.6600   36.2400 H         7 CUB7        0.0000 
    123 DU         68.3400   30.9400   35.9900 H         7 CUB7        0.0000 
    124 DU         67.0600   35.5100   36.1100 H         7 CUB7        0.0000 
@<TRIPOS>BOND
@<TRIPOS>SUBSTRUCTURE
     1 SER1        1 GROUP   
     2 ALA2       17 GROUP   
     3 ASP3       29 GROUP   
     4 LYS4       69 GROUP   
     5 PHE5       79 GROUP   
     6 GLY6      104 GROUP   
     7 CUB7      108 GROUP   
@<TRIPOS>SET

