#    Name: 6q11_1_EPU_CAVITY_N1_6
#    Modification time : Fri May 22 19:27:36 2020

@<TRIPOS>MOLECULE
6q11_1_EPU_CAVITY_N1_6
   75     0     7     0     0
SMALL
NO_CHARGES


@<TRIPOS>ATOM
      1 OG        -20.8600  -59.7500    2.1700 O.3       1 SER1        0.0000 
      2 O         -22.3300  -56.8500    2.9900 O.2       2 ALA2        0.0000 
      3 O         -17.1100  -53.1200   -0.8900 O.2       2 ALA2        0.0000 
      4 N         -18.6500  -52.0800    0.9300 N.am      2 ALA2        0.0000 
      5 O         -17.6100  -51.3400    0.1500 O.2       2 ALA2        0.0000 
      6 O         -16.6400  -52.4600    0.3700 O.2       2 ALA2        0.0000 
      7 O         -15.6000  -51.7100   -0.4000 O.2       2 ALA2        0.0000 
      8 N         -19.1500  -50.3000    1.9700 N.am      2 ALA2        0.0000 
      9 N         -18.1800  -51.4300    2.1900 N.am      2 ALA2        0.0000 
     10 N         -18.1100  -49.5600    1.1900 N.am      2 ALA2        0.0000 
     11 N         -17.1400  -50.6800    1.4100 N.am      2 ALA2        0.0000 
     12 O         -16.1000  -49.9300    0.6400 O.2       2 ALA2        0.0000 
     13 O         -15.1300  -51.0500    0.8600 O.2       2 ALA2        0.0000 
     14 O         -13.2900  -52.7300    4.6100 O.2       2 ALA2        0.0000 
     15 O         -11.2800  -53.1100    4.0600 O.2       2 ALA2        0.0000 
     16 OD1       -22.3000  -59.2900    0.6800 O.co2     3 ASP3        0.0000 
     17 OD1       -20.2800  -59.6600    0.1300 O.co2     3 ASP3        0.0000 
     18 OD1       -18.1200  -56.3000   -2.4200 O.co2     3 ASP3        0.0000 
     19 OD1       -22.8000  -57.5100    1.7200 O.co2     3 ASP3        0.0000 
     20 OD1       -21.8300  -58.6300    1.9500 O.co2     3 ASP3        0.0000 
     21 OD1       -20.7800  -57.8900    1.1700 O.co2     3 ASP3        0.0000 
     22 OD1       -19.8100  -59.0100    1.4000 O.co2     3 ASP3        0.0000 
     23 OD1       -19.7400  -57.1400    0.4000 O.co2     3 ASP3        0.0000 
     24 OD1       -18.7700  -58.2600    0.6200 O.co2     3 ASP3        0.0000 
     25 OD1       -19.6700  -55.2700   -0.6000 O.co2     3 ASP3        0.0000 
     26 OD1       -18.7000  -56.3900   -0.3800 O.co2     3 ASP3        0.0000 
     27 OD1       -17.7300  -57.5100   -0.1600 O.co2     3 ASP3        0.0000 
     28 OD1       -18.6200  -54.5200   -1.3800 O.co2     3 ASP3        0.0000 
     29 OD1       -20.2400  -55.3600    1.4400 O.co2     3 ASP3        0.0000 
     30 OD1       -19.2700  -56.4800    1.6600 O.co2     3 ASP3        0.0000 
     31 OD1       -18.2300  -55.7300    0.8800 O.co2     3 ASP3        0.0000 
     32 OD1       -18.1500  -53.8600   -0.1100 O.co2     3 ASP3        0.0000 
     33 OD1       -17.1800  -54.9900    0.1100 O.co2     3 ASP3        0.0000 
     34 OD1       -16.2100  -56.1100    0.3300 O.co2     3 ASP3        0.0000 
     35 OD1       -15.6700  -53.5800    0.6000 O.co2     3 ASP3        0.0000 
     36 OD1       -15.2000  -52.9200    1.8600 O.co2     3 ASP3        0.0000 
     37 OD1       -14.2300  -54.0500    2.0900 O.co2     3 ASP3        0.0000 
     38 OD1       -15.7800  -53.0100    3.9000 O.co2     3 ASP3        0.0000 
     39 OD1       -14.7300  -52.2700    3.1300 O.co2     3 ASP3        0.0000 
     40 OD1       -13.7600  -53.3900    3.3500 O.co2     3 ASP3        0.0000 
     41 NZ        -16.6100  -54.9000   -1.9300 N.4       4 LYS4        0.0000 
     42 NZ        -15.6400  -56.0200   -1.7100 N.4       4 LYS4        0.0000 
     43 NZ        -16.1400  -54.2400   -0.6700 N.4       4 LYS4        0.0000 
     44 NZ        -15.1000  -53.4900   -1.4400 N.4       4 LYS4        0.0000 
     45 NZ        -14.1300  -54.6100   -1.2200 N.4       4 LYS4        0.0000 
     46 NZ        -13.0800  -53.8700   -1.9900 N.4       4 LYS4        0.0000 
     47 NZ        -14.6300  -52.8300   -0.1800 N.4       4 LYS4        0.0000 
     48 NZ        -13.5800  -52.0900   -0.9500 N.4       4 LYS4        0.0000 
     49 CZ        -15.1700  -55.3600   -0.4400 C.ar      5 PHE5        0.0000 
     50 CZ        -14.7000  -54.7000    0.8200 C.ar      5 PHE5        0.0000 
     51 CZ        -13.6600  -53.9600    0.0500 C.ar      5 PHE5        0.0000 
     52 CZ        -12.6100  -53.2100   -0.7300 C.ar      5 PHE5        0.0000 
     53 CZ        -11.6400  -54.3300   -0.5100 C.ar      5 PHE5        0.0000 
     54 CZ        -13.1900  -53.3000    1.3100 C.ar      5 PHE5        0.0000 
     55 CZ        -11.1700  -53.6700    0.7600 C.ar      5 PHE5        0.0000 
     56 CZ        -12.7900  -54.5100    3.5700 C.ar      5 PHE5        0.0000 
     57 CZ        -11.7500  -53.7600    2.8000 C.ar      5 PHE5        0.0000 
     58 CA        -16.6800  -56.7700   -0.9300 C.3       6 GLY6        0.0000 
     59 CA        -21.3600  -57.9800    3.2100 C.3       6 GLY6        0.0000 
     60 CA        -20.3900  -59.1000    3.4400 C.3       6 GLY6        0.0000 
     61 CA        -20.3100  -57.2300    2.4400 C.3       6 GLY6        0.0000 
     62 CA        -11.5700  -52.4600   -1.5100 C.3       6 GLY6        0.0000 
     63 CA        -13.1100  -51.4300    0.3100 C.3       6 GLY6        0.0000 
     64 CA        -12.1400  -52.5500    0.5300 C.3       6 GLY6        0.0000 
     65 CA        -11.1000  -51.8000   -0.2400 C.3       6 GLY6        0.0000 
     66 CA        -14.6600  -50.4000    2.1300 C.3       6 GLY6        0.0000 
     67 CA        -13.6900  -51.5200    2.3500 C.3       6 GLY6        0.0000 
     68 CA        -12.7200  -52.6400    2.5700 C.3       6 GLY6        0.0000 
     69 CA        -11.6700  -51.8900    1.8000 C.3       6 GLY6        0.0000 
     70 CA        -10.7000  -53.0200    2.0200 C.3       6 GLY6        0.0000 
     71 CA        -12.2500  -51.9800    3.8400 C.3       6 GLY6        0.0000 
     72 DU        -17.6500  -55.6400   -1.1600 H         7 CUB7        0.0000 
     73 DU        -16.1700  -51.8000    1.6400 H         7 CUB7        0.0000 
     74 DU        -14.1600  -52.1800    1.0900 H         7 CUB7        0.0000 
     75 DU        -12.3200  -53.8500    4.8400 H         7 CUB7        0.0000 
@<TRIPOS>BOND
@<TRIPOS>SUBSTRUCTURE
     1 SER1        1 GROUP   
     2 ALA2        2 GROUP   
     3 ASP3       16 GROUP   
     4 LYS4       41 GROUP   
     5 PHE5       49 GROUP   
     6 GLY6       58 GROUP   
     7 CUB7       72 GROUP   
@<TRIPOS>SET

