#    Name: 6q11_1_EPU
#    Modification time : Fri May 22 19:27:33 2020

@<TRIPOS>MOLECULE
6q11_1_EPU
   44    46     1     0     0
SMALL
NO_CHARGES


@<TRIPOS>ATOM
      1 N1U        -9.2580  -56.0930    7.5210 N.am      1 EPU501      0.0000 
      2 C2U        -8.7290  -56.6450    8.7170 C.2       1 EPU501      0.0000 
      3 N3U        -9.1060  -56.1180    9.9140 N.am      1 EPU501      0.0000 
      4 C4U        -9.9780  -55.0910    9.9760 C.2       1 EPU501      0.0000 
      5 C5U       -10.5210  -54.5360    8.7980 C.2       1 EPU501      0.0000 
      6 C6U       -10.1420  -55.0650    7.5700 C.2       1 EPU501      0.0000 
      7 O2U        -7.8990  -57.6080    8.6310 O.2       1 EPU501      0.0000 
      8 O4U       -10.3050  -54.6580   11.1060 O.2       1 EPU501      0.0000 
      9 C1D        -8.8220  -56.7000    6.2520 C.3       1 EPU501      0.0000 
     10 C2D        -9.9350  -57.4340    5.5210 C.3       1 EPU501      0.0000 
     11 O2D       -10.3480  -58.7100    6.0490 O.3       1 EPU501      0.0000 
     12 C3D        -9.3240  -57.5150    4.1340 C.3       1 EPU501      0.0000 
     13 C4D        -8.5970  -56.1880    3.9850 C.3       1 EPU501      0.0000 
     14 O4D        -8.3930  -55.7130    5.3080 O.3       1 EPU501      0.0000 
     15 O3D        -8.3920  -58.5980    4.0610 O.3       1 EPU501      0.0000 
     16 C5D        -9.3710  -55.1310    3.2130 C.3       1 EPU501      0.0000 
     17 O5D       -10.5300  -54.7800    3.9590 O.3       1 EPU501      0.0000 
     18 PA        -11.0140  -53.2540    4.1060 P.3       1 EPU501      0.0000 
     19 O1A       -11.1970  -53.0340    5.5850 O.co2     1 EPU501      0.0000 
     20 O2A       -10.0730  -52.3860    3.2910 O.co2     1 EPU501      0.0000 
     21 O3A       -12.3940  -53.3500    3.2950 O.3       1 EPU501      0.0000 
     22 PB        -13.8750  -52.9040    3.8020 P.3       1 EPU501      0.0000 
     23 O1B       -13.8580  -51.5010    4.3960 O.co2     1 EPU501      0.0000 
     24 O2B       -14.5440  -54.0580    4.5290 O.co2     1 EPU501      0.0000 
     25 C1        -14.5000  -51.7690    1.4680 C.3       1 EPU501      0.0000 
     26 C2        -15.6140  -51.9400    0.4500 C.3       1 EPU501      0.0000 
     27 C3        -15.4570  -53.2910   -0.2520 C.3       1 EPU501      0.0000 
     28 C4        -14.1250  -53.2700   -0.9850 C.3       1 EPU501      0.0000 
     29 C5        -13.0220  -53.0220    0.0320 C.3       1 EPU501      0.0000 
     30 C6        -11.6400  -52.9580   -0.6110 C.3       1 EPU501      0.0000 
     31 C7        -17.3770  -50.5940    1.3940 C.2       1 EPU501      0.0000 
     32 C8        -18.7390  -50.5940    2.0230 C.3       1 EPU501      0.0000 
     33 N2        -16.9010  -51.8010    1.1020 N.am      1 EPU501      0.0000 
     34 O1        -14.6160  -52.8580    2.3760 O.3       1 EPU501      0.0000 
     35 O3        -16.5270  -53.5560   -1.1640 O.3       1 EPU501      0.0000 
     36 O4        -13.9560  -54.5290   -1.6760 O.3       1 EPU501      0.0000 
     37 O5        -13.2640  -51.8100    0.7660 O.3       1 EPU501      0.0000 
     38 O6        -11.5530  -51.9120   -1.6000 O.3       1 EPU501      0.0000 
     39 O7        -16.7440  -49.5730    1.1500 O.2       1 EPU501      0.0000 
     40 C1E       -18.5550  -54.7270   -0.1310 C.2       1 EPU501      0.0000 
     41 O1E       -19.6400  -54.8420   -0.7670 O.co2     1 EPU501      0.0000 
     42 O2E       -18.4970  -54.5880    1.1120 O.co2     1 EPU501      0.0000 
     43 C2E       -17.2940  -54.7810   -0.8730 C.2       1 EPU501      0.0000 
     44 C3E       -16.8650  -55.9650   -1.2830 C.2       1 EPU501      0.0000 
@<TRIPOS>BOND
     1    1    2 1    
     2    1    6 1    
     3    1    9 1    
     4    2    3 1    
     5    2    7 2    
     6    3    4 1    
     7    4    5 1    
     8    4    8 2    
     9    5    6 2    
    10    9   10 1    
    11    9   14 1    
    12   10   11 1    
    13   10   12 1    
    14   12   13 1    
    15   12   15 1    
    16   13   14 1    
    17   13   16 1    
    18   16   17 1    
    19   17   18 1    
    20   18   19 ar   
    21   18   20 ar   
    22   18   21 1    
    23   21   22 1    
    24   22   23 ar   
    25   22   24 ar   
    26   22   34 1    
    27   25   26 1    
    28   25   34 1    
    29   25   37 1    
    30   26   27 1    
    31   26   33 1    
    32   27   28 1    
    33   27   35 1    
    34   28   29 1    
    35   28   36 1    
    36   29   30 1    
    37   29   37 1    
    38   30   38 1    
    39   31   32 1    
    40   31   33 am   
    41   31   39 2    
    42   35   43 1    
    43   40   41 ar   
    44   40   42 ar   
    45   40   43 1    
    46   43   44 2    
@<TRIPOS>SUBSTRUCTURE
     1 EPU501      1 GROUP   
@<TRIPOS>SET

