#    Name: 6q11_1_EPU_CAVITY_N1_12
#    Modification time : Fri May 22 19:27:36 2020

@<TRIPOS>MOLECULE
6q11_1_EPU_CAVITY_N1_12
  107     0     7     0     0
SMALL
NO_CHARGES


@<TRIPOS>ATOM
      1 OG        -23.8100  -60.6900    0.2000 O.3       1 SER1        0.0000 
      2 OG        -20.8600  -59.7500    2.1700 O.3       1 SER1        0.0000 
      3 N         -25.3500  -59.6600    2.0100 N.am      2 ALA2        0.0000 
      4 O         -22.4400  -63.0300    2.6800 O.2       2 ALA2        0.0000 
      5 O         -22.3700  -61.1600    1.6800 O.2       2 ALA2        0.0000 
      6 O         -21.4000  -62.2800    1.9100 O.2       2 ALA2        0.0000 
      7 N         -24.8800  -59.0000    3.2800 N.am      2 ALA2        0.0000 
      8 N         -23.9100  -60.1300    3.5000 N.am      2 ALA2        0.0000 
      9 N         -21.9800  -62.3700    3.9500 N.am      2 ALA2        0.0000 
     10 N         -24.8100  -57.1400    2.2800 N.am      2 ALA2        0.0000 
     11 N         -23.8400  -58.2600    2.5000 N.am      2 ALA2        0.0000 
     12 N         -24.4200  -58.3500    4.5400 N.am      2 ALA2        0.0000 
     13 N         -23.4500  -59.4700    4.7600 N.am      2 ALA2        0.0000 
     14 N         -22.4800  -60.5900    4.9900 N.am      2 ALA2        0.0000 
     15 O         -23.3700  -57.6000    3.7600 O.2       2 ALA2        0.0000 
     16 O         -22.4000  -58.7200    3.9900 O.2       2 ALA2        0.0000 
     17 O         -22.3300  -56.8500    2.9900 O.2       2 ALA2        0.0000 
     18 O         -17.1100  -53.1200   -0.8900 O.2       2 ALA2        0.0000 
     19 N         -18.6500  -52.0800    0.9300 N.am      2 ALA2        0.0000 
     20 O         -17.6100  -51.3400    0.1500 O.2       2 ALA2        0.0000 
     21 O         -16.6400  -52.4600    0.3700 O.2       2 ALA2        0.0000 
     22 O         -15.6000  -51.7100   -0.4000 O.2       2 ALA2        0.0000 
     23 N         -19.1500  -50.3000    1.9700 N.am      2 ALA2        0.0000 
     24 N         -18.1800  -51.4300    2.1900 N.am      2 ALA2        0.0000 
     25 N         -18.1100  -49.5600    1.1900 N.am      2 ALA2        0.0000 
     26 N         -17.1400  -50.6800    1.4100 N.am      2 ALA2        0.0000 
     27 O         -16.1000  -49.9300    0.6400 O.2       2 ALA2        0.0000 
     28 O         -15.1300  -51.0500    0.8600 O.2       2 ALA2        0.0000 
     29 O         -13.2900  -52.7300    4.6100 O.2       2 ALA2        0.0000 
     30 O         -11.2800  -53.1100    4.0600 O.2       2 ALA2        0.0000 
     31 OD1       -24.7800  -59.5700   -0.0300 O.co2     3 ASP3        0.0000 
     32 OD1       -24.3100  -58.9100    1.2400 O.co2     3 ASP3        0.0000 
     33 OD1       -22.3000  -59.2900    0.6800 O.co2     3 ASP3        0.0000 
     34 OD1       -20.2800  -59.6600    0.1300 O.co2     3 ASP3        0.0000 
     35 OD1       -18.1200  -56.3000   -2.4200 O.co2     3 ASP3        0.0000 
     36 OD1       -22.8000  -57.5100    1.7200 O.co2     3 ASP3        0.0000 
     37 OD1       -21.8300  -58.6300    1.9500 O.co2     3 ASP3        0.0000 
     38 OD1       -20.7800  -57.8900    1.1700 O.co2     3 ASP3        0.0000 
     39 OD1       -19.8100  -59.0100    1.4000 O.co2     3 ASP3        0.0000 
     40 OD1       -19.7400  -57.1400    0.4000 O.co2     3 ASP3        0.0000 
     41 OD1       -18.7700  -58.2600    0.6200 O.co2     3 ASP3        0.0000 
     42 OD1       -19.6700  -55.2700   -0.6000 O.co2     3 ASP3        0.0000 
     43 OD1       -18.7000  -56.3900   -0.3800 O.co2     3 ASP3        0.0000 
     44 OD1       -17.7300  -57.5100   -0.1600 O.co2     3 ASP3        0.0000 
     45 OD1       -18.6200  -54.5200   -1.3800 O.co2     3 ASP3        0.0000 
     46 OD1       -20.2400  -55.3600    1.4400 O.co2     3 ASP3        0.0000 
     47 OD1       -19.2700  -56.4800    1.6600 O.co2     3 ASP3        0.0000 
     48 OD1       -18.2300  -55.7300    0.8800 O.co2     3 ASP3        0.0000 
     49 OD1       -18.1500  -53.8600   -0.1100 O.co2     3 ASP3        0.0000 
     50 OD1       -17.1800  -54.9900    0.1100 O.co2     3 ASP3        0.0000 
     51 OD1       -16.2100  -56.1100    0.3300 O.co2     3 ASP3        0.0000 
     52 OD1       -15.6700  -53.5800    0.6000 O.co2     3 ASP3        0.0000 
     53 OD1       -15.2000  -52.9200    1.8600 O.co2     3 ASP3        0.0000 
     54 OD1       -14.2300  -54.0500    2.0900 O.co2     3 ASP3        0.0000 
     55 OD1       -15.7800  -53.0100    3.9000 O.co2     3 ASP3        0.0000 
     56 OD1       -14.7300  -52.2700    3.1300 O.co2     3 ASP3        0.0000 
     57 OD1       -13.7600  -53.3900    3.3500 O.co2     3 ASP3        0.0000 
     58 NZ        -16.6100  -54.9000   -1.9300 N.4       4 LYS4        0.0000 
     59 NZ        -15.6400  -56.0200   -1.7100 N.4       4 LYS4        0.0000 
     60 NZ        -16.1400  -54.2400   -0.6700 N.4       4 LYS4        0.0000 
     61 NZ        -15.1000  -53.4900   -1.4400 N.4       4 LYS4        0.0000 
     62 NZ        -14.1300  -54.6100   -1.2200 N.4       4 LYS4        0.0000 
     63 NZ        -13.0800  -53.8700   -1.9900 N.4       4 LYS4        0.0000 
     64 NZ        -14.6300  -52.8300   -0.1800 N.4       4 LYS4        0.0000 
     65 NZ        -13.5800  -52.0900   -0.9500 N.4       4 LYS4        0.0000 
     66 CZ        -24.8500  -61.4400    0.9700 C.ar      5 PHE5        0.0000 
     67 CZ        -23.8800  -62.5600    1.2000 C.ar      5 PHE5        0.0000 
     68 CZ        -15.1700  -55.3600   -0.4400 C.ar      5 PHE5        0.0000 
     69 CZ        -14.7000  -54.7000    0.8200 C.ar      5 PHE5        0.0000 
     70 CZ        -13.6600  -53.9600    0.0500 C.ar      5 PHE5        0.0000 
     71 CZ        -12.6100  -53.2100   -0.7300 C.ar      5 PHE5        0.0000 
     72 CZ        -11.6400  -54.3300   -0.5100 C.ar      5 PHE5        0.0000 
     73 CZ        -13.1900  -53.3000    1.3100 C.ar      5 PHE5        0.0000 
     74 CZ        -11.1700  -53.6700    0.7600 C.ar      5 PHE5        0.0000 
     75 CZ        -12.7900  -54.5100    3.5700 C.ar      5 PHE5        0.0000 
     76 CZ        -11.7500  -53.7600    2.8000 C.ar      5 PHE5        0.0000 
     77 CA        -22.8400  -61.8200    0.4200 C.3       6 GLY6        0.0000 
     78 CA        -25.2800  -57.7900    1.0100 C.3       6 GLY6        0.0000 
     79 CA        -21.3300  -60.4100    0.9100 C.3       6 GLY6        0.0000 
     80 CA        -20.9300  -61.6200    3.1700 C.3       6 GLY6        0.0000 
     81 CA        -16.6800  -56.7700   -0.9300 C.3       6 GLY6        0.0000 
     82 CA        -21.4300  -59.8500    4.2100 C.3       6 GLY6        0.0000 
     83 CA        -20.4600  -60.9700    4.4400 C.3       6 GLY6        0.0000 
     84 CA        -21.3600  -57.9800    3.2100 C.3       6 GLY6        0.0000 
     85 CA        -20.3900  -59.1000    3.4400 C.3       6 GLY6        0.0000 
     86 CA        -20.3100  -57.2300    2.4400 C.3       6 GLY6        0.0000 
     87 CA        -11.5700  -52.4600   -1.5100 C.3       6 GLY6        0.0000 
     88 CA        -13.1100  -51.4300    0.3100 C.3       6 GLY6        0.0000 
     89 CA        -12.1400  -52.5500    0.5300 C.3       6 GLY6        0.0000 
     90 CA        -11.1000  -51.8000   -0.2400 C.3       6 GLY6        0.0000 
     91 CA        -14.6600  -50.4000    2.1300 C.3       6 GLY6        0.0000 
     92 CA        -13.6900  -51.5200    2.3500 C.3       6 GLY6        0.0000 
     93 CA        -12.7200  -52.6400    2.5700 C.3       6 GLY6        0.0000 
     94 CA        -11.6700  -51.8900    1.8000 C.3       6 GLY6        0.0000 
     95 CA        -10.7000  -53.0200    2.0200 C.3       6 GLY6        0.0000 
     96 CA        -12.2500  -51.9800    3.8400 C.3       6 GLY6        0.0000 
     97 DU        -25.8200  -60.3200    0.7500 H         7 CUB7        0.0000 
     98 DU        -24.3800  -60.7800    2.2400 H         7 CUB7        0.0000 
     99 DU        -23.4100  -61.9100    2.4600 H         7 CUB7        0.0000 
    100 DU        -23.3400  -60.0400    1.4600 H         7 CUB7        0.0000 
    101 DU        -22.9500  -61.2500    3.7200 H         7 CUB7        0.0000 
    102 DU        -22.8700  -59.3800    2.7200 H         7 CUB7        0.0000 
    103 DU        -21.9000  -60.5000    2.9500 H         7 CUB7        0.0000 
    104 DU        -17.6500  -55.6400   -1.1600 H         7 CUB7        0.0000 
    105 DU        -16.1700  -51.8000    1.6400 H         7 CUB7        0.0000 
    106 DU        -14.1600  -52.1800    1.0900 H         7 CUB7        0.0000 
    107 DU        -12.3200  -53.8500    4.8400 H         7 CUB7        0.0000 
@<TRIPOS>BOND
@<TRIPOS>SUBSTRUCTURE
     1 SER1        1 GROUP   
     2 ALA2        3 GROUP   
     3 ASP3       31 GROUP   
     4 LYS4       58 GROUP   
     5 PHE5       66 GROUP   
     6 GLY6       77 GROUP   
     7 CUB7       97 GROUP   
@<TRIPOS>SET

