#    Name: 6hm1_1_AO3_CAVITY_N1_6
#    Modification time : Fri May 22 19:29:03 2020

@<TRIPOS>MOLECULE
6hm1_1_AO3_CAVITY_N1_6
   75     0     7     0     0
SMALL
NO_CHARGES


@<TRIPOS>ATOM
      1 OG         18.2500  -12.5000  -11.0700 O.3       1 SER1        0.0000 
      2 OG         18.0900  -13.4200   -9.8900 O.3       1 SER1        0.0000 
      3 OG         15.0000   -7.9900  -11.8200 O.3       1 SER1        0.0000 
      4 OG         12.8000   -5.8600  -10.4600 O.3       1 SER1        0.0000 
      5 OG         18.8100   -5.2600  -14.9100 O.3       1 SER1        0.0000 
      6 OG         20.1900   -5.8000  -15.1400 O.3       1 SER1        0.0000 
      7 O          16.1400   -7.7600  -15.3100 O.2       2 ALA2        0.0000 
      8 O          15.1600   -7.0800  -13.0000 O.2       2 ALA2        0.0000 
      9 O          16.8600   -5.7800  -15.5800 O.2       2 ALA2        0.0000 
     10 O          16.7000   -6.7000  -14.4100 O.2       2 ALA2        0.0000 
     11 O          16.5400   -7.6200  -13.2300 O.2       2 ALA2        0.0000 
     12 O          15.7200   -6.0200  -12.1000 O.2       2 ALA2        0.0000 
     13 O          17.2600   -5.6400  -13.5100 O.2       2 ALA2        0.0000 
     14 O          19.3700   -4.2100  -14.0100 O.2       2 ALA2        0.0000 
     15 O          16.6900   -4.8200   -9.1200 O.2       2 ALA2        0.0000 
     16 OD1        15.9700   -8.6700  -14.1300 O.co2     3 ASP3        0.0000 
     17 OD1        15.8100   -9.5900  -12.9600 O.co2     3 ASP3        0.0000 
     18 OD1        17.3500   -9.2100  -14.3600 O.co2     3 ASP3        0.0000 
     19 OD1        17.9200   -8.1500  -13.4600 O.co2     3 ASP3        0.0000 
     20 OD1        17.7600   -9.0700  -12.2900 O.co2     3 ASP3        0.0000 
     21 OD1        17.6000   -9.9900  -11.1100 O.co2     3 ASP3        0.0000 
     22 OD1        19.1400   -9.6100  -12.5200 O.co2     3 ASP3        0.0000 
     23 OD1        18.9800  -10.5300  -11.3400 O.co2     3 ASP3        0.0000 
     24 NZ         16.3800   -8.5300  -12.0600 N.4       4 LYS4        0.0000 
     25 NZ         17.4300  -10.9100   -9.9300 N.4       4 LYS4        0.0000 
     26 NZ         17.2700  -11.8200   -8.7600 N.4       4 LYS4        0.0000 
     27 NZ         19.3000   -8.6900  -13.6900 N.4       4 LYS4        0.0000 
     28 NZ         15.4000   -7.8500   -9.7500 N.4       4 LYS4        0.0000 
     29 NZ         15.2400   -8.7700   -8.5700 N.4       4 LYS4        0.0000 
     30 NZ         16.6200   -9.3100   -8.8000 N.4       4 LYS4        0.0000 
     31 NZ         14.5800   -6.2600   -8.6100 N.4       4 LYS4        0.0000 
     32 NZ         15.9600   -6.7900   -8.8500 N.4       4 LYS4        0.0000 
     33 NZ         15.3100   -4.2800   -8.8900 N.4       4 LYS4        0.0000 
     34 CZ         14.5900   -8.1300  -13.9000 C.ar      5 PHE5        0.0000 
     35 CZ         17.5200   -8.3000  -15.5400 C.ar      5 PHE5        0.0000 
     36 CZ         13.6200   -7.4500  -11.5900 C.ar      5 PHE5        0.0000 
     37 CZ         18.2400   -6.3200  -15.8200 C.ar      5 PHE5        0.0000 
     38 CZ         18.0800   -7.2400  -14.6400 C.ar      5 PHE5        0.0000 
     39 CZ         18.8100  -11.4400  -10.1700 C.ar      5 PHE5        0.0000 
     40 CZ         18.6500  -12.3600   -8.9900 C.ar      5 PHE5        0.0000 
     41 CZ         20.1900  -11.9800  -10.4000 C.ar      5 PHE5        0.0000 
     42 CZ         14.1800   -6.4000  -10.6900 C.ar      5 PHE5        0.0000 
     43 CZ         18.0000   -9.8500   -9.0300 C.ar      5 PHE5        0.0000 
     44 CZ         20.0200   -6.7200  -13.9700 C.ar      5 PHE5        0.0000 
     45 CZ         19.7000   -8.5500  -11.6200 C.ar      5 PHE5        0.0000 
     46 CZ         13.3600   -4.8000   -9.5600 C.ar      5 PHE5        0.0000 
     47 CZ         14.9100   -4.4200  -10.9700 C.ar      5 PHE5        0.0000 
     48 CZ         14.7400   -5.3400   -9.7900 C.ar      5 PHE5        0.0000 
     49 CZ         16.2900   -4.9600  -11.2000 C.ar      5 PHE5        0.0000 
     50 CZ         17.8300   -4.5800  -12.6000 C.ar      5 PHE5        0.0000 
     51 CZ         20.4300   -6.5800  -11.8900 C.ar      5 PHE5        0.0000 
     52 CZ         16.8500   -3.9000  -10.3000 C.ar      5 PHE5        0.0000 
     53 CZ         18.3900   -3.5300  -11.7000 C.ar      5 PHE5        0.0000 
     54 CZ         18.2300   -4.4400  -10.5300 C.ar      5 PHE5        0.0000 
     55 CZ         19.7700   -4.0700  -11.9300 C.ar      5 PHE5        0.0000 
     56 CZ         20.9900   -5.5200  -10.9900 C.ar      5 PHE5        0.0000 
     57 CZ         20.3400   -3.0100  -11.0300 C.ar      5 PHE5        0.0000 
     58 CA         14.0200   -7.3100   -9.5200 C.3       6 GLY6        0.0000 
     59 CA         16.9400   -7.4700  -11.1500 C.3       6 GLY6        0.0000 
     60 CA         16.7800   -8.3900   -9.9800 C.3       6 GLY6        0.0000 
     61 CA         18.3200   -8.0100  -11.3900 C.3       6 GLY6        0.0000 
     62 CA         18.1600   -8.9300  -10.2100 C.3       6 GLY6        0.0000 
     63 CA         13.2000   -5.7200   -8.3800 C.3       6 GLY6        0.0000 
     64 CA         17.6700   -5.5000  -11.4300 C.3       6 GLY6        0.0000 
     65 CA         17.5000   -6.4200  -10.2500 C.3       6 GLY6        0.0000 
     66 CA         19.0500   -6.0400  -11.6600 C.3       6 GLY6        0.0000 
     67 CA         19.6100   -4.9800  -10.7600 C.3       6 GLY6        0.0000 
     68 DU         15.5600   -6.9400  -10.9200 H         7 CUB7        0.0000 
     69 DU         17.1000   -6.5600  -12.3300 H         7 CUB7        0.0000 
     70 DU         18.6400   -6.1800  -13.7400 H         7 CUB7        0.0000 
     71 DU         18.4800   -7.1000  -12.5600 H         7 CUB7        0.0000 
     72 DU         19.8600   -7.6400  -12.7900 H         7 CUB7        0.0000 
     73 DU         16.1200   -5.8800  -10.0200 H         7 CUB7        0.0000 
     74 DU         19.2100   -5.1200  -12.8400 H         7 CUB7        0.0000 
     75 DU         20.5900   -5.6600  -13.0700 H         7 CUB7        0.0000 
@<TRIPOS>BOND
@<TRIPOS>SUBSTRUCTURE
     1 SER1        1 GROUP   
     2 ALA2        7 GROUP   
     3 ASP3       16 GROUP   
     4 LYS4       24 GROUP   
     5 PHE5       34 GROUP   
     6 GLY6       58 GROUP   
     7 CUB7       68 GROUP   
@<TRIPOS>SET

