#    Name: 6hm1_1_AO3
#    Modification time : Fri May 22 19:29:01 2020

@<TRIPOS>MOLECULE
6hm1_1_AO3
   43    46     1     0     0
SMALL
NO_CHARGES


@<TRIPOS>ATOM
      1 C1         22.8340   -4.0980  -13.7940 C.3       1 AO3501      0.0000 
      2 C2         24.2570   -4.4550  -13.4310 C.3       1 AO3501      0.0000 
      3 C3         25.2160   -3.5360  -14.2200 C.3       1 AO3501      0.0000 
      4 C4         24.8790   -3.4710  -15.6890 C.3       1 AO3501      0.0000 
      5 C5         23.3860   -3.2330  -15.9410 C.3       1 AO3501      0.0000 
      6 C6         22.9540   -3.5790  -17.4200 C.3       1 AO3501      0.0000 
      7 C7         24.5390   -5.4860  -11.2570 C.2       1 AO3501      0.0000 
      8 C8         24.7820   -5.3350   -9.7720 C.3       1 AO3501      0.0000 
      9 N2         24.4740   -4.4040  -11.9990 N.am      1 AO3501      0.0000 
     10 O3         25.1000   -2.2550  -13.6700 O.3       1 AO3501      0.0000 
     11 O4         25.7340   -2.4730  -16.2580 O.3       1 AO3501      0.0000 
     12 O5         22.6110   -4.1110  -15.1770 O.3       1 AO3501      0.0000 
     13 O6         23.3560   -4.9280  -17.9360 O.3       1 AO3501      0.0000 
     14 O7         24.4160   -6.5610  -11.6790 O.2       1 AO3501      0.0000 
     15 C11        18.1000   -5.7540  -12.3890 C.3       1 AO3501      0.0000 
     16 C12        18.4070   -5.8770  -13.8630 C.3       1 AO3501      0.0000 
     17 C13        19.9110   -5.9010  -14.0010 C.3       1 AO3501      0.0000 
     18 C14        20.6020   -4.7540  -13.2710 C.3       1 AO3501      0.0000 
     19 C15        20.0790   -4.6320  -11.8450 C.3       1 AO3501      0.0000 
     20 C16        20.5470   -3.4060  -11.0970 C.3       1 AO3501      0.0000 
     21 C17        16.7500   -6.9510  -15.2200 C.2       1 AO3501      0.0000 
     22 C18        16.1540   -8.2520  -15.6520 C.3       1 AO3501      0.0000 
     23 N12        17.7860   -7.0640  -14.3850 N.am      1 AO3501      0.0000 
     24 O13        20.3620   -7.0950  -13.4500 O.3       1 AO3501      0.0000 
     25 O14        21.9910   -5.0580  -13.2260 O.3       1 AO3501      0.0000 
     26 O15        18.6840   -4.5970  -11.8600 O.3       1 AO3501      0.0000 
     27 O16        20.0940   -3.3640   -9.7830 O.3       1 AO3501      0.0000 
     28 O17        16.2920   -5.9550  -15.6230 O.2       1 AO3501      0.0000 
     29 C21        14.1890   -6.4580   -9.8150 C.3       1 AO3501      0.0000 
     30 C22        15.1320   -5.6050   -8.9390 C.3       1 AO3501      0.0000 
     31 C23        16.0120   -4.9140   -9.9700 C.3       1 AO3501      0.0000 
     32 C24        16.1510   -5.9710  -11.0520 C.3       1 AO3501      0.0000 
     33 C25        14.7180   -6.4410  -11.2280 C.3       1 AO3501      0.0000 
     34 C26        14.5240   -7.7710  -11.9520 C.3       1 AO3501      0.0000 
     35 C27        13.0190   -4.8570   -8.7180 C.2       1 AO3501      0.0000 
     36 C28        12.0490   -3.3330   -7.1800 C.3       1 AO3501      0.0000 
     37 C29        10.6460   -4.4030   -8.8140 C.3       1 AO3501      0.0000 
     38 N22        14.1760   -4.7150   -8.2740 N.pl3     1 AO3501      0.0000 
     39 N27        11.9700   -4.2340   -8.2790 N.pl3     1 AO3501      0.0000 
     40 O23        17.2690   -4.5850   -9.4290 O.3       1 AO3501      0.0000 
     41 O24        16.7180   -5.6490  -12.2910 O.3       1 AO3501      0.0000 
     42 O26        15.1920   -8.8180  -11.3360 O.3       1 AO3501      0.0000 
     43 O27        12.9370   -5.8650   -9.7240 O.3       1 AO3501      0.0000 
@<TRIPOS>BOND
     1    1    2 1    
     2    1   12 1    
     3    1   25 1    
     4    2    3 1    
     5    2    9 1    
     6    3    4 1    
     7    3   10 1    
     8    4    5 1    
     9    4   11 1    
    10    5    6 1    
    11    5   12 1    
    12    6   13 1    
    13    7    8 1    
    14    7    9 am   
    15    7   14 2    
    16   15   16 1    
    17   15   26 1    
    18   15   41 1    
    19   16   17 1    
    20   16   23 1    
    21   17   18 1    
    22   17   24 1    
    23   18   19 1    
    24   18   25 1    
    25   19   20 1    
    26   19   26 1    
    27   20   27 1    
    28   21   22 1    
    29   21   23 am   
    30   21   28 2    
    31   29   30 1    
    32   29   33 1    
    33   29   43 1    
    34   30   31 1    
    35   30   38 1    
    36   31   32 1    
    37   31   40 1    
    38   32   33 1    
    39   32   41 1    
    40   33   34 1    
    41   34   42 1    
    42   35   38 1    
    43   35   39 2    
    44   35   43 1    
    45   36   39 1    
    46   37   39 1    
@<TRIPOS>SUBSTRUCTURE
     1 AO3501      1 GROUP   
@<TRIPOS>SET

