#    Name: 6ixn_3_NAD
#    Modification time : Fri May 22 19:33:39 2020

@<TRIPOS>MOLECULE
6ixn_3_NAD
   44    48     1     0     1
SMALL
NO_CHARGES


@<TRIPOS>ATOM
      1 PA          3.6440    3.2280  -40.5520 P.3       1 NAD505      0.0000 
      2 O1A         4.3640    4.1840  -41.4670 O.co2     1 NAD505      0.0000 
      3 O2A         3.9220    1.7450  -40.5830 O.co2     1 NAD505      0.0000 
      4 O5B         3.7410    3.7670  -39.0420 O.3       1 NAD505      0.0000 
      5 C5B         3.0890    3.0330  -37.9930 C.3       1 NAD505      0.0000 
      6 C4B         3.7320    3.3040  -36.6320 C.3       1 NAD505      0.0000 
      7 O4B         4.9130    2.4890  -36.4910 O.3       1 NAD505      0.0000 
      8 C3B         4.2020    4.7470  -36.4140 C.3       1 NAD505      0.0000 
      9 O3B         4.0100    5.1150  -35.0460 O.3       1 NAD505      0.0000 
     10 C2B         5.6740    4.6760  -36.7790 C.3       1 NAD505      0.0000 
     11 O2B         6.4910    5.6480  -36.1270 O.3       1 NAD505      0.0000 
     12 C1B         6.0760    3.2700  -36.3710 C.3       1 NAD505      0.0000 
     13 N9A         7.1280    2.7200  -37.2460 N.pl3     1 NAD505      0.0000 
     14 C8A         6.9390    2.1970  -38.4730 C.2       1 NAD505      0.0000 
     15 N7A         8.1090    1.7960  -39.0050 N.2       1 NAD505      0.0000 
     16 C5A         9.0680    2.0830  -38.1010 C.ar      1 NAD505      0.0000 
     17 C6A        10.5210    1.9130  -38.0340 C.ar      1 NAD505      0.0000 
     18 N6A        11.1630    1.3550  -39.0790 N.pl3     1 NAD505      0.0000 
     19 N1A        11.1600    2.3440  -36.9250 N.ar      1 NAD505      0.0000 
     20 C2A        10.5120    2.8970  -35.8670 C.ar      1 NAD505      0.0000 
     21 N3A         9.1790    3.0720  -35.8740 N.ar      1 NAD505      0.0000 
     22 C4A         8.4260    2.6910  -36.9410 C.ar      1 NAD505      0.0000 
     23 O3          2.0430    3.2240  -40.7900 O.3       1 NAD505      0.0000 
     24 PN          0.9470    4.3910  -40.7810 P.3       1 NAD505      0.0000 
     25 O1N         1.3040    5.5890  -39.9290 O.co2     1 NAD505      0.0000 
     26 O2N        -0.3830    3.7050  -40.6000 O.co2     1 NAD505      0.0000 
     27 O5D         0.9720    4.8280  -42.3420 O.3       1 NAD505      0.0000 
     28 C5D         1.8120    5.8900  -42.8260 C.3       1 NAD505      0.0000 
     29 C4D         1.8040    5.9230  -44.3680 C.3       1 NAD505      0.0000 
     30 O4D         2.4160    4.7650  -44.9580 O.3       1 NAD505      0.0000 
     31 C3D         0.4030    6.0050  -44.9690 C.3       1 NAD505      0.0000 
     32 O3D         0.4520    7.0100  -45.9820 O.3       1 NAD505      0.0000 
     33 C2D         0.1090    4.6470  -45.5910 C.3       1 NAD505      0.0000 
     34 O2D        -0.6620    4.7300  -46.8040 O.3       1 NAD505      0.0000 
     35 C1D         1.5120    4.1240  -45.8850 C.3       1 NAD505      0.0000 
     36 N1N         1.7600    2.6900  -45.7380 N.pl3     1 NAD505      0.0000 
     37 C2N         2.4730    2.0740  -46.6960 C.ar      1 NAD505      0.0000 
     38 C3N         2.8290    0.7430  -46.6250 C.ar      1 NAD505      0.0000 
     39 C7N         3.6460    0.1490  -47.7690 C.2       1 NAD505      0.0000 
     40 O7N         3.9860    0.8410  -48.7340 O.2       1 NAD505      0.0000 
     41 N7N         4.0400   -1.1330  -47.7550 N.am      1 NAD505      0.0000 
     42 C4N         2.4240    0.0210  -45.4730 C.ar      1 NAD505      0.0000 
     43 C5N         1.7000    0.6710  -44.4770 C.ar      1 NAD505      0.0000 
     44 C6N         1.3830    2.0200  -44.6280 C.ar      1 NAD505      0.0000 
@<TRIPOS>BOND
     1    1    2 ar   
     2    1    3 ar   
     3    1    4 1    
     4    1   23 1    
     5    4    5 1    
     6    5    6 1    
     7    6    7 1    
     8    6    8 1    
     9    7   12 1    
    10    8    9 1    
    11    8   10 1    
    12   10   11 1    
    13   10   12 1    
    14   12   13 1    
    15   13   14 1    
    16   13   22 1    
    17   14   15 2    
    18   15   16 1    
    19   16   17 ar   
    20   16   22 ar   
    21   17   18 1    
    22   17   19 ar   
    23   19   20 ar   
    24   20   21 ar   
    25   21   22 ar   
    26   23   24 1    
    27   24   25 ar   
    28   24   26 ar   
    29   24   27 1    
    30   27   28 1    
    31   28   29 1    
    32   29   30 1    
    33   29   31 1    
    34   30   35 1    
    35   31   32 1    
    36   31   33 1    
    37   33   34 1    
    38   33   35 1    
    39   35   36 1    
    40   36   37 ar   
    41   36   44 ar   
    42   37   38 ar   
    43   38   39 1    
    44   38   42 ar   
    45   39   40 2    
    46   39   41 am   
    47   42   43 ar   
    48   43   44 ar   
@<TRIPOS>SUBSTRUCTURE
     1 NAD505      1 GROUP   
@<TRIPOS>SET
ATOM$ORANGE STATIC     ATOMS   COLORGROUP SYSTEM 
42 5 5 6 6 8 8 10 10 12 12 14 14 16 16 17 17 20 \
20 22 22 28 28 29 29 31 31 33 33 35 35 37 37 38 38 39 \
39 42 42 43 43 44 44 

