#    Name: 6ixn_4_NAD
#    Modification time : Fri May 22 19:33:48 2020

@<TRIPOS>MOLECULE
6ixn_4_NAD
   44    48     1     0     1
SMALL
NO_CHARGES


@<TRIPOS>ATOM
      1 PA        -12.5990  -18.2070  -27.8130 P.3       1 NAD506      0.0000 
      2 O1A       -12.7960  -16.7440  -27.5430 O.co2     1 NAD506      0.0000 
      3 O2A       -13.5640  -19.2270  -27.2970 O.co2     1 NAD506      0.0000 
      4 O5B       -11.1650  -18.5910  -27.2480 O.3       1 NAD506      0.0000 
      5 C5B        -9.9370  -18.0740  -27.7420 C.3       1 NAD506      0.0000 
      6 C4B        -8.8110  -18.2710  -26.7340 C.3       1 NAD506      0.0000 
      7 O4B        -9.0470  -17.3920  -25.6270 O.3       1 NAD506      0.0000 
      8 C3B        -8.7040  -19.6840  -26.1730 C.3       1 NAD506      0.0000 
      9 O3B        -7.3150  -20.0430  -26.0100 O.3       1 NAD506      0.0000 
     10 C2B        -9.4430  -19.5470  -24.8570 C.3       1 NAD506      0.0000 
     11 O2B        -9.0150  -20.4880  -23.8860 O.3       1 NAD506      0.0000 
     12 C1B        -9.1550  -18.1190  -24.4180 C.3       1 NAD506      0.0000 
     13 N9A       -10.2740  -17.6070  -23.5960 N.pl3     1 NAD506      0.0000 
     14 C8A       -11.4520  -17.1340  -24.0650 C.2       1 NAD506      0.0000 
     15 N7A       -12.2540  -16.7660  -23.0340 N.2       1 NAD506      0.0000 
     16 C5A       -11.5850  -17.0410  -21.8950 C.ar      1 NAD506      0.0000 
     17 C6A       -11.8500  -16.9000  -20.4650 C.ar      1 NAD506      0.0000 
     18 N6A       -13.0300  -16.4050  -20.0710 N.pl3     1 NAD506      0.0000 
     19 N1A       -10.8970  -17.2750  -19.5800 N.ar      1 NAD506      0.0000 
     20 C2A        -9.7070  -17.7740  -19.9940 C.ar      1 NAD506      0.0000 
     21 N3A        -9.3950  -17.9310  -21.2950 N.ar      1 NAD506      0.0000 
     22 C4A       -10.2790  -17.5800  -22.2670 C.ar      1 NAD506      0.0000 
     23 O3        -12.4490  -18.2790  -29.4360 O.3       1 NAD506      0.0000 
     24 PN        -12.2340  -19.4950  -30.4790 P.3       1 NAD506      0.0000 
     25 O1N       -11.6780  -18.8270  -31.7140 O.co2     1 NAD506      0.0000 
     26 O2N       -11.5190  -20.6450  -29.8100 O.co2     1 NAD506      0.0000 
     27 O5D       -13.7360  -19.9370  -30.8390 O.3       1 NAD506      0.0000 
     28 C5D       -14.3580  -21.0130  -30.1280 C.3       1 NAD506      0.0000 
     29 C4D       -15.8300  -21.1090  -30.5050 C.3       1 NAD506      0.0000 
     30 O4D       -16.5080  -19.9250  -30.0750 O.3       1 NAD506      0.0000 
     31 C3D       -16.0950  -21.2260  -32.0000 C.3       1 NAD506      0.0000 
     32 O3D       -17.1170  -22.2030  -32.2270 O.3       1 NAD506      0.0000 
     33 C2D       -16.6060  -19.8750  -32.4400 C.3       1 NAD506      0.0000 
     34 O2D       -17.6110  -19.9110  -33.4700 O.3       1 NAD506      0.0000 
     35 C1D       -17.2380  -19.3570  -31.1610 C.3       1 NAD506      0.0000 
     36 N1N       -17.2100  -17.9180  -30.8970 N.pl3     1 NAD506      0.0000 
     37 C2N       -18.3400  -17.3340  -30.4530 C.ar      1 NAD506      0.0000 
     38 C3N       -18.4050  -15.9920  -30.1000 C.ar      1 NAD506      0.0000 
     39 C7N       -19.7120  -15.4010  -29.5740 C.2       1 NAD506      0.0000 
     40 O7N       -20.7160  -16.0960  -29.4390 O.2       1 NAD506      0.0000 
     41 N7N       -19.8170  -14.1160  -29.1910 N.am      1 NAD506      0.0000 
     42 C4N       -17.2100  -15.2610  -30.2020 C.ar      1 NAD506      0.0000 
     43 C5N       -16.0450  -15.8660  -30.6570 C.ar      1 NAD506      0.0000 
     44 C6N       -16.0620  -17.2200  -30.9920 C.ar      1 NAD506      0.0000 
@<TRIPOS>BOND
     1    1    2 ar   
     2    1    3 ar   
     3    1    4 1    
     4    1   23 1    
     5    4    5 1    
     6    5    6 1    
     7    6    7 1    
     8    6    8 1    
     9    7   12 1    
    10    8    9 1    
    11    8   10 1    
    12   10   11 1    
    13   10   12 1    
    14   12   13 1    
    15   13   14 1    
    16   13   22 1    
    17   14   15 2    
    18   15   16 1    
    19   16   17 ar   
    20   16   22 ar   
    21   17   18 1    
    22   17   19 ar   
    23   19   20 ar   
    24   20   21 ar   
    25   21   22 ar   
    26   23   24 1    
    27   24   25 ar   
    28   24   26 ar   
    29   24   27 1    
    30   27   28 1    
    31   28   29 1    
    32   29   30 1    
    33   29   31 1    
    34   30   35 1    
    35   31   32 1    
    36   31   33 1    
    37   33   34 1    
    38   33   35 1    
    39   35   36 1    
    40   36   37 ar   
    41   36   44 ar   
    42   37   38 ar   
    43   38   39 1    
    44   38   42 ar   
    45   39   40 2    
    46   39   41 am   
    47   42   43 ar   
    48   43   44 ar   
@<TRIPOS>SUBSTRUCTURE
     1 NAD506      1 GROUP   
@<TRIPOS>SET
ATOM$ORANGE STATIC     ATOMS   COLORGROUP SYSTEM 
42 5 5 6 6 8 8 10 10 12 12 14 14 16 16 17 17 20 \
20 22 22 28 28 29 29 31 31 33 33 35 35 37 37 38 38 39 \
39 42 42 43 43 44 44 

