#    Name: 6bqw_7_ANP
#    Modification time : Fri May 22 19:31:47 2020

@<TRIPOS>MOLECULE
6bqw_7_ANP
   31    33     1     0     1
SMALL
NO_CHARGES


@<TRIPOS>ATOM
      1 PG        161.1080  157.6020  114.6500 P.3       1 ANP301      0.0000 
      2 O1G       160.0660  158.4190  113.9480 O.co2     1 ANP301      0.0000 
      3 O2G       162.4880  157.9710  114.3060 O.co2     1 ANP301      0.0000 
      4 O3G       160.8620  157.6370  116.0600 O.co2     1 ANP301      0.0000 
      5 PB        160.8610  154.8540  115.1600 P.3       1 ANP301      0.0000 
      6 O1B       159.9540  153.8240  114.5660 O.co2     1 ANP301      0.0000 
      7 O2B       160.5290  155.3250  116.4640 O.co2     1 ANP301      0.0000 
      8 N3B       161.0040  156.0800  114.0850 N.3       1 ANP301      0.0000 
      9 PA        163.1110  154.2000  113.8580 P.3       1 ANP301      0.0000 
     10 O1A       162.4830  153.2180  112.9650 O.co2     1 ANP301      0.0000 
     11 O2A       163.2850  155.5490  113.3670 O.co2     1 ANP301      0.0000 
     12 O3A       162.3100  154.3000  115.1020 O.3       1 ANP301      0.0000 
     13 O5'       164.4990  153.5930  114.2540 O.3       1 ANP301      0.0000 
     14 C5'       165.5770  153.6810  113.3000 C.3       1 ANP301      0.0000 
     15 C4'       166.3240  152.3820  113.2360 C.3       1 ANP301      0.0000 
     16 O4'       165.4230  151.3090  113.4620 O.3       1 ANP301      0.0000 
     17 C3'       166.9190  152.0940  111.9360 C.3       1 ANP301      0.0000 
     18 O3'       168.2290  152.7440  111.7990 O.3       1 ANP301      0.0000 
     19 C2'       167.1380  150.6390  111.9410 C.3       1 ANP301      0.0000 
     20 O2'       168.3780  150.1840  112.4700 O.3       1 ANP301      0.0000 
     21 C1'       165.9020  150.2580  112.7810 C.3       1 ANP301      0.0000 
     22 N9        164.8740  149.8950  111.8420 N.pl3     1 ANP301      0.0000 
     23 C8        163.7790  150.6180  111.6090 C.2       1 ANP301      0.0000 
     24 N7        163.0590  149.9950  110.6990 N.2       1 ANP301      0.0000 
     25 C5        163.6950  148.8870  110.3620 C.ar      1 ANP301      0.0000 
     26 C6        163.3750  147.8700  109.4580 C.ar      1 ANP301      0.0000 
     27 N6        162.2960  147.8410  108.7230 N.pl3     1 ANP301      0.0000 
     28 N1        164.2800  146.8920  109.3940 N.ar      1 ANP301      0.0000 
     29 C2        165.3870  146.8980  110.1370 C.ar      1 ANP301      0.0000 
     30 N3        165.7090  147.8350  110.9860 N.ar      1 ANP301      0.0000 
     31 C4        164.8570  148.8490  111.1150 C.ar      1 ANP301      0.0000 
@<TRIPOS>BOND
     1    1    2 ar   
     2    1    3 ar   
     3    1    4 ar   
     4    1    8 1    
     5    5    6 ar   
     6    5    7 ar   
     7    5    8 1    
     8    5   12 1    
     9    9   10 ar   
    10    9   11 ar   
    11    9   12 1    
    12    9   13 1    
    13   13   14 1    
    14   14   15 1    
    15   15   16 1    
    16   15   17 1    
    17   16   21 1    
    18   17   18 1    
    19   17   19 1    
    20   19   20 1    
    21   19   21 1    
    22   21   22 1    
    23   22   23 1    
    24   22   31 1    
    25   23   24 2    
    26   24   25 1    
    27   25   26 ar   
    28   25   31 ar   
    29   26   27 1    
    30   26   28 ar   
    31   28   29 ar   
    32   29   30 ar   
    33   30   31 ar   
@<TRIPOS>SUBSTRUCTURE
     1 ANP301      1 GROUP   
@<TRIPOS>SET
ATOM$ORANGE STATIC     ATOMS   COLORGROUP SYSTEM 
20 14 14 15 15 17 17 19 19 21 21 23 23 25 25 26 26 29 \
29 31 31 

