#    Name: 6bqw_9_ANP
#    Modification time : Fri May 22 19:31:52 2020

@<TRIPOS>MOLECULE
6bqw_9_ANP
   31    33     1     0     1
SMALL
NO_CHARGES


@<TRIPOS>ATOM
      1 PG        170.3510  155.8570   65.6890 P.3       1 ANP301      0.0000 
      2 O1G       169.0340  155.7130   64.9850 O.co2     1 ANP301      0.0000 
      3 O2G       171.0800  157.0850   65.3450 O.co2     1 ANP301      0.0000 
      4 O3G       170.1490  155.7100   67.0980 O.co2     1 ANP301      0.0000 
      5 PB        172.0940  153.7180   66.1980 P.3       1 ANP301      0.0000 
      6 O1B       172.1650  152.3480   65.6040 O.co2     1 ANP301      0.0000 
      7 O2B       171.5260  153.8230   67.5020 O.co2     1 ANP301      0.0000 
      8 N3B       171.3400  154.6950   65.1230 N.3       1 ANP301      0.0000 
      9 PA        174.1610  154.8230   64.8980 P.3       1 ANP301      0.0000 
     10 O1A       174.3980  153.6820   64.0050 O.co2     1 ANP301      0.0000 
     11 O2A       173.3430  155.9100   64.4070 O.co2     1 ANP301      0.0000 
     12 O3A       173.5170  154.3340   66.1410 O.3       1 ANP301      0.0000 
     13 O5'       175.5780  155.3580   65.2950 O.3       1 ANP301      0.0000 
     14 C5'       176.2880  156.1750   64.3420 C.3       1 ANP301      0.0000 
     15 C4'       177.7290  155.7680   64.2780 C.3       1 ANP301      0.0000 
     16 O4'       177.8350  154.3710   64.5040 O.3       1 ANP301      0.0000 
     17 C3'       178.3570  155.9780   62.9790 C.3       1 ANP301      0.0000 
     18 O3'       178.8400  157.3590   62.8430 O.3       1 ANP301      0.0000 
     19 C2'       179.5310  155.0910   62.9840 C.3       1 ANP301      0.0000 
     20 O2'       180.7360  155.6310   63.5140 O.3       1 ANP301      0.0000 
     21 C1'       178.9130  153.9540   63.8230 C.3       1 ANP301      0.0000 
     22 N9        178.4320  152.9760   62.8830 N.pl3     1 ANP301      0.0000 
     23 C8        177.1430  152.7280   62.6500 C.2       1 ANP301      0.0000 
     24 N7        177.0630  151.7800   61.7400 N.2       1 ANP301      0.0000 
     25 C5        178.2930  151.4310   61.4030 C.ar      1 ANP301      0.0000 
     26 C6        178.7750  150.4810   60.4990 C.ar      1 ANP301      0.0000 
     27 N6        178.0240  149.7070   59.7630 N.pl3     1 ANP301      0.0000 
     28 N1        180.1060  150.4140   60.4360 N.ar      1 ANP301      0.0000 
     29 C2        180.8930  151.1910   61.1790 C.ar      1 ANP301      0.0000 
     30 N3        180.4680  152.0870   62.0280 N.ar      1 ANP301      0.0000 
     31 C4        179.1500  152.2160   62.1560 C.ar      1 ANP301      0.0000 
@<TRIPOS>BOND
     1    1    2 ar   
     2    1    3 ar   
     3    1    4 ar   
     4    1    8 1    
     5    5    6 ar   
     6    5    7 ar   
     7    5    8 1    
     8    5   12 1    
     9    9   10 ar   
    10    9   11 ar   
    11    9   12 1    
    12    9   13 1    
    13   13   14 1    
    14   14   15 1    
    15   15   16 1    
    16   15   17 1    
    17   16   21 1    
    18   17   18 1    
    19   17   19 1    
    20   19   20 1    
    21   19   21 1    
    22   21   22 1    
    23   22   23 1    
    24   22   31 1    
    25   23   24 2    
    26   24   25 1    
    27   25   26 ar   
    28   25   31 ar   
    29   26   27 1    
    30   26   28 ar   
    31   28   29 ar   
    32   29   30 ar   
    33   30   31 ar   
@<TRIPOS>SUBSTRUCTURE
     1 ANP301      1 GROUP   
@<TRIPOS>SET
ATOM$ORANGE STATIC     ATOMS   COLORGROUP SYSTEM 
20 14 14 15 15 17 17 19 19 21 21 23 23 25 25 26 26 29 \
29 31 31 

