#    Name: 6bqw_4_ANP
#    Modification time : Fri May 22 19:31:33 2020

@<TRIPOS>MOLECULE
6bqw_4_ANP
   31    33     1     0     1
SMALL
NO_CHARGES


@<TRIPOS>ATOM
      1 PG        157.3280  174.5500  212.5830 P.3       1 ANP301      0.0000 
      2 O1G       158.1200  175.6120  211.8800 O.co2     1 ANP301      0.0000 
      3 O2G       157.7290  173.1800  212.2370 O.co2     1 ANP301      0.0000 
      4 O3G       157.3590  174.7960  213.9930 O.co2     1 ANP301      0.0000 
      5 PB        154.5750  174.7320  213.0950 P.3       1 ANP301      0.0000 
      6 O1B       153.5230  175.6160  212.5030 O.co2     1 ANP301      0.0000 
      7 O2B       155.0400  175.0750  214.3990 O.co2     1 ANP301      0.0000 
      8 N3B       155.8030  174.6200  212.0190 N.3       1 ANP301      0.0000 
      9 PA        153.9730  172.4690  211.7930 P.3       1 ANP301      0.0000 
     10 O1A       152.9760  173.0750  210.9010 O.co2     1 ANP301      0.0000 
     11 O2A       155.3250  172.3270  211.3000 O.co2     1 ANP301      0.0000 
     12 O3A       154.0550  173.2720  213.0370 O.3       1 ANP301      0.0000 
     13 O5'       153.3990  171.0670  212.1890 O.3       1 ANP301      0.0000 
     14 C5'       153.5110  169.9920  211.2340 C.3       1 ANP301      0.0000 
     15 C4'       152.2310  169.2150  211.1700 C.3       1 ANP301      0.0000 
     16 O4'       151.1370  170.0900  211.3980 O.3       1 ANP301      0.0000 
     17 C3'       151.9550  168.6140  209.8700 C.3       1 ANP301      0.0000 
     18 O3'       152.6360  167.3190  209.7320 O.3       1 ANP301      0.0000 
     19 C2'       150.5060  168.3600  209.8770 C.3       1 ANP301      0.0000 
     20 O2'       150.0800  167.1100  210.4050 O.3       1 ANP301      0.0000 
     21 C1'       150.0960  169.5860  210.7180 C.3       1 ANP301      0.0000 
     22 N9        149.7080  170.6060  209.7800 N.pl3     1 ANP301      0.0000 
     23 C8        150.4050  171.7180  209.5470 C.2       1 ANP301      0.0000 
     24 N7        149.7650  172.4240  208.6380 N.2       1 ANP301      0.0000 
     25 C5        148.6710  171.7630  208.3020 C.ar      1 ANP301      0.0000 
     26 C6        147.6460  172.0590  207.4000 C.ar      1 ANP301      0.0000 
     27 N6        147.5920  173.1380  206.6650 N.pl3     1 ANP301      0.0000 
     28 N1        146.6900  171.1320  207.3360 N.ar      1 ANP301      0.0000 
     29 C2        146.7220  170.0240  208.0770 C.ar      1 ANP301      0.0000 
     30 N3        147.6680  169.7240  208.9260 N.ar      1 ANP301      0.0000 
     31 C4        148.6610  170.6000  209.0540 C.ar      1 ANP301      0.0000 
@<TRIPOS>BOND
     1    1    2 ar   
     2    1    3 ar   
     3    1    4 ar   
     4    1    8 1    
     5    5    6 ar   
     6    5    7 ar   
     7    5    8 1    
     8    5   12 1    
     9    9   10 ar   
    10    9   11 ar   
    11    9   12 1    
    12    9   13 1    
    13   13   14 1    
    14   14   15 1    
    15   15   16 1    
    16   15   17 1    
    17   16   21 1    
    18   17   18 1    
    19   17   19 1    
    20   19   20 1    
    21   19   21 1    
    22   21   22 1    
    23   22   23 1    
    24   22   31 1    
    25   23   24 2    
    26   24   25 1    
    27   25   26 ar   
    28   25   31 ar   
    29   26   27 1    
    30   26   28 ar   
    31   28   29 ar   
    32   29   30 ar   
    33   30   31 ar   
@<TRIPOS>SUBSTRUCTURE
     1 ANP301      1 GROUP   
@<TRIPOS>SET
ATOM$ORANGE STATIC     ATOMS   COLORGROUP SYSTEM 
20 14 14 15 15 17 17 19 19 21 21 23 23 25 25 26 26 29 \
29 31 31 

