#    Name: 6bqw_6_ANP
#    Modification time : Fri May 22 19:31:42 2020

@<TRIPOS>MOLECULE
6bqw_6_ANP
   31    33     1     0     1
SMALL
NO_CHARGES


@<TRIPOS>ATOM
      1 PG        178.1960  175.1580  139.1420 P.3       1 ANP301      0.0000 
      2 O1G       178.8540  174.0100  138.4370 O.co2     1 ANP301      0.0000 
      3 O2G       176.7790  175.3380  138.7980 O.co2     1 ANP301      0.0000 
      4 O3G       178.4110  175.0300  140.5510 O.co2     1 ANP301      0.0000 
      5 PB        179.4620  177.6090  139.6550 P.3       1 ANP301      0.0000 
      6 O1B       180.6910  178.2220  139.0630 O.co2     1 ANP301      0.0000 
      7 O2B       179.5920  177.0450  140.9580 O.co2     1 ANP301      0.0000 
      8 N3B       178.8680  176.5300  138.5790 N.3       1 ANP301      0.0000 
      9 PA        177.6250  179.0660  138.3570 P.3       1 ANP301      0.0000 
     10 O1A       178.5770  179.7400  137.4650 O.co2     1 ANP301      0.0000 
     11 O2A       176.9550  177.8830  137.8630 O.co2     1 ANP301      0.0000 
     12 O3A       178.3300  178.6690  139.5990 O.3       1 ANP301      0.0000 
     13 O5'       176.5690  180.1510  138.7540 O.3       1 ANP301      0.0000 
     14 C5'       175.5370  180.4780  137.8010 C.3       1 ANP301      0.0000 
     15 C4'       175.3350  181.9620  137.7390 C.3       1 ANP301      0.0000 
     16 O4'       176.5740  182.6160  137.9670 O.3       1 ANP301      0.0000 
     17 C3'       174.8930  182.4560  136.4400 C.3       1 ANP301      0.0000 
     18 O3'       173.4340  182.3480  136.3030 O.3       1 ANP301      0.0000 
     19 C2'       175.2380  183.8860  136.4480 C.3       1 ANP301      0.0000 
     20 O2'       174.2620  184.7750  136.9780 O.3       1 ANP301      0.0000 
     21 C1'       176.5270  183.7720  137.2880 C.3       1 ANP301      0.0000 
     22 N9        177.6160  183.7220  136.3480 N.pl3     1 ANP301      0.0000 
     23 C8        178.3580  182.6400  136.1130 C.2       1 ANP301      0.0000 
     24 N7        179.2590  182.9460  135.2040 N.2       1 ANP301      0.0000 
     25 C5        179.0890  184.2130  134.8690 C.ar      1 ANP301      0.0000 
     26 C6        179.7680  185.0360  133.9670 C.ar      1 ANP301      0.0000 
     27 N6        180.7780  184.6560  133.2310 N.pl3     1 ANP301      0.0000 
     28 N1        179.2990  186.2820  133.9050 N.ar      1 ANP301      0.0000 
     29 C2        178.2720  186.6940  134.6480 C.ar      1 ANP301      0.0000 
     30 N3        177.6200  185.9460  135.4960 N.ar      1 ANP301      0.0000 
     31 C4        178.0270  184.6850  135.6230 C.ar      1 ANP301      0.0000 
@<TRIPOS>BOND
     1    1    2 ar   
     2    1    3 ar   
     3    1    4 ar   
     4    1    8 1    
     5    5    6 ar   
     6    5    7 ar   
     7    5    8 1    
     8    5   12 1    
     9    9   10 ar   
    10    9   11 ar   
    11    9   12 1    
    12    9   13 1    
    13   13   14 1    
    14   14   15 1    
    15   15   16 1    
    16   15   17 1    
    17   16   21 1    
    18   17   18 1    
    19   17   19 1    
    20   19   20 1    
    21   19   21 1    
    22   21   22 1    
    23   22   23 1    
    24   22   31 1    
    25   23   24 2    
    26   24   25 1    
    27   25   26 ar   
    28   25   31 ar   
    29   26   27 1    
    30   26   28 ar   
    31   28   29 ar   
    32   29   30 ar   
    33   30   31 ar   
@<TRIPOS>SUBSTRUCTURE
     1 ANP301      1 GROUP   
@<TRIPOS>SET
ATOM$ORANGE STATIC     ATOMS   COLORGROUP SYSTEM 
20 14 14 15 15 17 17 19 19 21 21 23 23 25 25 26 26 29 \
29 31 31 

