#    Name: 6bqw_5_ANP
#    Modification time : Fri May 22 19:31:38 2020

@<TRIPOS>MOLECULE
6bqw_5_ANP
   31    33     1     0     1
SMALL
NO_CHARGES


@<TRIPOS>ATOM
      1 PG        180.2570  165.9190  188.0920 P.3       1 ANP301      0.0000 
      2 O1G       179.9240  164.6380  187.3870 O.co2     1 ANP301      0.0000 
      3 O2G       179.3680  167.0370  187.7480 O.co2     1 ANP301      0.0000 
      4 O3G       180.3220  165.6770  189.5010 O.co2     1 ANP301      0.0000 
      5 PB        182.8750  166.7880  188.6040 P.3       1 ANP301      0.0000 
      6 O1B       184.1820  166.3670  188.0100 O.co2     1 ANP301      0.0000 
      7 O2B       182.5750  166.2930  189.9070 O.co2     1 ANP301      0.0000 
      8 N3B       181.6950  166.4310  187.5280 N.3       1 ANP301      0.0000 
      9 PA        182.5780  169.1130  187.3060 P.3       1 ANP301      0.0000 
     10 O1A       183.7290  168.9300  186.4130 O.co2     1 ANP301      0.0000 
     11 O2A       181.2720  168.7360  186.8130 O.co2     1 ANP301      0.0000 
     12 O3A       182.8050  168.3370  188.5480 O.3       1 ANP301      0.0000 
     13 O5'       182.5810  170.6270  187.7030 O.3       1 ANP301      0.0000 
     14 C5'       182.0710  171.5820  186.7510 C.3       1 ANP301      0.0000 
     15 C4'       182.9630  172.7850  186.6880 C.3       1 ANP301      0.0000 
     16 O4'       184.3060  172.3870  186.9150 O.3       1 ANP301      0.0000 
     17 C3'       182.9910  173.4480  185.3890 C.3       1 ANP301      0.0000 
     18 O3'       181.8720  174.3900  185.2530 O.3       1 ANP301      0.0000 
     19 C2'       184.2380  174.2290  185.3970 C.3       1 ANP301      0.0000 
     20 O2'       184.1600  175.5470  185.9270 O.3       1 ANP301      0.0000 
     21 C1'       185.0800  173.2470  186.2350 C.3       1 ANP301      0.0000 
     22 N9        185.8230  172.4510  185.2950 N.pl3     1 ANP301      0.0000 
     23 C8        185.5970  171.1580  185.0600 C.2       1 ANP301      0.0000 
     24 N7        186.4560  170.7470  184.1510 N.2       1 ANP301      0.0000 
     25 C5        187.2190  171.7730  183.8160 C.ar      1 ANP301      0.0000 
     26 C6        188.2800  171.8870  182.9130 C.ar      1 ANP301      0.0000 
     27 N6        188.7360  170.9090  182.1760 N.pl3     1 ANP301      0.0000 
     28 N1        188.8150  173.1060  182.8500 N.ar      1 ANP301      0.0000 
     29 C2        188.3680  174.1180  183.5940 C.ar      1 ANP301      0.0000 
     30 N3        187.3790  174.0390  184.4430 N.ar      1 ANP301      0.0000 
     31 C4        186.7900  172.8520  184.5690 C.ar      1 ANP301      0.0000 
@<TRIPOS>BOND
     1    1    2 ar   
     2    1    3 ar   
     3    1    4 ar   
     4    1    8 1    
     5    5    6 ar   
     6    5    7 ar   
     7    5    8 1    
     8    5   12 1    
     9    9   10 ar   
    10    9   11 ar   
    11    9   12 1    
    12    9   13 1    
    13   13   14 1    
    14   14   15 1    
    15   15   16 1    
    16   15   17 1    
    17   16   21 1    
    18   17   18 1    
    19   17   19 1    
    20   19   20 1    
    21   19   21 1    
    22   21   22 1    
    23   22   23 1    
    24   22   31 1    
    25   23   24 2    
    26   24   25 1    
    27   25   26 ar   
    28   25   31 ar   
    29   26   27 1    
    30   26   28 ar   
    31   28   29 ar   
    32   29   30 ar   
    33   30   31 ar   
@<TRIPOS>SUBSTRUCTURE
     1 ANP301      1 GROUP   
@<TRIPOS>SET
ATOM$ORANGE STATIC     ATOMS   COLORGROUP SYSTEM 
20 14 14 15 15 17 17 19 19 21 21 23 23 25 25 26 26 29 \
29 31 31 

