#    Name: 6bqw_1_ANP
#    Modification time : Fri May 22 19:31:27 2020

@<TRIPOS>MOLECULE
6bqw_1_ANP
   31    33     1     0     1
SMALL
NO_CHARGES


@<TRIPOS>ATOM
      1 PG        155.7490  165.3020  163.6170 P.3       1 ANP301      0.0000 
      2 O1G       155.5730  166.6160  162.9140 O.co2     1 ANP301      0.0000 
      3 O2G       156.9930  164.6020  163.2710 O.co2     1 ANP301      0.0000 
      4 O3G       155.5980  165.5000  165.0260 O.co2     1 ANP301      0.0000 
      5 PB        153.6520  163.5090  164.1270 P.3       1 ANP301      0.0000 
      6 O1B       152.2830  163.4060  163.5340 O.co2     1 ANP301      0.0000 
      7 O2B       153.7450  164.0780  165.4310 O.co2     1 ANP301      0.0000 
      8 N3B       154.6100  164.2870  163.0520 N.3       1 ANP301      0.0000 
      9 PA        154.8030  161.4690  162.8250 P.3       1 ANP301      0.0000 
     10 O1A       153.6680  161.2060  161.9320 O.co2     1 ANP301      0.0000 
     11 O2A       155.8700  162.3130  162.3330 O.co2     1 ANP301      0.0000 
     12 O3A       154.3010  162.1010  164.0690 O.3       1 ANP301      0.0000 
     13 O5'       155.3720  160.0650  163.2200 O.3       1 ANP301      0.0000 
     14 C5'       156.2040  159.3750  162.2660 C.3       1 ANP301      0.0000 
     15 C4'       155.8310  157.9250  162.2010 C.3       1 ANP301      0.0000 
     16 O4'       154.4370  157.7860  162.4280 O.3       1 ANP301      0.0000 
     17 C3'       156.0550  157.3020  160.9010 C.3       1 ANP301      0.0000 
     18 O3'       157.4460  156.8520  160.7630 O.3       1 ANP301      0.0000 
     19 C2'       155.1950  156.1080  160.9070 C.3       1 ANP301      0.0000 
     20 O2'       155.7640  154.9160  161.4350 O.3       1 ANP301      0.0000 
     21 C1'       154.0450  156.6990  161.7470 C.3       1 ANP301      0.0000 
     22 N9        153.0550  157.1580  160.8090 N.pl3     1 ANP301      0.0000 
     23 C8        152.7770  158.4400  160.5760 C.2       1 ANP301      0.0000 
     24 N7        151.8260  158.4980  159.6670 N.2       1 ANP301      0.0000 
     25 C5        151.5060  157.2610  159.3300 C.ar      1 ANP301      0.0000 
     26 C6        150.5660  156.7570  158.4270 C.ar      1 ANP301      0.0000 
     27 N6        149.7740  157.4910  157.6920 N.pl3     1 ANP301      0.0000 
     28 N1        150.5300  155.4260  158.3630 N.ar      1 ANP301      0.0000 
     29 C2        151.3270  154.6560  159.1050 C.ar      1 ANP301      0.0000 
     30 N3        152.2130  155.1010  159.9530 N.ar      1 ANP301      0.0000 
     31 C4        152.3110  156.4220  160.0820 C.ar      1 ANP301      0.0000 
@<TRIPOS>BOND
     1    1    2 ar   
     2    1    3 ar   
     3    1    4 ar   
     4    1    8 1    
     5    5    6 ar   
     6    5    7 ar   
     7    5    8 1    
     8    5   12 1    
     9    9   10 ar   
    10    9   11 ar   
    11    9   12 1    
    12    9   13 1    
    13   13   14 1    
    14   14   15 1    
    15   15   16 1    
    16   15   17 1    
    17   16   21 1    
    18   17   18 1    
    19   17   19 1    
    20   19   20 1    
    21   19   21 1    
    22   21   22 1    
    23   22   23 1    
    24   22   31 1    
    25   23   24 2    
    26   24   25 1    
    27   25   26 ar   
    28   25   31 ar   
    29   26   27 1    
    30   26   28 ar   
    31   28   29 ar   
    32   29   30 ar   
    33   30   31 ar   
@<TRIPOS>SUBSTRUCTURE
     1 ANP301      1 GROUP   
@<TRIPOS>SET
ATOM$ORANGE STATIC     ATOMS   COLORGROUP SYSTEM 
20 14 14 15 15 17 17 19 19 21 21 23 23 25 25 26 26 29 \
29 31 31 

