#    Name: 6abu_5_NAD
#    Modification time : Fri May 22 19:24:54 2020

@<TRIPOS>MOLECULE
6abu_5_NAD
   23    25     1     0     1
SMALL
NO_CHARGES


@<TRIPOS>ATOM
      1 PA         11.7920   12.8040   94.0070 P.3       1 NAD3003     0.0000 
      2 O1A        12.3110   12.9780   92.5770 O.co2     1 NAD3003     0.0000 
      3 O2A        11.4100   11.4210   94.5230 O.co2     1 NAD3003     0.0000 
      4 O5B        12.9440   13.3450   95.0220 O.3       1 NAD3003     0.0000 
      5 C5B        14.0490   12.4590   95.2660 C.3       1 NAD3003     0.0000 
      6 C4B        14.9180   13.0620   96.3520 C.3       1 NAD3003     0.0000 
      7 O4B        14.1750   13.0570   97.5910 O.3       1 NAD3003     0.0000 
      8 C3B        16.1940   12.2930   96.6240 C.3       1 NAD3003     0.0000 
      9 O3B        17.2910   12.8090   95.8840 O.3       1 NAD3003     0.0000 
     10 C2B        16.3900   12.5180   98.1080 C.3       1 NAD3003     0.0000 
     11 O2B        16.9330   13.7880   98.3740 O.3       1 NAD3003     0.0000 
     12 C1B        15.0020   12.6110   98.6900 C.3       1 NAD3003     0.0000 
     13 N9A        14.4430   11.3500   99.2600 N.pl3     1 NAD3003     0.0000 
     14 C8A        13.3670   10.6480   98.7790 C.2       1 NAD3003     0.0000 
     15 N7A        13.1070    9.5680   99.5640 N.2       1 NAD3003     0.0000 
     16 C5A        13.9990    9.5760  100.5610 C.ar      1 NAD3003     0.0000 
     17 C6A        14.2630    8.7460  101.7270 C.ar      1 NAD3003     0.0000 
     18 N6A        13.5470    7.6530  102.0130 N.pl3     1 NAD3003     0.0000 
     19 N1A        15.2900    9.0720  102.4990 N.ar      1 NAD3003     0.0000 
     20 C2A        16.0440   10.1450  102.2440 C.ar      1 NAD3003     0.0000 
     21 N3A        15.8790   10.9710  101.2100 N.ar      1 NAD3003     0.0000 
     22 C4A        14.8720   10.7370  100.3480 C.ar      1 NAD3003     0.0000 
     23 O3         10.5280   13.8140   94.1610 O.3       1 NAD3003     0.0000 
@<TRIPOS>BOND
     1    1    2 ar   
     2    1    3 ar   
     3    1    4 1    
     4    1   23 1    
     5    4    5 1    
     6    5    6 1    
     7    6    7 1    
     8    6    8 1    
     9    7   12 1    
    10    8    9 1    
    11    8   10 1    
    12   10   11 1    
    13   10   12 1    
    14   12   13 1    
    15   13   14 1    
    16   13   22 1    
    17   14   15 2    
    18   15   16 1    
    19   16   17 ar   
    20   16   22 ar   
    21   17   18 1    
    22   17   19 ar   
    23   19   20 ar   
    24   20   21 ar   
    25   21   22 ar   
@<TRIPOS>SUBSTRUCTURE
     1 NAD3003     1 GROUP   
@<TRIPOS>SET
ATOM$ORANGE STATIC     ATOMS   COLORGROUP SYSTEM 
20 5 5 6 6 8 8 10 10 12 12 14 14 16 16 17 17 20 \
20 22 22 

