#    Name: 6abu_3_NAD
#    Modification time : Fri May 22 19:24:19 2020

@<TRIPOS>MOLECULE
6abu_3_NAD
   27    29     1     0     1
SMALL
NO_CHARGES


@<TRIPOS>ATOM
      1 PA        -18.8860   20.1410   19.2170 P.3       1 NAD1401     0.0000 
      2 O1A       -17.8310   21.0780   19.7840 O.co2     1 NAD1401     0.0000 
      3 O2A       -20.2870   20.1460   19.7890 O.co2     1 NAD1401     0.0000 
      4 O5B       -18.9870   20.4620   17.6300 O.3       1 NAD1401     0.0000 
      5 C5B       -17.8160   20.4200   16.8060 C.3       1 NAD1401     0.0000 
      6 C4B       -18.1250   19.8340   15.4280 C.3       1 NAD1401     0.0000 
      7 O4B       -19.5320   19.7160   15.2260 O.3       1 NAD1401     0.0000 
      8 C3B       -17.6240   20.6960   14.2760 C.3       1 NAD1401     0.0000 
      9 O3B       -16.3110   20.3960   13.8270 O.3       1 NAD1401     0.0000 
     10 C2B       -18.5960   20.4100   13.1680 C.3       1 NAD1401     0.0000 
     11 O2B       -18.3390   19.2310   12.4400 O.3       1 NAD1401     0.0000 
     12 C1B       -19.8830   20.1660   13.8940 C.3       1 NAD1401     0.0000 
     13 N9A       -20.6720   21.4350   13.7990 N.pl3     1 NAD1401     0.0000 
     14 C8A       -21.0570   22.2000   14.8420 C.2       1 NAD1401     0.0000 
     15 N7A       -21.7620   23.2660   14.4030 N.2       1 NAD1401     0.0000 
     16 C5A       -21.8340   23.2010   13.0640 C.ar      1 NAD1401     0.0000 
     17 C6A       -22.4430   24.0170   11.9880 C.ar      1 NAD1401     0.0000 
     18 N6A       -23.1120   25.1420   12.3360 N.pl3     1 NAD1401     0.0000 
     19 N1A       -22.3000   23.6260   10.6890 N.ar      1 NAD1401     0.0000 
     20 C2A       -21.6190   22.5060   10.3840 C.ar      1 NAD1401     0.0000 
     21 N3A       -21.0490   21.7180   11.3310 N.ar      1 NAD1401     0.0000 
     22 C4A       -21.1180   21.9970   12.6610 C.ar      1 NAD1401     0.0000 
     23 O3        -18.3070   18.6000   19.2720 O.3       1 NAD1401     0.0000 
     24 PN        -17.7000   17.8330   20.6040 P.3       1 NAD1401     0.0000 
     25 O1N       -16.4740   16.8210   20.2090 O.3       1 NAD1401     0.0000 
     26 O2N       -17.1270   18.9740   21.4460 O.co2     1 NAD1401     0.0000 
     27 O5D       -18.7850   16.8830   21.0990 O.co2     1 NAD1401     0.0000 
@<TRIPOS>BOND
     1    1    2 ar   
     2    1    3 ar   
     3    1    4 1    
     4    1   23 1    
     5    4    5 1    
     6    5    6 1    
     7    6    7 1    
     8    6    8 1    
     9    7   12 1    
    10    8    9 1    
    11    8   10 1    
    12   10   11 1    
    13   10   12 1    
    14   12   13 1    
    15   13   14 1    
    16   13   22 1    
    17   14   15 2    
    18   15   16 1    
    19   16   17 ar   
    20   16   22 ar   
    21   17   18 1    
    22   17   19 ar   
    23   19   20 ar   
    24   20   21 ar   
    25   21   22 ar   
    26   23   24 1    
    27   24   25 1    
    28   24   26 ar   
    29   24   27 ar   
@<TRIPOS>SUBSTRUCTURE
     1 NAD1401     1 GROUP   
@<TRIPOS>SET
ATOM$ORANGE STATIC     ATOMS   COLORGROUP SYSTEM 
20 5 5 6 6 8 8 10 10 12 12 14 14 16 16 17 17 20 \
20 22 22 

