#    Name: 6abu_4_FAD
#    Modification time : Fri May 22 19:24:35 2020

@<TRIPOS>MOLECULE
6abu_4_FAD
   53    58     1     0     1
SMALL
NO_CHARGES


@<TRIPOS>ATOM
      1 PA        -22.6730   10.7520   30.1050 P.3       1 FAD1406     0.0000 
      2 O1A       -21.5290   11.6850   29.8250 O.co2     1 FAD1406     0.0000 
      3 O2A       -22.8480   10.0730   31.4200 O.co2     1 FAD1406     0.0000 
      4 O5B       -24.0270   11.5610   29.7350 O.3       1 FAD1406     0.0000 
      5 C5B       -24.1240   12.3060   28.5190 C.3       1 FAD1406     0.0000 
      6 C4B       -25.4730   13.0120   28.3230 C.3       1 FAD1406     0.0000 
      7 O4B       -26.5210   12.0670   28.2380 O.3       1 FAD1406     0.0000 
      8 C3B       -25.8390   13.8670   29.5170 C.3       1 FAD1406     0.0000 
      9 O3B       -26.5260   15.0470   29.1260 O.3       1 FAD1406     0.0000 
     10 C2B       -26.7570   13.0280   30.3580 C.3       1 FAD1406     0.0000 
     11 O2B       -27.5520   13.8480   31.2400 O.3       1 FAD1406     0.0000 
     12 C1B       -27.4950   12.2760   29.2910 C.3       1 FAD1406     0.0000 
     13 N9A       -28.0420   10.9160   29.5700 N.pl3     1 FAD1406     0.0000 
     14 C8A       -27.3500    9.7770   29.7150 C.2       1 FAD1406     0.0000 
     15 N7A       -28.1850    8.7440   29.8300 N.2       1 FAD1406     0.0000 
     16 C5A       -29.4420    9.2210   29.7310 C.ar      1 FAD1406     0.0000 
     17 C6A       -30.8240    8.6760   29.7440 C.ar      1 FAD1406     0.0000 
     18 N6A       -31.0540    7.3690   29.9120 N.pl3     1 FAD1406     0.0000 
     19 N1A       -31.8640    9.5640   29.5890 N.ar      1 FAD1406     0.0000 
     20 C2A       -31.6290   10.8900   29.4330 C.ar      1 FAD1406     0.0000 
     21 N3A       -30.4080   11.4370   29.3920 N.ar      1 FAD1406     0.0000 
     22 C4A       -29.3330   10.6500   29.5360 C.ar      1 FAD1406     0.0000 
     23 N1        -18.8780    9.8790   20.5070 N.2       1 FAD1406     0.0000 
     24 C2        -19.1080    9.4460   19.2390 C.2       1 FAD1406     0.0000 
     25 O2        -20.2750    9.4920   18.7140 O.2       1 FAD1406     0.0000 
     26 N3        -18.1100    8.9410   18.4950 N.am      1 FAD1406     0.0000 
     27 C4        -16.8570    8.7910   18.9220 C.2       1 FAD1406     0.0000 
     28 O4        -15.9650    8.3080   18.1630 O.2       1 FAD1406     0.0000 
     29 C4X       -16.5480    9.2620   20.2910 C.2       1 FAD1406     0.0000 
     30 N5        -15.2930    9.1820   20.7760 N.2       1 FAD1406     0.0000 
     31 C5X       -15.0070    9.6130   22.0110 C.ar      1 FAD1406     0.0000 
     32 C6        -13.6860    9.5050   22.4790 C.ar      1 FAD1406     0.0000 
     33 C7        -13.3230    9.9400   23.7400 C.ar      1 FAD1406     0.0000 
     34 C7M       -11.8860    9.8250   24.2340 C.3       1 FAD1406     0.0000 
     35 C8        -14.4010   10.4830   24.5890 C.ar      1 FAD1406     0.0000 
     36 C8M       -14.0840   10.9350   25.9960 C.3       1 FAD1406     0.0000 
     37 C9        -15.7160   10.5940   24.1290 C.ar      1 FAD1406     0.0000 
     38 C9A       -16.0750   10.1800   22.8590 C.ar      1 FAD1406     0.0000 
     39 N10       -17.4130   10.2630   22.3570 N.pl3     1 FAD1406     0.0000 
     40 C10       -17.6530    9.8360   21.0540 C.2       1 FAD1406     0.0000 
     41 C1'       -18.5050   10.8360   23.1710 C.3       1 FAD1406     0.0000 
     42 C2'       -18.9960    9.9380   24.3110 C.3       1 FAD1406     0.0000 
     43 O2'       -18.0810    8.8880   24.5530 O.3       1 FAD1406     0.0000 
     44 C3'       -20.2960    9.2650   23.9390 C.3       1 FAD1406     0.0000 
     45 O3'       -21.2640   10.2570   23.5060 O.3       1 FAD1406     0.0000 
     46 C4'       -20.8300    8.3810   25.0390 C.3       1 FAD1406     0.0000 
     47 O4'       -21.8080    7.5230   24.4250 O.3       1 FAD1406     0.0000 
     48 C5'       -21.5170    9.1770   26.1250 C.3       1 FAD1406     0.0000 
     49 O5'       -22.1250    8.2420   26.9950 O.3       1 FAD1406     0.0000 
     50 P         -21.9180    8.3700   28.5960 P.3       1 FAD1406     0.0000 
     51 O1P       -22.7200    7.2400   29.1570 O.co2     1 FAD1406     0.0000 
     52 O2P       -20.4400    8.5520   28.9250 O.co2     1 FAD1406     0.0000 
     53 O3P       -22.6830    9.7400   28.8290 O.3       1 FAD1406     0.0000 
@<TRIPOS>BOND
     1    1    2 ar   
     2    1    3 ar   
     3    1    4 1    
     4    1   53 1    
     5    4    5 1    
     6    5    6 1    
     7    6    7 1    
     8    6    8 1    
     9    7   12 1    
    10    8    9 1    
    11    8   10 1    
    12   10   11 1    
    13   10   12 1    
    14   12   13 1    
    15   13   14 1    
    16   13   22 1    
    17   14   15 2    
    18   15   16 1    
    19   16   17 ar   
    20   16   22 ar   
    21   17   18 1    
    22   17   19 ar   
    23   19   20 ar   
    24   20   21 ar   
    25   21   22 ar   
    26   23   24 1    
    27   23   40 2    
    28   24   25 2    
    29   24   26 am   
    30   26   27 am   
    31   27   28 2    
    32   27   29 1    
    33   29   30 2    
    34   29   40 1    
    35   30   31 1    
    36   31   32 ar   
    37   31   38 ar   
    38   32   33 ar   
    39   33   34 1    
    40   33   35 ar   
    41   35   36 1    
    42   35   37 ar   
    43   37   38 ar   
    44   38   39 1    
    45   39   40 1    
    46   39   41 1    
    47   41   42 1    
    48   42   43 1    
    49   42   44 1    
    50   44   45 1    
    51   44   46 1    
    52   46   47 1    
    53   46   48 1    
    54   48   49 1    
    55   49   50 1    
    56   50   51 ar   
    57   50   52 ar   
    58   50   53 1    
@<TRIPOS>SUBSTRUCTURE
     1 FAD1406     1 GROUP   
@<TRIPOS>SET
ATOM$ORANGE STATIC     ATOMS   COLORGROUP SYSTEM 
54 5 5 6 6 8 8 10 10 12 12 14 14 16 16 17 17 20 \
20 22 22 24 24 27 27 29 29 31 31 32 32 33 33 34 34 35 \
35 36 36 37 37 38 38 40 40 41 41 42 42 44 44 46 46 48 \
48 

