#    Name: 6abu_6_FAD
#    Modification time : Fri May 22 19:25:12 2020

@<TRIPOS>MOLECULE
6abu_6_FAD
   53    58     1     0     1
SMALL
NO_CHARGES


@<TRIPOS>ATOM
      1 PA          1.4120   22.1480   88.2360 P.3       1 FAD3006     0.0000 
      2 O1A         2.4600   21.2990   87.5430 O.co2     1 FAD3006     0.0000 
      3 O2A         0.4080   22.9020   87.4330 O.co2     1 FAD3006     0.0000 
      4 O5B         0.6850   21.3700   89.4230 O.3       1 FAD3006     0.0000 
      5 C5B         1.4810   20.8310   90.4930 C.3       1 FAD3006     0.0000 
      6 C4B         0.6400   20.0810   91.4750 C.3       1 FAD3006     0.0000 
      7 O4B        -0.1020   20.9790   92.3570 O.3       1 FAD3006     0.0000 
      8 C3B        -0.4170   19.1880   90.8460 C.3       1 FAD3006     0.0000 
      9 O3B        -0.5360   17.9680   91.6230 O.3       1 FAD3006     0.0000 
     10 C2B        -1.6830   19.9890   90.8990 C.3       1 FAD3006     0.0000 
     11 O2B        -2.8720   19.2210   90.9480 O.3       1 FAD3006     0.0000 
     12 C1B        -1.5260   20.7040   92.1980 C.3       1 FAD3006     0.0000 
     13 N9A        -2.1040   22.0120   92.3690 N.pl3     1 FAD3006     0.0000 
     14 C8A        -1.7730   23.1690   91.7870 C.2       1 FAD3006     0.0000 
     15 N7A        -2.4900   24.2080   92.3360 N.2       1 FAD3006     0.0000 
     16 C5A        -3.2260   23.6630   93.3060 C.ar      1 FAD3006     0.0000 
     17 C6A        -4.1440   24.2070   94.2780 C.ar      1 FAD3006     0.0000 
     18 N6A        -4.3670   25.5200   94.2370 N.pl3     1 FAD3006     0.0000 
     19 N1A        -4.7350   23.3730   95.1350 N.ar      1 FAD3006     0.0000 
     20 C2A        -4.4380   22.0580   95.1260 C.ar      1 FAD3006     0.0000 
     21 N3A        -3.6410   21.4490   94.2430 N.ar      1 FAD3006     0.0000 
     22 C4A        -2.9760   22.2480   93.3440 C.ar      1 FAD3006     0.0000 
     23 N1         10.8350   23.1070   92.4470 N.2       1 FAD3006     0.0000 
     24 C2         11.5390   23.5450   93.4950 C.2       1 FAD3006     0.0000 
     25 O2         11.0720   23.4420   94.6720 O.2       1 FAD3006     0.0000 
     26 N3         12.7580   24.0770   93.3260 N.am      1 FAD3006     0.0000 
     27 C4         13.3390   24.2280   92.1310 C.2       1 FAD3006     0.0000 
     28 O4         14.4840   24.7190   92.0260 O.2       1 FAD3006     0.0000 
     29 C4X        12.6250   23.7690   90.9400 C.2       1 FAD3006     0.0000 
     30 N5         13.1930   23.8790   89.7180 N.2       1 FAD3006     0.0000 
     31 C5X        12.5380   23.4280   88.6530 C.ar      1 FAD3006     0.0000 
     32 C6         13.1190   23.5450   87.4150 C.ar      1 FAD3006     0.0000 
     33 C7         12.4290   23.0980   86.2660 C.ar      1 FAD3006     0.0000 
     34 C7M        13.0670   23.1950   84.8910 C.3       1 FAD3006     0.0000 
     35 C8         11.0930   22.5130   86.3980 C.ar      1 FAD3006     0.0000 
     36 C8M        10.3070   22.0080   85.1950 C.3       1 FAD3006     0.0000 
     37 C9         10.5340   22.3830   87.6610 C.ar      1 FAD3006     0.0000 
     38 C9A        11.1950   22.8160   88.7920 C.ar      1 FAD3006     0.0000 
     39 N10        10.5740   22.7250   90.0740 N.pl3     1 FAD3006     0.0000 
     40 C10        11.3220   23.2000   91.1720 C.2       1 FAD3006     0.0000 
     41 C1'         9.2280   22.1170   90.3220 C.3       1 FAD3006     0.0000 
     42 C2'         8.0370   22.9870   89.8510 C.3       1 FAD3006     0.0000 
     43 O2'         8.4770   24.0370   88.9990 O.3       1 FAD3006     0.0000 
     44 C3'         7.3730   23.6540   91.0040 C.3       1 FAD3006     0.0000 
     45 O3'         6.9910   22.6180   91.9160 O.3       1 FAD3006     0.0000 
     46 C4'         6.2010   24.5070   90.5390 C.3       1 FAD3006     0.0000 
     47 O4'         5.9730   25.4050   91.6200 O.3       1 FAD3006     0.0000 
     48 C5'         4.8980   23.7660   90.3020 C.3       1 FAD3006     0.0000 
     49 O5'         3.9420   24.7510   90.0060 O.3       1 FAD3006     0.0000 
     50 P           2.9210   24.6280   88.7910 P.3       1 FAD3006     0.0000 
     51 O1P         1.8890   25.6760   88.9420 O.co2     1 FAD3006     0.0000 
     52 O2P         3.6640   24.5070   87.4930 O.co2     1 FAD3006     0.0000 
     53 O3P         2.2660   23.2230   89.1760 O.3       1 FAD3006     0.0000 
@<TRIPOS>BOND
     1    1    2 ar   
     2    1    3 ar   
     3    1    4 1    
     4    1   53 1    
     5    4    5 1    
     6    5    6 1    
     7    6    7 1    
     8    6    8 1    
     9    7   12 1    
    10    8    9 1    
    11    8   10 1    
    12   10   11 1    
    13   10   12 1    
    14   12   13 1    
    15   13   14 1    
    16   13   22 1    
    17   14   15 2    
    18   15   16 1    
    19   16   17 ar   
    20   16   22 ar   
    21   17   18 1    
    22   17   19 ar   
    23   19   20 ar   
    24   20   21 ar   
    25   21   22 ar   
    26   23   24 1    
    27   23   40 2    
    28   24   25 2    
    29   24   26 am   
    30   26   27 am   
    31   27   28 2    
    32   27   29 1    
    33   29   30 2    
    34   29   40 1    
    35   30   31 1    
    36   31   32 ar   
    37   31   38 ar   
    38   32   33 ar   
    39   33   34 1    
    40   33   35 ar   
    41   35   36 1    
    42   35   37 ar   
    43   37   38 ar   
    44   38   39 1    
    45   39   40 1    
    46   39   41 1    
    47   41   42 1    
    48   42   43 1    
    49   42   44 1    
    50   44   45 1    
    51   44   46 1    
    52   46   47 1    
    53   46   48 1    
    54   48   49 1    
    55   49   50 1    
    56   50   51 ar   
    57   50   52 ar   
    58   50   53 1    
@<TRIPOS>SUBSTRUCTURE
     1 FAD3006     1 GROUP   
@<TRIPOS>SET
ATOM$ORANGE STATIC     ATOMS   COLORGROUP SYSTEM 
54 5 5 6 6 8 8 10 10 12 12 14 14 16 16 17 17 20 \
20 22 22 24 24 27 27 29 29 31 31 32 32 33 33 34 34 35 \
35 36 36 37 37 38 38 40 40 41 41 42 42 44 44 46 46 48 \
48 

