#    Name: 6cyy_1_COA
#    Modification time : Fri May 22 19:24:50 2020

@<TRIPOS>MOLECULE
6cyy_1_COA
   48    50     1     0     1
SMALL
NO_CHARGES


@<TRIPOS>ATOM
      1 N1A       -23.1860   60.1500  -13.4580 N.ar      1 COA501      0.0000 
      2 C2A       -23.2970   59.5950  -14.6590 C.ar      1 COA501      0.0000 
      3 N3A       -22.9550   58.3740  -15.0480 N.ar      1 COA501      0.0000 
      4 C4A       -22.4000   57.6300  -14.0550 C.ar      1 COA501      0.0000 
      5 C5A       -22.2100   58.0900  -12.7410 C.ar      1 COA501      0.0000 
      6 C6A       -22.6330   59.4060  -12.4710 C.ar      1 COA501      0.0000 
      7 N6A       -22.4950   59.9540  -11.2250 N.pl3     1 COA501      0.0000 
      8 N7A       -21.6170   57.0970  -11.9540 N.2       1 COA501      0.0000 
      9 C8A       -21.4660   56.0690  -12.8140 C.2       1 COA501      0.0000 
     10 N9A       -21.9070   56.3400  -14.0740 N.pl3     1 COA501      0.0000 
     11 C1B       -21.9120   55.4260  -15.2650 C.3       1 COA501      0.0000 
     12 C2B       -20.5530   55.4430  -16.0020 C.3       1 COA501      0.0000 
     13 O2B       -20.4970   56.4520  -16.9440 O.3       1 COA501      0.0000 
     14 C3B       -20.6430   54.0590  -16.7090 C.3       1 COA501      0.0000 
     15 O3B       -21.2570   54.2140  -18.0160 O.3       1 COA501      0.0000 
     16 P3B       -20.6150   53.1780  -19.0800 P.3       1 COA501      0.0000 
     17 O7A       -20.7010   51.7800  -18.5700 O.co2     1 COA501      0.0000 
     18 O8A       -21.3870   53.2270  -20.3980 O.co2     1 COA501      0.0000 
     19 O9A       -19.1730   53.5310  -19.3620 O.co2     1 COA501      0.0000 
     20 C4B       -21.5670   53.2110  -15.7810 C.3       1 COA501      0.0000 
     21 O4B       -22.1020   54.1180  -14.8010 O.3       1 COA501      0.0000 
     22 C5B       -20.7520   52.1370  -15.1230 C.3       1 COA501      0.0000 
     23 O5B       -19.7110   52.7390  -14.4170 O.3       1 COA501      0.0000 
     24 P1A       -19.4860   52.4320  -12.8350 P.3       1 COA501      0.0000 
     25 O1A       -20.6510   52.9690  -12.0990 O.co2     1 COA501      0.0000 
     26 O2A       -18.0850   52.7220  -12.3590 O.co2     1 COA501      0.0000 
     27 O3A       -19.7320   50.7760  -12.6560 O.3       1 COA501      0.0000 
     28 P2A       -19.2160   49.6410  -11.6550 P.3       1 COA501      0.0000 
     29 O4A       -20.2390   48.5820  -11.5700 O.co2     1 COA501      0.0000 
     30 O5A       -17.7510   49.3060  -11.8270 O.co2     1 COA501      0.0000 
     31 O6A       -19.2600   50.2540  -10.1760 O.3       1 COA501      0.0000 
     32 CBP       -20.1510   51.2690   -8.2150 C.3       1 COA501      0.0000 
     33 CCP       -20.4260   50.4420   -9.4660 C.3       1 COA501      0.0000 
     34 CDP       -21.4560   51.4180   -7.4460 C.3       1 COA501      0.0000 
     35 CEP       -19.1040   50.5500   -7.3730 C.3       1 COA501      0.0000 
     36 CAP       -19.6120   52.6370   -8.7170 C.3       1 COA501      0.0000 
     37 OAP       -20.5930   53.3510   -9.4130 O.3       1 COA501      0.0000 
     38 C9P       -19.0650   53.5870   -7.6180 C.2       1 COA501      0.0000 
     39 O9P       -17.9920   53.4210   -7.0490 O.2       1 COA501      0.0000 
     40 N8P       -19.8130   54.6510   -7.3290 N.am      1 COA501      0.0000 
     41 C7P       -19.4270   55.6510   -6.3290 C.3       1 COA501      0.0000 
     42 C6P       -19.8680   55.2250   -4.9270 C.3       1 COA501      0.0000 
     43 C5P       -21.3350   55.4450   -4.7030 C.2       1 COA501      0.0000 
     44 O5P       -21.9740   56.4160   -5.1080 O.2       1 COA501      0.0000 
     45 N4P       -21.9490   54.4950   -4.0220 N.am      1 COA501      0.0000 
     46 C3P       -23.3730   54.5320   -3.7200 C.3       1 COA501      0.0000 
     47 C2P       -24.0000   53.2590   -4.2740 C.3       1 COA501      0.0000 
     48 S1P       -25.7870   53.4950   -4.4920 S.3       1 COA501      0.0000 
@<TRIPOS>BOND
     1    1    2 ar   
     2    1    6 ar   
     3    2    3 ar   
     4    3    4 ar   
     5    4    5 ar   
     6    4   10 1    
     7    5    6 ar   
     8    5    8 1    
     9    6    7 1    
    10    8    9 2    
    11    9   10 1    
    12   10   11 1    
    13   11   12 1    
    14   11   21 1    
    15   12   13 1    
    16   12   14 1    
    17   14   15 1    
    18   14   20 1    
    19   15   16 1    
    20   16   17 ar   
    21   16   18 ar   
    22   16   19 ar   
    23   20   21 1    
    24   20   22 1    
    25   22   23 1    
    26   23   24 1    
    27   24   25 ar   
    28   24   26 ar   
    29   24   27 1    
    30   27   28 1    
    31   28   29 ar   
    32   28   30 ar   
    33   28   31 1    
    34   31   33 1    
    35   32   33 1    
    36   32   34 1    
    37   32   35 1    
    38   32   36 1    
    39   36   37 1    
    40   36   38 1    
    41   38   39 2    
    42   38   40 am   
    43   40   41 1    
    44   41   42 1    
    45   42   43 1    
    46   43   44 2    
    47   43   45 am   
    48   45   46 1    
    49   46   47 1    
    50   47   48 1    
@<TRIPOS>SUBSTRUCTURE
     1 COA501      1 GROUP   
@<TRIPOS>SET
ATOM$ORANGE STATIC     ATOMS   COLORGROUP SYSTEM 
42 2 2 4 4 5 5 6 6 9 9 11 11 12 12 14 14 20 \
20 22 22 32 32 33 33 34 34 35 35 36 36 38 38 41 41 42 \
42 43 43 46 46 47 47 

