#    Name: 6cyy_2_COA
#    Modification time : Fri May 22 19:25:00 2020

@<TRIPOS>MOLECULE
6cyy_2_COA
   48    50     1     0     1
SMALL
NO_CHARGES


@<TRIPOS>ATOM
      1 N1A       -44.0460   16.1220   -4.0980 N.ar      1 COA501      0.0000 
      2 C2A       -44.3080   16.3610   -5.3810 C.ar      1 COA501      0.0000 
      3 N3A       -44.7790   17.4650   -5.9390 N.ar      1 COA501      0.0000 
      4 C4A       -45.0240   18.4620   -5.0420 C.ar      1 COA501      0.0000 
      5 C5A       -44.8000   18.3510   -3.6590 C.ar      1 COA501      0.0000 
      6 C6A       -44.2910   17.1200   -3.2070 C.ar      1 COA501      0.0000 
      7 N6A       -44.0330   16.8980   -1.8760 N.pl3     1 COA501      0.0000 
      8 N7A       -45.1480   19.5430   -3.0080 N.2       1 COA501      0.0000 
      9 C8A       -45.5710   20.3380   -4.0130 C.2       1 COA501      0.0000 
     10 N9A       -45.5160   19.7350   -5.2360 N.pl3     1 COA501      0.0000 
     11 C1B       -45.8880   20.2990   -6.5610 C.3       1 COA501      0.0000 
     12 C2B       -47.4140   20.2020   -6.7870 C.3       1 COA501      0.0000 
     13 O2B       -47.7860   18.9600   -7.2830 O.3       1 COA501      0.0000 
     14 C3B       -47.5410   21.2830   -7.8870 C.3       1 COA501      0.0000 
     15 O3B       -47.3300   20.6820   -9.1830 O.3       1 COA501      0.0000 
     16 P3B       -48.2970   21.3610  -10.2680 P.3       1 COA501      0.0000 
     17 O7A       -47.9410   22.7950  -10.4600 O.co2     1 COA501      0.0000 
     18 O8A       -48.1590   20.6550  -11.6130 O.co2     1 COA501      0.0000 
     19 O9A       -49.7430   21.2530   -9.8360 O.co2     1 COA501      0.0000 
     20 C4B       -46.3890   22.2920   -7.5780 C.3       1 COA501      0.0000 
     21 O4B       -45.5620   21.6660   -6.5830 O.3       1 COA501      0.0000 
     22 C5B       -46.9900   23.5600   -7.0530 C.3       1 COA501      0.0000 
     23 O5B       -47.8260   23.2410   -5.9770 O.3       1 COA501      0.0000 
     24 P1A       -47.6120   23.9300   -4.5200 P.3       1 COA501      0.0000 
     25 O1A       -46.2880   23.5070   -4.0100 O.co2     1 COA501      0.0000 
     26 O2A       -48.8380   23.8730   -3.6370 O.co2     1 COA501      0.0000 
     27 O3A       -47.3470   25.5510   -4.8370 O.3       1 COA501      0.0000 
     28 P2A       -47.7490   26.9150   -4.1280 P.3       1 COA501      0.0000 
     29 O4A       -46.8380   27.9700   -4.5980 O.co2     1 COA501      0.0000 
     30 O5A       -49.2430   27.1450   -4.0420 O.co2     1 COA501      0.0000 
     31 O6A       -47.3060   26.7720   -2.6000 O.3       1 COA501      0.0000 
     32 CBP       -45.9140   26.2990   -0.7420 C.3       1 COA501      0.0000 
     33 CCP       -45.9910   26.6930   -2.2080 C.3       1 COA501      0.0000 
     34 CDP       -44.4670   26.3200   -0.3060 C.3       1 COA501      0.0000 
     35 CEP       -46.7240   27.2870    0.0770 C.3       1 COA501      0.0000 
     36 CAP       -46.5230   24.8810   -0.6480 C.3       1 COA501      0.0000 
     37 OAP       -45.8340   23.9680   -1.4450 O.3       1 COA501      0.0000 
     38 C9P       -46.5520   24.2910    0.7770 C.2       1 COA501      0.0000 
     39 O9P       -47.3220   24.6770    1.6450 O.2       1 COA501      0.0000 
     40 N8P       -45.7040   23.2940    1.0310 N.am      1 COA501      0.0000 
     41 C7P       -45.6330   22.6220    2.3300 C.3       1 COA501      0.0000 
     42 C6P       -44.9120   23.4840    3.3630 C.3       1 COA501      0.0000 
     43 C5P       -43.4240   23.3490    3.2690 C.2       1 COA501      0.0000 
     44 O5P       -42.8290   22.2900    3.0670 O.2       1 COA501      0.0000 
     45 N4P       -42.7460   24.4780    3.4200 N.am      1 COA501      0.0000 
     46 C3P       -41.2910   24.5630    3.3530 C.3       1 COA501      0.0000 
     47 C2P       -40.8880   24.7970    1.9050 C.3       1 COA501      0.0000 
     48 S1P       -39.3090   25.7000    1.8650 S.3       1 COA501      0.0000 
@<TRIPOS>BOND
     1    1    2 ar   
     2    1    6 ar   
     3    2    3 ar   
     4    3    4 ar   
     5    4    5 ar   
     6    4   10 1    
     7    5    6 ar   
     8    5    8 1    
     9    6    7 1    
    10    8    9 2    
    11    9   10 1    
    12   10   11 1    
    13   11   12 1    
    14   11   21 1    
    15   12   13 1    
    16   12   14 1    
    17   14   15 1    
    18   14   20 1    
    19   15   16 1    
    20   16   17 ar   
    21   16   18 ar   
    22   16   19 ar   
    23   20   21 1    
    24   20   22 1    
    25   22   23 1    
    26   23   24 1    
    27   24   25 ar   
    28   24   26 ar   
    29   24   27 1    
    30   27   28 1    
    31   28   29 ar   
    32   28   30 ar   
    33   28   31 1    
    34   31   33 1    
    35   32   33 1    
    36   32   34 1    
    37   32   35 1    
    38   32   36 1    
    39   36   37 1    
    40   36   38 1    
    41   38   39 2    
    42   38   40 am   
    43   40   41 1    
    44   41   42 1    
    45   42   43 1    
    46   43   44 2    
    47   43   45 am   
    48   45   46 1    
    49   46   47 1    
    50   47   48 1    
@<TRIPOS>SUBSTRUCTURE
     1 COA501      1 GROUP   
@<TRIPOS>SET
ATOM$ORANGE STATIC     ATOMS   COLORGROUP SYSTEM 
42 2 2 4 4 5 5 6 6 9 9 11 11 12 12 14 14 20 \
20 22 22 32 32 33 33 34 34 35 35 36 36 38 38 41 41 42 \
42 43 43 46 46 47 47 

