#    Name: 5oit_2_NAD
#    Modification time : Fri May 22 19:13:10 2020

@<TRIPOS>MOLECULE
5oit_2_NAD
   44    48     1     0     1
SMALL
NO_CHARGES


@<TRIPOS>ATOM
      1 PA          4.2620   45.7690  -60.3220 P.3       1 NAD302      0.0000 
      2 O1A         5.5460   45.3280  -59.7200 O.co2     1 NAD302      0.0000 
      3 O2A         3.1050   44.8440  -59.9500 O.co2     1 NAD302      0.0000 
      4 O5B         4.3730   45.8160  -61.8860 O.3       1 NAD302      0.0000 
      5 C5B         5.5730   46.0040  -62.6600 C.3       1 NAD302      0.0000 
      6 C4B         5.5710   44.9310  -63.7120 C.3       1 NAD302      0.0000 
      7 O4B         6.7440   45.0590  -64.5400 O.3       1 NAD302      0.0000 
      8 C3B         5.5640   43.4790  -63.1950 C.3       1 NAD302      0.0000 
      9 O3B         4.4760   42.7290  -63.7190 O.3       1 NAD302      0.0000 
     10 C2B         6.8870   42.9170  -63.7100 C.3       1 NAD302      0.0000 
     11 O2B         6.8900   41.5090  -63.9440 O.3       1 NAD302      0.0000 
     12 C1B         7.0570   43.7560  -64.9620 C.3       1 NAD302      0.0000 
     13 N9A         8.3870   43.7000  -65.5480 N.pl3     1 NAD302      0.0000 
     14 C8A         9.5800   43.9680  -64.9330 C.2       1 NAD302      0.0000 
     15 N7A        10.6300   43.7910  -65.6980 N.2       1 NAD302      0.0000 
     16 C5A        10.0880   43.3780  -66.9060 C.ar      1 NAD302      0.0000 
     17 C6A        10.6770   43.0150  -68.1320 C.ar      1 NAD302      0.0000 
     18 N6A        11.9920   42.9990  -68.3400 N.pl3     1 NAD302      0.0000 
     19 N1A         9.8540   42.6510  -69.1450 N.ar      1 NAD302      0.0000 
     20 C2A         8.5320   42.6510  -68.9320 C.ar      1 NAD302      0.0000 
     21 N3A         7.8620   42.9680  -67.8150 N.ar      1 NAD302      0.0000 
     22 C4A         8.7050   43.3230  -66.8320 C.ar      1 NAD302      0.0000 
     23 O3          3.8920   47.2540  -59.8640 O.3       1 NAD302      0.0000 
     24 PN          2.9590   48.4400  -60.4070 P.3       1 NAD302      0.0000 
     25 O1N         1.6150   47.8760  -60.6760 O.co2     1 NAD302      0.0000 
     26 O2N         3.0940   49.6120  -59.5120 O.co2     1 NAD302      0.0000 
     27 O5D         3.6880   48.9010  -61.7450 O.3       1 NAD302      0.0000 
     28 C5D         2.9600   49.0760  -62.9800 C.3       1 NAD302      0.0000 
     29 C4D         3.3900   50.3500  -63.6540 C.3       1 NAD302      0.0000 
     30 O4D         2.8330   51.4710  -62.9280 O.3       1 NAD302      0.0000 
     31 C3D         4.9110   50.5850  -63.7000 C.3       1 NAD302      0.0000 
     32 O3D         5.3280   51.1530  -64.9330 O.3       1 NAD302      0.0000 
     33 C2D         5.1330   51.5900  -62.5680 C.3       1 NAD302      0.0000 
     34 O2D         6.3480   52.3080  -62.7390 O.3       1 NAD302      0.0000 
     35 C1D         3.8540   52.4080  -62.6990 C.3       1 NAD302      0.0000 
     36 N1N         3.4640   53.2660  -61.5210 N.pl3     1 NAD302      0.0000 
     37 C2N         3.3900   52.7710  -60.2710 C.ar      1 NAD302      0.0000 
     38 C3N         3.0280   53.5930  -59.2180 C.ar      1 NAD302      0.0000 
     39 C7N         2.9350   53.0110  -57.8380 C.2       1 NAD302      0.0000 
     40 O7N         2.9980   53.7610  -56.8560 O.2       1 NAD302      0.0000 
     41 N7N         2.7870   51.6920  -57.7260 N.am      1 NAD302      0.0000 
     42 C4N         2.7500   54.9380  -59.4820 C.ar      1 NAD302      0.0000 
     43 C5N         2.8340   55.4200  -60.7800 C.ar      1 NAD302      0.0000 
     44 C6N         3.1960   54.5590  -61.8030 C.ar      1 NAD302      0.0000 
@<TRIPOS>BOND
     1    1    2 ar   
     2    1    3 ar   
     3    1    4 1    
     4    1   23 1    
     5    4    5 1    
     6    5    6 1    
     7    6    7 1    
     8    6    8 1    
     9    7   12 1    
    10    8    9 1    
    11    8   10 1    
    12   10   11 1    
    13   10   12 1    
    14   12   13 1    
    15   13   14 1    
    16   13   22 1    
    17   14   15 2    
    18   15   16 1    
    19   16   17 ar   
    20   16   22 ar   
    21   17   18 1    
    22   17   19 ar   
    23   19   20 ar   
    24   20   21 ar   
    25   21   22 ar   
    26   23   24 1    
    27   24   25 ar   
    28   24   26 ar   
    29   24   27 1    
    30   27   28 1    
    31   28   29 1    
    32   29   30 1    
    33   29   31 1    
    34   30   35 1    
    35   31   32 1    
    36   31   33 1    
    37   33   34 1    
    38   33   35 1    
    39   35   36 1    
    40   36   37 ar   
    41   36   44 ar   
    42   37   38 ar   
    43   38   39 1    
    44   38   42 ar   
    45   39   40 2    
    46   39   41 am   
    47   42   43 ar   
    48   43   44 ar   
@<TRIPOS>SUBSTRUCTURE
     1 NAD302      1 GROUP   
@<TRIPOS>SET
ATOM$ORANGE STATIC     ATOMS   COLORGROUP SYSTEM 
42 5 5 6 6 8 8 10 10 12 12 14 14 16 16 17 17 20 \
20 22 22 28 28 29 29 31 31 33 33 35 35 37 37 38 38 39 \
39 42 42 43 43 44 44 

