#    Name: 5oit_4_NAD
#    Modification time : Fri May 22 19:13:15 2020

@<TRIPOS>MOLECULE
5oit_4_NAD
   44    48     1     0     1
SMALL
NO_CHARGES


@<TRIPOS>ATOM
      1 PA         29.9410   69.4740  -79.8470 P.3       1 NAD302      0.0000 
      2 O1A        30.1200   68.2790  -80.7120 O.co2     1 NAD302      0.0000 
      3 O2A        30.9860   70.5170  -80.1270 O.co2     1 NAD302      0.0000 
      4 O5B        29.9530   69.1260  -78.3000 O.3       1 NAD302      0.0000 
      5 C5B        29.5700   67.8640  -77.7060 C.3       1 NAD302      0.0000 
      6 C4B        30.7830   67.3990  -76.9480 C.3       1 NAD302      0.0000 
      7 O4B        30.5420   66.1290  -76.2960 O.3       1 NAD302      0.0000 
      8 C3B        32.0530   67.2160  -77.8030 C.3       1 NAD302      0.0000 
      9 O3B        33.1320   68.0330  -77.3750 O.3       1 NAD302      0.0000 
     10 C2B        32.3970   65.7420  -77.6170 C.3       1 NAD302      0.0000 
     11 O2B        33.7920   65.4720  -77.6440 O.3       1 NAD302      0.0000 
     12 C1B        31.8010   65.4980  -76.2490 C.3       1 NAD302      0.0000 
     13 N9A        31.6870   64.0920  -75.9010 N.pl3     1 NAD302      0.0000 
     14 C8A        31.0270   63.0970  -76.5730 C.2       1 NAD302      0.0000 
     15 N7A        31.1430   61.9130  -76.0240 N.2       1 NAD302      0.0000 
     16 C5A        31.9350   62.1450  -74.9080 C.ar      1 NAD302      0.0000 
     17 C6A        32.4280   61.2940  -73.8970 C.ar      1 NAD302      0.0000 
     18 N6A        32.2220   59.9730  -73.8740 N.pl3     1 NAD302      0.0000 
     19 N1A        33.1750   61.8510  -72.9100 N.ar      1 NAD302      0.0000 
     20 C2A        33.4170   63.1700  -72.9470 C.ar      1 NAD302      0.0000 
     21 N3A        33.0170   64.0680  -73.8550 N.ar      1 NAD302      0.0000 
     22 C4A        32.2730   63.4870  -74.8160 C.ar      1 NAD302      0.0000 
     23 O3         28.5080   70.1240  -80.0860 O.3       1 NAD302      0.0000 
     24 PN         27.6800   71.1840  -79.2220 P.3       1 NAD302      0.0000 
     25 O1N        28.6600   72.1960  -78.7630 O.co2     1 NAD302      0.0000 
     26 O2N        26.4990   71.6150  -80.0060 O.co2     1 NAD302      0.0000 
     27 O5D        27.1430   70.3050  -78.0030 O.3       1 NAD302      0.0000 
     28 C5D        27.3770   70.6950  -76.6300 C.3       1 NAD302      0.0000 
     29 C4D        26.1680   70.4460  -75.7700 C.3       1 NAD302      0.0000 
     30 O4D        25.1440   71.4070  -76.1100 O.3       1 NAD302      0.0000 
     31 C3D        25.5200   69.0680  -75.9300 C.3       1 NAD302      0.0000 
     32 O3D        25.0110   68.5990  -74.6840 O.3       1 NAD302      0.0000 
     33 C2D        24.3730   69.3570  -76.8970 C.3       1 NAD302      0.0000 
     34 O2D        23.3610   68.3690  -76.8330 O.3       1 NAD302      0.0000 
     35 C1D        23.9480   70.7220  -76.3770 C.3       1 NAD302      0.0000 
     36 N1N        23.0920   71.5730  -77.3120 N.pl3     1 NAD302      0.0000 
     37 C2N        23.3620   71.7850  -78.6150 C.ar      1 NAD302      0.0000 
     38 C3N        22.5120   72.5640  -79.3850 C.ar      1 NAD302      0.0000 
     39 C7N        22.7910   72.8190  -80.8390 C.2       1 NAD302      0.0000 
     40 O7N        21.8720   73.2040  -81.5740 O.2       1 NAD302      0.0000 
     41 N7N        24.0290   72.6180  -81.2800 N.am      1 NAD302      0.0000 
     42 C4N        21.3790   73.1190  -78.7820 C.ar      1 NAD302      0.0000 
     43 C5N        21.1300   72.8870  -77.4410 C.ar      1 NAD302      0.0000 
     44 C6N        22.0070   72.1050  -76.7130 C.ar      1 NAD302      0.0000 
@<TRIPOS>BOND
     1    1    2 ar   
     2    1    3 ar   
     3    1    4 1    
     4    1   23 1    
     5    4    5 1    
     6    5    6 1    
     7    6    7 1    
     8    6    8 1    
     9    7   12 1    
    10    8    9 1    
    11    8   10 1    
    12   10   11 1    
    13   10   12 1    
    14   12   13 1    
    15   13   14 1    
    16   13   22 1    
    17   14   15 2    
    18   15   16 1    
    19   16   17 ar   
    20   16   22 ar   
    21   17   18 1    
    22   17   19 ar   
    23   19   20 ar   
    24   20   21 ar   
    25   21   22 ar   
    26   23   24 1    
    27   24   25 ar   
    28   24   26 ar   
    29   24   27 1    
    30   27   28 1    
    31   28   29 1    
    32   29   30 1    
    33   29   31 1    
    34   30   35 1    
    35   31   32 1    
    36   31   33 1    
    37   33   34 1    
    38   33   35 1    
    39   35   36 1    
    40   36   37 ar   
    41   36   44 ar   
    42   37   38 ar   
    43   38   39 1    
    44   38   42 ar   
    45   39   40 2    
    46   39   41 am   
    47   42   43 ar   
    48   43   44 ar   
@<TRIPOS>SUBSTRUCTURE
     1 NAD302      1 GROUP   
@<TRIPOS>SET
ATOM$ORANGE STATIC     ATOMS   COLORGROUP SYSTEM 
42 5 5 6 6 8 8 10 10 12 12 14 14 16 16 17 17 20 \
20 22 22 28 28 29 29 31 31 33 33 35 35 37 37 38 38 39 \
39 42 42 43 43 44 44 

