#    Name: 6h0p_1_NAD
#    Modification time : Fri May 22 19:23:26 2020

@<TRIPOS>MOLECULE
6h0p_1_NAD
   35    38     1     0     1
SMALL
NO_CHARGES


@<TRIPOS>ATOM
      1 PA          8.5300  -52.1980  -36.7690 P.3       1 NAD401      0.0000 
      2 O1A         9.9080  -51.8600  -36.2490 O.co2     1 NAD401      0.0000 
      3 O2A         8.4350  -52.7250  -38.2020 O.co2     1 NAD401      0.0000 
      4 O5B         7.7080  -50.8460  -36.3810 O.3       1 NAD401      0.0000 
      5 C5B         8.2260  -50.0660  -35.2860 C.3       1 NAD401      0.0000 
      6 C4B         8.8730  -48.7470  -35.7340 C.3       1 NAD401      0.0000 
      7 O4B         9.1670  -48.0120  -34.5470 O.3       1 NAD401      0.0000 
      8 C3B        10.1900  -48.8060  -36.5130 C.3       1 NAD401      0.0000 
      9 O3B        10.0240  -48.1390  -37.7480 O.3       1 NAD401      0.0000 
     10 C2B        11.1850  -48.0420  -35.6820 C.3       1 NAD401      0.0000 
     11 O2B        12.0550  -47.1690  -36.4090 O.3       1 NAD401      0.0000 
     12 C1B        10.2790  -47.2050  -34.8110 C.3       1 NAD401      0.0000 
     13 N9A        11.0220  -46.7960  -33.6270 N.pl3     1 NAD401      0.0000 
     14 C8A        11.7300  -47.5330  -32.7770 C.2       1 NAD401      0.0000 
     15 N7A        12.3040  -46.7410  -31.8440 N.2       1 NAD401      0.0000 
     16 C5A        11.9620  -45.4860  -32.0980 C.ar      1 NAD401      0.0000 
     17 C6A        12.2060  -44.1570  -31.5260 C.ar      1 NAD401      0.0000 
     18 N6A        12.9710  -43.9940  -30.4480 N.pl3     1 NAD401      0.0000 
     19 N1A        11.6510  -43.0880  -32.0790 N.ar      1 NAD401      0.0000 
     20 C2A        10.8970  -43.2240  -33.1650 C.ar      1 NAD401      0.0000 
     21 N3A        10.6390  -44.4110  -33.7440 N.ar      1 NAD401      0.0000 
     22 C4A        11.1290  -45.5490  -33.2690 C.ar      1 NAD401      0.0000 
     23 O3          7.6730  -53.2230  -35.8230 O.3       1 NAD401      0.0000 
     24 PN          6.2100  -53.8840  -36.1370 P.3       1 NAD401      0.0000 
     25 O1N         6.3830  -55.2580  -36.8250 O.co2     1 NAD401      0.0000 
     26 O2N         5.4560  -52.6010  -36.6590 O.co2     1 NAD401      0.0000 
     27 O5D         5.6030  -54.2530  -34.6690 O.3       1 NAD401      0.0000 
     28 C5D         5.0120  -53.2040  -33.9000 C.3       1 NAD401      0.0000 
     29 C4D         4.5170  -53.6880  -32.5390 C.3       1 NAD401      0.0000 
     30 O4D         3.9620  -55.0450  -32.5170 O.3       1 NAD401      0.0000 
     31 C3D         5.7260  -53.5400  -31.6440 C.3       1 NAD401      0.0000 
     32 O3D         5.4710  -52.7750  -30.4570 O.3       1 NAD401      0.0000 
     33 C2D         5.9560  -54.9680  -31.2600 C.3       1 NAD401      0.0000 
     34 O2D         6.4490  -54.8210  -29.9110 O.3       1 NAD401      0.0000 
     35 C1D         4.6590  -55.8070  -31.5360 C.3       1 NAD401      0.0000 
@<TRIPOS>BOND
     1    1    2 ar   
     2    1    3 ar   
     3    1    4 1    
     4    1   23 1    
     5    4    5 1    
     6    5    6 1    
     7    6    7 1    
     8    6    8 1    
     9    7   12 1    
    10    8    9 1    
    11    8   10 1    
    12   10   11 1    
    13   10   12 1    
    14   12   13 1    
    15   13   14 1    
    16   13   22 1    
    17   14   15 2    
    18   15   16 1    
    19   16   17 ar   
    20   16   22 ar   
    21   17   18 1    
    22   17   19 ar   
    23   19   20 ar   
    24   20   21 ar   
    25   21   22 ar   
    26   23   24 1    
    27   24   25 ar   
    28   24   26 ar   
    29   24   27 1    
    30   27   28 1    
    31   28   29 1    
    32   29   30 1    
    33   29   31 1    
    34   30   35 1    
    35   31   32 1    
    36   31   33 1    
    37   33   34 1    
    38   33   35 1    
@<TRIPOS>SUBSTRUCTURE
     1 NAD401      1 GROUP   
@<TRIPOS>SET
ATOM$ORANGE STATIC     ATOMS   COLORGROUP SYSTEM 
30 5 5 6 6 8 8 10 10 12 12 14 14 16 16 17 17 20 \
20 22 22 28 28 29 29 31 31 33 33 35 35 

