#    Name: 6h0p_1_UGA
#    Modification time : Fri May 22 19:23:22 2020

@<TRIPOS>MOLECULE
6h0p_1_UGA
   37    39     1     0     0
SMALL
NO_CHARGES


@<TRIPOS>ATOM
      1 C1'         5.8470  -61.5940    0.4600 C.3       1 UGA402      0.0000 
      2 C2'         6.4480  -60.5410   -0.4670 C.3       1 UGA402      0.0000 
      3 O2'         5.4940  -60.3070   -1.4860 O.3       1 UGA402      0.0000 
      4 C3'         7.7470  -60.9040   -1.1670 C.3       1 UGA402      0.0000 
      5 O3'         8.3710  -59.7300   -1.6690 O.3       1 UGA402      0.0000 
      6 C4'         8.7290  -61.4680   -0.1980 C.3       1 UGA402      0.0000 
      7 O4'         9.9270  -61.8760   -0.8750 O.3       1 UGA402      0.0000 
      8 C5'         8.0420  -62.6230    0.4810 C.3       1 UGA402      0.0000 
      9 O5'         6.8830  -62.2300    1.2070 O.3       1 UGA402      0.0000 
     10 C6'         9.0540  -63.0360    1.4750 C.2       1 UGA402      0.0000 
     11 O'P         8.9310  -62.6280    2.6560 O.co2     1 UGA402      0.0000 
     12 O'Q         9.9960  -63.7290    1.0400 O.co2     1 UGA402      0.0000 
     13 PB          3.8830  -63.4750    0.3710 P.3       1 UGA402      0.0000 
     14 O1B         4.6130  -64.5060    1.1820 O.co2     1 UGA402      0.0000 
     15 O2B         3.0720  -64.0360   -0.7560 O.co2     1 UGA402      0.0000 
     16 O3B         5.0130  -62.5010   -0.2820 O.3       1 UGA402      0.0000 
     17 O3A         2.7970  -62.6170    1.2380 O.3       1 UGA402      0.0000 
     18 PA          2.4980  -62.4810    2.8400 P.3       1 UGA402      0.0000 
     19 O1A         1.6050  -61.2660    3.0080 O.co2     1 UGA402      0.0000 
     20 O2A         3.6980  -62.6360    3.7400 O.co2     1 UGA402      0.0000 
     21 O5D         1.6400  -63.7440    3.2930 O.3       1 UGA402      0.0000 
     22 C5D         1.8000  -65.0310    2.7320 C.3       1 UGA402      0.0000 
     23 C4D         0.4340  -65.4640    2.2850 C.3       1 UGA402      0.0000 
     24 O4D        -0.2920  -65.7890    3.4620 O.3       1 UGA402      0.0000 
     25 C3D        -0.3370  -64.3630    1.5710 C.3       1 UGA402      0.0000 
     26 O3D        -0.0720  -64.2910    0.1640 O.3       1 UGA402      0.0000 
     27 C2D        -1.7180  -64.8360    1.8800 C.3       1 UGA402      0.0000 
     28 O2D        -1.9310  -65.9050    0.9350 O.3       1 UGA402      0.0000 
     29 C1D        -1.6380  -65.3230    3.3420 C.3       1 UGA402      0.0000 
     30 N1         -1.9550  -64.3710    4.4630 N.am      1 UGA402      0.0000 
     31 C6         -1.2140  -63.2930    4.7020 C.2       1 UGA402      0.0000 
     32 C2         -3.0340  -64.5620    5.3770 C.2       1 UGA402      0.0000 
     33 O2         -3.8050  -65.5210    5.2830 O.2       1 UGA402      0.0000 
     34 N3         -3.3210  -63.7280    6.3840 N.am      1 UGA402      0.0000 
     35 C4         -2.5860  -62.6500    6.6140 C.2       1 UGA402      0.0000 
     36 O4         -2.8750  -61.8720    7.5620 O.2       1 UGA402      0.0000 
     37 C5         -1.5140  -62.4200    5.7580 C.2       1 UGA402      0.0000 
@<TRIPOS>BOND
     1    1    2 1    
     2    1    9 1    
     3    1   16 1    
     4    2    3 1    
     5    2    4 1    
     6    4    5 1    
     7    4    6 1    
     8    6    7 1    
     9    6    8 1    
    10    8    9 1    
    11    8   10 1    
    12   10   11 ar   
    13   10   12 ar   
    14   13   14 ar   
    15   13   15 ar   
    16   13   16 1    
    17   13   17 1    
    18   17   18 1    
    19   18   19 ar   
    20   18   20 ar   
    21   18   21 1    
    22   21   22 1    
    23   22   23 1    
    24   23   24 1    
    25   23   25 1    
    26   24   29 1    
    27   25   26 1    
    28   25   27 1    
    29   27   28 1    
    30   27   29 1    
    31   29   30 1    
    32   30   31 1    
    33   30   32 1    
    34   31   37 2    
    35   32   33 2    
    36   32   34 1    
    37   34   35 1    
    38   35   36 2    
    39   35   37 1    
@<TRIPOS>SUBSTRUCTURE
     1 UGA402      1 GROUP   
@<TRIPOS>SET

