#    Name: 6hd6_2_STI
#    Modification time : Fri May 22 19:29:12 2020

@<TRIPOS>MOLECULE
6hd6_2_STI
   37    41     1     0     0
SMALL
NO_CHARGES


@<TRIPOS>ATOM
      1 C1         41.8790   42.8640   29.8450 C.ar      1 STI601      0.0000 
      2 C6         41.4620   43.8800   28.9760 C.ar      1 STI601      0.0000 
      3 C5         40.5110   44.8140   29.4280 C.ar      1 STI601      0.0000 
      4 C4         39.9970   44.7040   30.7420 C.ar      1 STI601      0.0000 
      5 N3         40.4240   43.7210   31.5640 N.ar      1 STI601      0.0000 
      6 C2         41.3370   42.8100   31.1490 C.ar      1 STI601      0.0000 
      7 C7         40.0560   45.8810   28.5000 C.ar      1 STI601      0.0000 
      8 C12        40.6350   46.0490   27.2480 C.ar      1 STI601      0.0000 
      9 C11        40.1700   47.0620   26.4200 C.ar      1 STI601      0.0000 
     10 N10        39.1670   47.8490   26.8470 N.ar      1 STI601      0.0000 
     11 C9         38.5900   47.6780   28.0640 C.ar      1 STI601      0.0000 
     12 N8         39.0440   46.6930   28.8790 N.ar      1 STI601      0.0000 
     13 N13        37.5740   48.4910   28.4660 N.pl3     1 STI601      0.0000 
     14 C14        37.1910   49.6120   27.7800 C.ar      1 STI601      0.0000 
     15 C19        37.9810   50.7810   27.7340 C.ar      1 STI601      0.0000 
     16 C18        37.5290   51.8950   27.0180 C.ar      1 STI601      0.0000 
     17 C17        36.3130   51.8650   26.3310 C.ar      1 STI601      0.0000 
     18 C16        35.5420   50.6940   26.3220 C.ar      1 STI601      0.0000 
     19 C15        35.9730   49.5930   27.0770 C.ar      1 STI601      0.0000 
     20 N21        34.2630   50.6740   25.6890 N.am      1 STI601      0.0000 
     21 C22        33.3970   49.6090   25.7120 C.2       1 STI601      0.0000 
     22 C23        32.0160   49.7660   25.1250 C.ar      1 STI601      0.0000 
     23 C25        31.0450   48.8610   25.5460 C.ar      1 STI601      0.0000 
     24 C26        29.7440   48.9460   25.0660 C.ar      1 STI601      0.0000 
     25 C27        29.3920   49.9540   24.1590 C.ar      1 STI601      0.0000 
     26 C28        30.3800   50.8810   23.7730 C.ar      1 STI601      0.0000 
     27 C29        31.6890   50.7960   24.2480 C.ar      1 STI601      0.0000 
     28 C46        27.9410   50.0550   23.6310 C.3       1 STI601      0.0000 
     29 N48        27.8410   50.3240   22.1710 N.4       1 STI601      0.0000 
     30 C53        28.4760   49.2970   21.3030 C.3       1 STI601      0.0000 
     31 C52        28.5740   49.8540   19.8670 C.3       1 STI601      0.0000 
     32 N51        27.2270   50.2440   19.3880 N.3       1 STI601      0.0000 
     33 C54        27.2300   50.5210   17.9450 C.3       1 STI601      0.0000 
     34 C50        26.5950   51.2800   20.2380 C.3       1 STI601      0.0000 
     35 C49        26.4890   50.7380   21.6890 C.3       1 STI601      0.0000 
     36 O29        33.6370   48.4960   26.1690 O.2       1 STI601      0.0000 
     37 C20        39.3260   50.8690   28.4690 C.3       1 STI601      0.0000 
@<TRIPOS>BOND
     1    1    2 ar   
     2    1    6 ar   
     3    2    3 ar   
     4    3    4 ar   
     5    3    7 1    
     6    4    5 ar   
     7    5    6 ar   
     8    7    8 ar   
     9    7   12 ar   
    10    8    9 ar   
    11    9   10 ar   
    12   10   11 ar   
    13   11   12 ar   
    14   11   13 1    
    15   13   14 1    
    16   14   15 ar   
    17   14   19 ar   
    18   15   16 ar   
    19   15   37 1    
    20   16   17 ar   
    21   17   18 ar   
    22   18   19 ar   
    23   18   20 1    
    24   20   21 am   
    25   21   22 1    
    26   21   36 2    
    27   22   23 ar   
    28   22   27 ar   
    29   23   24 ar   
    30   24   25 ar   
    31   25   26 ar   
    32   25   28 1    
    33   26   27 ar   
    34   28   29 1    
    35   29   30 1    
    36   29   35 1    
    37   30   31 1    
    38   31   32 1    
    39   32   33 1    
    40   32   34 1    
    41   34   35 1    
@<TRIPOS>SUBSTRUCTURE
     1 STI601      1 GROUP   
@<TRIPOS>SET

