#    Name: 6hd6_2_STI_CAVITY_N1_12
#    Modification time : Fri May 22 19:29:14 2020

@<TRIPOS>MOLECULE
6hd6_2_STI_CAVITY_N1_12
   71     0     6     0     0
SMALL
NO_CHARGES


@<TRIPOS>ATOM
      1 N          38.6400   51.6700   16.4700 N.am      1 ALA2        0.0000 
      2 N          39.6200   51.3700   18.3300 N.am      1 ALA2        0.0000 
      3 N          32.8900   54.6700   18.7300 N.am      1 ALA2        0.0000 
      4 N          36.0600   55.7200   18.4500 N.am      1 ALA2        0.0000 
      5 O          42.4300   52.0600   20.6000 O.2       1 ALA2        0.0000 
      6 O          43.2900   53.3300   19.1400 O.2       1 ALA2        0.0000 
      7 N          39.2400   56.7700   18.1700 N.am      1 ALA2        0.0000 
      8 N          42.4700   54.1500   20.9100 N.am      1 ALA2        0.0000 
      9 OD1        38.2800   51.3000   19.0200 O.co2     2 ASP3        0.0000 
     10 OD1        36.4800   52.4200   18.9200 O.co2     2 ASP3        0.0000 
     11 OD1        37.8200   52.5000   18.2400 O.co2     2 ASP3        0.0000 
     12 OD1        40.1200   52.2800   19.4200 O.co2     2 ASP3        0.0000 
     13 OD1        39.6600   53.4700   18.6400 O.co2     2 ASP3        0.0000 
     14 OD1        36.5300   54.5200   19.2300 O.co2     2 ASP3        0.0000 
     15 OD1        38.3700   55.5000   19.6300 O.co2     2 ASP3        0.0000 
     16 NZ         37.6700   51.9600   14.6100 N.4       3 LYS4        0.0000 
     17 NZ         31.8800   52.8600   16.5600 N.4       3 LYS4        0.0000 
     18 NZ         37.2100   53.1600   13.8300 N.4       3 LYS4        0.0000 
     19 NZ         35.5100   52.7100   17.0600 N.4       3 LYS4        0.0000 
     20 NZ         36.8500   52.7900   16.3800 N.4       3 LYS4        0.0000 
     21 NZ         38.1800   52.8600   15.6900 N.4       3 LYS4        0.0000 
     22 NZ         32.3800   53.7600   17.6500 N.4       3 LYS4        0.0000 
     23 NZ         33.7200   53.8400   16.9600 N.4       3 LYS4        0.0000 
     24 NZ         31.9200   54.9600   16.8700 N.4       3 LYS4        0.0000 
     25 NZ         35.1500   52.3500   19.6000 N.4       3 LYS4        0.0000 
     26 NZ         34.6900   53.5400   18.8300 N.4       3 LYS4        0.0000 
     27 NZ         36.0200   53.6200   18.1400 N.4       3 LYS4        0.0000 
     28 NZ         37.3500   53.6900   17.4600 N.4       3 LYS4        0.0000 
     29 NZ         38.6900   53.7600   16.7800 N.4       3 LYS4        0.0000 
     30 NZ         40.0200   53.8400   16.0900 N.4       3 LYS4        0.0000 
     31 NZ         34.2200   54.7400   18.0500 N.4       3 LYS4        0.0000 
     32 NZ         35.5600   54.8100   17.3700 N.4       3 LYS4        0.0000 
     33 NZ         35.1900   54.4500   19.9100 N.4       3 LYS4        0.0000 
     34 NZ         37.8600   54.5900   18.5500 N.4       3 LYS4        0.0000 
     35 NZ         39.1900   54.6700   17.8600 N.4       3 LYS4        0.0000 
     36 NZ         40.5300   54.7400   17.1800 N.4       3 LYS4        0.0000 
     37 NZ         41.8600   54.8100   16.5000 N.4       3 LYS4        0.0000 
     38 NZ         37.4000   55.7900   17.7700 N.4       3 LYS4        0.0000 
     39 CZ         40.2100   56.4700   20.0400 C.ar      4 PHE5        0.0000 
     40 CA         34.6400   51.4500   18.5200 C.3       5 GLY6        0.0000 
     41 CA         35.9800   51.5200   17.8400 C.3       5 GLY6        0.0000 
     42 CA         37.3100   51.5900   17.1500 C.3       5 GLY6        0.0000 
     43 CA         39.9800   51.7400   15.7900 C.3       5 GLY6        0.0000 
     44 CA         40.4800   52.6400   16.8700 C.3       5 GLY6        0.0000 
     45 CA         41.8200   52.7200   16.1900 C.3       5 GLY6        0.0000 
     46 CA         33.3500   53.4700   19.5100 C.3       5 GLY6        0.0000 
     47 CA         40.5900   51.0800   20.2000 C.3       5 GLY6        0.0000 
     48 CA         41.9200   51.1500   19.5100 C.3       5 GLY6        0.0000 
     49 CA         41.4600   52.3500   18.7400 C.3       5 GLY6        0.0000 
     50 CA         42.7900   52.4200   18.0500 C.3       5 GLY6        0.0000 
     51 CA         42.3200   53.6200   17.2700 C.3       5 GLY6        0.0000 
     52 CA         41.9600   53.2500   19.8200 C.3       5 GLY6        0.0000 
     53 CA         40.1600   54.3700   19.7300 C.3       5 GLY6        0.0000 
     54 CA         39.7000   55.5700   18.9500 C.3       5 GLY6        0.0000 
     55 CA         41.0300   55.6400   18.2700 C.3       5 GLY6        0.0000 
     56 CA         42.3700   55.7200   17.5800 C.3       5 GLY6        0.0000 
     57 CA         40.5700   56.8400   17.4900 C.3       5 GLY6        0.0000 
     58 CA         43.8000   54.2300   20.2200 C.3       5 GLY6        0.0000 
     59 CA         40.6700   55.2800   20.8100 C.3       5 GLY6        0.0000 
     60 CA         42.0000   55.3500   20.1300 C.3       5 GLY6        0.0000 
     61 CA         43.3400   55.4200   19.4500 C.3       5 GLY6        0.0000 
     62 DU         32.3400   51.6600   17.3400 H         6 CUB7        0.0000 
     63 DU         33.6700   51.7400   16.6600 H         6 CUB7        0.0000 
     64 DU         36.3400   51.8900   15.2900 H         6 CUB7        0.0000 
     65 DU         30.5400   52.7900   17.2400 H         6 CUB7        0.0000 
     66 DU         32.8500   52.5700   18.4200 H         6 CUB7        0.0000 
     67 DU         34.1800   52.6400   17.7400 H         6 CUB7        0.0000 
     68 DU         39.1500   52.5700   17.5600 H         6 CUB7        0.0000 
     69 DU         40.9900   53.5500   17.9600 H         6 CUB7        0.0000 
     70 DU         41.5000   54.4500   19.0400 H         6 CUB7        0.0000 
     71 DU         42.8300   54.5200   18.3600 H         6 CUB7        0.0000 
@<TRIPOS>BOND
@<TRIPOS>SUBSTRUCTURE
     1 ALA2        1 GROUP   
     2 ASP3        9 GROUP   
     3 LYS4       16 GROUP   
     4 PHE5       39 GROUP   
     5 GLY6       40 GROUP   
     6 CUB7       62 GROUP   
@<TRIPOS>SET

