#    Name: 6hd6_2_STI_CAVITY_N1_8
#    Modification time : Fri May 22 19:29:14 2020

@<TRIPOS>MOLECULE
6hd6_2_STI_CAVITY_N1_8
   25     0     5     0     0
SMALL
NO_CHARGES


@<TRIPOS>ATOM
      1 N          32.8900   54.6700   18.7300 N.am      1 ALA2        0.0000 
      2 O          42.4300   52.0600   20.6000 O.2       1 ALA2        0.0000 
      3 OD1        38.2800   51.3000   19.0200 O.co2     2 ASP3        0.0000 
      4 OD1        36.4800   52.4200   18.9200 O.co2     2 ASP3        0.0000 
      5 OD1        40.1200   52.2800   19.4200 O.co2     2 ASP3        0.0000 
      6 OD1        36.5300   54.5200   19.2300 O.co2     2 ASP3        0.0000 
      7 OD1        38.3700   55.5000   19.6300 O.co2     2 ASP3        0.0000 
      8 NZ         31.8800   52.8600   16.5600 N.4       3 LYS4        0.0000 
      9 NZ         32.3800   53.7600   17.6500 N.4       3 LYS4        0.0000 
     10 NZ         33.7200   53.8400   16.9600 N.4       3 LYS4        0.0000 
     11 NZ         31.9200   54.9600   16.8700 N.4       3 LYS4        0.0000 
     12 NZ         35.1500   52.3500   19.6000 N.4       3 LYS4        0.0000 
     13 NZ         34.6900   53.5400   18.8300 N.4       3 LYS4        0.0000 
     14 NZ         34.2200   54.7400   18.0500 N.4       3 LYS4        0.0000 
     15 NZ         35.1900   54.4500   19.9100 N.4       3 LYS4        0.0000 
     16 CA         34.6400   51.4500   18.5200 C.3       4 GLY6        0.0000 
     17 CA         35.9800   51.5200   17.8400 C.3       4 GLY6        0.0000 
     18 CA         33.3500   53.4700   19.5100 C.3       4 GLY6        0.0000 
     19 CA         40.5900   51.0800   20.2000 C.3       4 GLY6        0.0000 
     20 CA         40.6700   55.2800   20.8100 C.3       4 GLY6        0.0000 
     21 DU         32.3400   51.6600   17.3400 H         5 CUB7        0.0000 
     22 DU         33.6700   51.7400   16.6600 H         5 CUB7        0.0000 
     23 DU         30.5400   52.7900   17.2400 H         5 CUB7        0.0000 
     24 DU         32.8500   52.5700   18.4200 H         5 CUB7        0.0000 
     25 DU         34.1800   52.6400   17.7400 H         5 CUB7        0.0000 
@<TRIPOS>BOND
@<TRIPOS>SUBSTRUCTURE
     1 ALA2        1 GROUP   
     2 ASP3        3 GROUP   
     3 LYS4        8 GROUP   
     4 GLY6       16 GROUP   
     5 CUB7       21 GROUP   
@<TRIPOS>SET

