#    Name: 6hd6_2_STI_CAVITY_N1_6
#    Modification time : Fri May 22 19:29:14 2020

@<TRIPOS>MOLECULE
6hd6_2_STI_CAVITY_N1_6
    7     0     3     0     0
SMALL
NO_CHARGES


@<TRIPOS>ATOM
      1 NZ         31.8800   52.8600   16.5600 N.4       1 LYS4        0.0000 
      2 NZ         32.3800   53.7600   17.6500 N.4       1 LYS4        0.0000 
      3 NZ         35.1500   52.3500   19.6000 N.4       1 LYS4        0.0000 
      4 CA         33.3500   53.4700   19.5100 C.3       2 GLY6        0.0000 
      5 DU         32.3400   51.6600   17.3400 H         3 CUB7        0.0000 
      6 DU         30.5400   52.7900   17.2400 H         3 CUB7        0.0000 
      7 DU         32.8500   52.5700   18.4200 H         3 CUB7        0.0000 
@<TRIPOS>BOND
@<TRIPOS>SUBSTRUCTURE
     1 LYS4        1 GROUP   
     2 GLY6        4 GROUP   
     3 CUB7        5 GROUP   
@<TRIPOS>SET

