#    Name: 6pey_1_FAD
#    Modification time : Fri May 22 19:27:37 2020

@<TRIPOS>MOLECULE
6pey_1_FAD
   53    58     1     0     1
SMALL
NO_CHARGES


@<TRIPOS>ATOM
      1 PA        -30.0070  -13.7440  -32.1680 P.3       1 FAD401      0.0000 
      2 O1A       -30.5340  -13.7560  -33.5720 O.co2     1 FAD401      0.0000 
      3 O2A       -29.3780  -12.4780  -31.6870 O.co2     1 FAD401      0.0000 
      4 O5B       -28.9720  -14.9590  -31.9680 O.3       1 FAD401      0.0000 
      5 C5B       -29.4430  -16.3260  -31.7840 C.3       1 FAD401      0.0000 
      6 C4B       -28.4010  -17.2970  -32.2880 C.3       1 FAD401      0.0000 
      7 O4B       -28.3710  -17.2550  -33.7390 O.3       1 FAD401      0.0000 
      8 C3B       -26.9560  -17.0280  -31.8450 C.3       1 FAD401      0.0000 
      9 O3B       -26.2470  -18.2490  -31.6670 O.3       1 FAD401      0.0000 
     10 C2B       -26.3960  -16.2230  -33.0200 C.3       1 FAD401      0.0000 
     11 O2B       -24.9830  -16.2590  -33.0520 O.3       1 FAD401      0.0000 
     12 C1B       -27.0660  -16.9520  -34.1850 C.3       1 FAD401      0.0000 
     13 N9A       -27.1670  -16.1990  -35.4530 N.pl3     1 FAD401      0.0000 
     14 C8A       -27.3120  -14.8370  -35.6230 C.2       1 FAD401      0.0000 
     15 N7A       -27.3580  -14.4850  -36.8880 N.2       1 FAD401      0.0000 
     16 C5A       -27.2380  -15.6790  -37.5890 C.ar      1 FAD401      0.0000 
     17 C6A       -27.2180  -15.9740  -38.9680 C.ar      1 FAD401      0.0000 
     18 N6A       -27.3190  -15.0490  -39.9210 N.pl3     1 FAD401      0.0000 
     19 N1A       -27.0850  -17.2790  -39.3230 N.ar      1 FAD401      0.0000 
     20 C2A       -26.9840  -18.2030  -38.3550 C.ar      1 FAD401      0.0000 
     21 N3A       -26.9890  -18.0400  -37.0320 N.ar      1 FAD401      0.0000 
     22 C4A       -27.1210  -16.7400  -36.7120 C.ar      1 FAD401      0.0000 
     23 N1        -36.1720  -16.3610  -24.4730 N.2       1 FAD401      0.0000 
     24 C2        -37.5340  -16.4100  -24.6140 C.2       1 FAD401      0.0000 
     25 O2        -38.0880  -17.3820  -25.1350 O.2       1 FAD401      0.0000 
     26 N3        -38.3430  -15.4020  -24.1720 N.am      1 FAD401      0.0000 
     27 C4        -37.8300  -14.2760  -23.5730 C.2       1 FAD401      0.0000 
     28 O4        -38.5890  -13.3970  -23.1960 O.2       1 FAD401      0.0000 
     29 C4X       -36.4160  -14.1660  -23.4520 C.2       1 FAD401      0.0000 
     30 N5        -35.9150  -13.0770  -22.9190 N.2       1 FAD401      0.0000 
     31 C5X       -34.5480  -12.9670  -22.8500 C.ar      1 FAD401      0.0000 
     32 C6        -34.0150  -11.7760  -22.3170 C.ar      1 FAD401      0.0000 
     33 C7        -32.6630  -11.5570  -22.2330 C.ar      1 FAD401      0.0000 
     34 C7M       -32.1600  -10.2480  -21.6840 C.3       1 FAD401      0.0000 
     35 C8        -31.7740  -12.5830  -22.6450 C.ar      1 FAD401      0.0000 
     36 C8M       -30.2850  -12.3900  -22.5290 C.3       1 FAD401      0.0000 
     37 C9        -32.2820  -13.7800  -23.1530 C.ar      1 FAD401      0.0000 
     38 C9A       -33.6710  -13.9960  -23.2790 C.ar      1 FAD401      0.0000 
     39 N10       -34.2420  -15.1680  -23.8100 N.pl3     1 FAD401      0.0000 
     40 C10       -35.6330  -15.2800  -23.9360 C.2       1 FAD401      0.0000 
     41 C1'       -33.3900  -16.2730  -24.3100 C.3       1 FAD401      0.0000 
     42 C2'       -33.0420  -16.1490  -25.8040 C.3       1 FAD401      0.0000 
     43 O2'       -34.1230  -15.5740  -26.5370 O.3       1 FAD401      0.0000 
     44 C3'       -32.6890  -17.4900  -26.4680 C.3       1 FAD401      0.0000 
     45 O3'       -31.5130  -18.0610  -25.8840 O.3       1 FAD401      0.0000 
     46 C4'       -32.4930  -17.4180  -27.9890 C.3       1 FAD401      0.0000 
     47 O4'       -31.9820  -18.6770  -28.4330 O.3       1 FAD401      0.0000 
     48 C5'       -31.5480  -16.3260  -28.4540 C.3       1 FAD401      0.0000 
     49 O5'       -32.2360  -15.1830  -29.0750 O.3       1 FAD401      0.0000 
     50 P         -31.3800  -13.9040  -29.5570 P.3       1 FAD401      0.0000 
     51 O1P       -32.1580  -12.6380  -29.3660 O.co2     1 FAD401      0.0000 
     52 O2P       -30.0440  -14.0440  -28.9150 O.co2     1 FAD401      0.0000 
     53 O3P       -31.1710  -14.1510  -31.1300 O.3       1 FAD401      0.0000 
@<TRIPOS>BOND
     1    1    2 ar   
     2    1    3 ar   
     3    1    4 1    
     4    1   53 1    
     5    4    5 1    
     6    5    6 1    
     7    6    7 1    
     8    6    8 1    
     9    7   12 1    
    10    8    9 1    
    11    8   10 1    
    12   10   11 1    
    13   10   12 1    
    14   12   13 1    
    15   13   14 1    
    16   13   22 1    
    17   14   15 2    
    18   15   16 1    
    19   16   17 ar   
    20   16   22 ar   
    21   17   18 1    
    22   17   19 ar   
    23   19   20 ar   
    24   20   21 ar   
    25   21   22 ar   
    26   23   24 1    
    27   23   40 2    
    28   24   25 2    
    29   24   26 am   
    30   26   27 am   
    31   27   28 2    
    32   27   29 1    
    33   29   30 2    
    34   29   40 1    
    35   30   31 1    
    36   31   32 ar   
    37   31   38 ar   
    38   32   33 ar   
    39   33   34 1    
    40   33   35 ar   
    41   35   36 1    
    42   35   37 ar   
    43   37   38 ar   
    44   38   39 1    
    45   39   40 1    
    46   39   41 1    
    47   41   42 1    
    48   42   43 1    
    49   42   44 1    
    50   44   45 1    
    51   44   46 1    
    52   46   47 1    
    53   46   48 1    
    54   48   49 1    
    55   49   50 1    
    56   50   51 ar   
    57   50   52 ar   
    58   50   53 1    
@<TRIPOS>SUBSTRUCTURE
     1 FAD401      1 GROUP   
@<TRIPOS>SET
ATOM$ORANGE STATIC     ATOMS   COLORGROUP SYSTEM 
54 5 5 6 6 8 8 10 10 12 12 14 14 16 16 17 17 20 \
20 22 22 24 24 27 27 29 29 31 31 32 32 33 33 34 34 35 \
35 36 36 37 37 38 38 40 40 41 41 42 42 44 44 46 46 48 \
48 

