#    Name: 6pey_3_FAD
#    Modification time : Fri May 22 19:27:48 2020

@<TRIPOS>MOLECULE
6pey_3_FAD
   53    58     1     0     1
SMALL
NO_CHARGES


@<TRIPOS>ATOM
      1 PA         -8.3950   -4.4250   31.6030 P.3       1 FAD401      0.0000 
      2 O1A        -7.9180   -4.2510   33.0120 O.co2     1 FAD401      0.0000 
      3 O2A        -7.5160   -5.2020   30.6800 O.co2     1 FAD401      0.0000 
      4 O5B        -8.7590   -2.9940   30.9410 O.3       1 FAD401      0.0000 
      5 C5B        -9.5700   -1.9790   31.6180 C.3       1 FAD401      0.0000 
      6 C4B        -8.9590   -0.6010   31.4610 C.3       1 FAD401      0.0000 
      7 O4B        -8.0840   -0.2950   32.5870 O.3       1 FAD401      0.0000 
      8 C3B        -8.0900   -0.3790   30.2160 C.3       1 FAD401      0.0000 
      9 O3B        -8.2720    0.9520   29.7500 O.3       1 FAD401      0.0000 
     10 C2B        -6.6850   -0.6540   30.7640 C.3       1 FAD401      0.0000 
     11 O2B        -5.6510   -0.1650   29.9370 O.3       1 FAD401      0.0000 
     12 C1B        -6.8000    0.0560   32.1120 C.3       1 FAD401      0.0000 
     13 N9A        -5.7740   -0.3220   33.1110 N.pl3     1 FAD401      0.0000 
     14 C8A        -5.1780   -1.5600   33.2640 C.2       1 FAD401      0.0000 
     15 N7A        -4.2870   -1.5750   34.2290 N.2       1 FAD401      0.0000 
     16 C5A        -4.2840   -0.2750   34.7240 C.ar      1 FAD401      0.0000 
     17 C6A        -3.5440    0.3450   35.7500 C.ar      1 FAD401      0.0000 
     18 N6A        -2.6380   -0.2980   36.4800 N.pl3     1 FAD401      0.0000 
     19 N1A        -3.7770    1.6640   35.9880 N.ar      1 FAD401      0.0000 
     20 C2A        -4.7010    2.2970   35.2490 C.ar      1 FAD401      0.0000 
     21 N3A        -5.4550    1.8140   34.2600 N.ar      1 FAD401      0.0000 
     22 C4A        -5.1950    0.5070   34.0420 C.ar      1 FAD401      0.0000 
     23 N1        -17.5270   -7.2150   29.8690 N.2       1 FAD401      0.0000 
     24 C2        -18.2800   -7.8640   30.7810 C.2       1 FAD401      0.0000 
     25 O2        -18.7490   -7.2660   31.7500 O.2       1 FAD401      0.0000 
     26 N3        -18.5760   -9.1940   30.6550 N.am      1 FAD401      0.0000 
     27 C4        -18.0970   -9.9490   29.6080 C.2       1 FAD401      0.0000 
     28 O4        -18.3660  -11.1380   29.5360 O.2       1 FAD401      0.0000 
     29 C4X       -17.2590   -9.3200   28.6740 C.2       1 FAD401      0.0000 
     30 N5        -16.7580  -10.0390   27.6980 N.2       1 FAD401      0.0000 
     31 C5X       -15.8960   -9.4170   26.8320 C.ar      1 FAD401      0.0000 
     32 C6        -15.3090  -10.1910   25.8150 C.ar      1 FAD401      0.0000 
     33 C7        -14.4100   -9.6510   24.9320 C.ar      1 FAD401      0.0000 
     34 C7M       -13.7920  -10.5350   23.8830 C.3       1 FAD401      0.0000 
     35 C8        -14.1140   -8.2650   25.0070 C.ar      1 FAD401      0.0000 
     36 C8M       -13.1640   -7.6170   24.0360 C.3       1 FAD401      0.0000 
     37 C9        -14.7090   -7.4870   25.9750 C.ar      1 FAD401      0.0000 
     38 C9A       -15.5920   -8.0380   26.9200 C.ar      1 FAD401      0.0000 
     39 N10       -16.1900   -7.2940   27.9470 N.pl3     1 FAD401      0.0000 
     40 C10       -17.0130   -7.9130   28.8760 C.2       1 FAD401      0.0000 
     41 C1'       -15.8910   -5.8580   28.1190 C.3       1 FAD401      0.0000 
     42 C2'       -14.8850   -5.5910   29.2400 C.3       1 FAD401      0.0000 
     43 O2'       -15.1100   -6.4100   30.3940 O.3       1 FAD401      0.0000 
     44 C3'       -14.9760   -4.1200   29.6430 C.3       1 FAD401      0.0000 
     45 O3'       -14.6520   -3.3310   28.4970 O.3       1 FAD401      0.0000 
     46 C4'       -14.1080   -3.7080   30.8370 C.3       1 FAD401      0.0000 
     47 O4'       -14.3760   -2.3280   31.0980 O.3       1 FAD401      0.0000 
     48 C5'       -12.6180   -3.8930   30.6260 C.3       1 FAD401      0.0000 
     49 O5'       -12.1510   -5.2880   30.7110 O.3       1 FAD401      0.0000 
     50 P         -10.6290   -5.6560   30.2850 P.3       1 FAD401      0.0000 
     51 O1P       -10.3970   -7.1340   30.1560 O.co2     1 FAD401      0.0000 
     52 O2P       -10.2160   -4.7870   29.1440 O.co2     1 FAD401      0.0000 
     53 O3P        -9.8270   -5.1310   31.5640 O.3       1 FAD401      0.0000 
@<TRIPOS>BOND
     1    1    2 ar   
     2    1    3 ar   
     3    1    4 1    
     4    1   53 1    
     5    4    5 1    
     6    5    6 1    
     7    6    7 1    
     8    6    8 1    
     9    7   12 1    
    10    8    9 1    
    11    8   10 1    
    12   10   11 1    
    13   10   12 1    
    14   12   13 1    
    15   13   14 1    
    16   13   22 1    
    17   14   15 2    
    18   15   16 1    
    19   16   17 ar   
    20   16   22 ar   
    21   17   18 1    
    22   17   19 ar   
    23   19   20 ar   
    24   20   21 ar   
    25   21   22 ar   
    26   23   24 1    
    27   23   40 2    
    28   24   25 2    
    29   24   26 am   
    30   26   27 am   
    31   27   28 2    
    32   27   29 1    
    33   29   30 2    
    34   29   40 1    
    35   30   31 1    
    36   31   32 ar   
    37   31   38 ar   
    38   32   33 ar   
    39   33   34 1    
    40   33   35 ar   
    41   35   36 1    
    42   35   37 ar   
    43   37   38 ar   
    44   38   39 1    
    45   39   40 1    
    46   39   41 1    
    47   41   42 1    
    48   42   43 1    
    49   42   44 1    
    50   44   45 1    
    51   44   46 1    
    52   46   47 1    
    53   46   48 1    
    54   48   49 1    
    55   49   50 1    
    56   50   51 ar   
    57   50   52 ar   
    58   50   53 1    
@<TRIPOS>SUBSTRUCTURE
     1 FAD401      1 GROUP   
@<TRIPOS>SET
ATOM$ORANGE STATIC     ATOMS   COLORGROUP SYSTEM 
54 5 5 6 6 8 8 10 10 12 12 14 14 16 16 17 17 20 \
20 22 22 24 24 27 27 29 29 31 31 32 32 33 33 34 34 35 \
35 36 36 37 37 38 38 40 40 41 41 42 42 44 44 46 46 48 \
48 

