#    Name: 6pey_2_FAD
#    Modification time : Fri May 22 19:27:43 2020

@<TRIPOS>MOLECULE
6pey_2_FAD
   53    58     1     0     1
SMALL
NO_CHARGES


@<TRIPOS>ATOM
      1 PA         17.0810   15.2750   29.2930 P.3       1 FAD401      0.0000 
      2 O1A        17.6740   15.2270   30.6660 O.co2     1 FAD401      0.0000 
      3 O2A        15.7900   14.5500   29.0970 O.co2     1 FAD401      0.0000 
      4 O5B        18.1560   14.7760   28.2070 O.3       1 FAD401      0.0000 
      5 C5B        19.3070   15.5800   27.8160 C.3       1 FAD401      0.0000 
      6 C4B        20.4690   14.6650   27.5050 C.3       1 FAD401      0.0000 
      7 O4B        21.0220   14.1410   28.7450 O.3       1 FAD401      0.0000 
      8 C3B        20.1350   13.4270   26.6600 C.3       1 FAD401      0.0000 
      9 O3B        21.2150   13.1270   25.7850 O.3       1 FAD401      0.0000 
     10 C2B        19.9170   12.3570   27.7350 C.3       1 FAD401      0.0000 
     11 O2B        20.0320   11.0360   27.2530 O.3       1 FAD401      0.0000 
     12 C1B        21.0330   12.7310   28.7050 C.3       1 FAD401      0.0000 
     13 N9A        20.8650   12.2040   30.0690 N.pl3     1 FAD401      0.0000 
     14 C8A        19.6750   12.0090   30.7430 C.2       1 FAD401      0.0000 
     15 N7A        19.8560   11.5050   31.9410 N.2       1 FAD401      0.0000 
     16 C5A        21.2350   11.3560   32.0580 C.ar      1 FAD401      0.0000 
     17 C6A        22.0500   10.8700   33.0990 C.ar      1 FAD401      0.0000 
     18 N6A        21.5620   10.4280   34.2580 N.pl3     1 FAD401      0.0000 
     19 N1A        23.3950   10.8580   32.8860 N.ar      1 FAD401      0.0000 
     20 C2A        23.8720   11.3060   31.7140 C.ar      1 FAD401      0.0000 
     21 N3A        23.2010   11.7820   30.6670 N.ar      1 FAD401      0.0000 
     22 C4A        21.8710   11.7820   30.9070 C.ar      1 FAD401      0.0000 
     23 N1         15.3860   23.9720   24.7910 N.2       1 FAD401      0.0000 
     24 C2         15.3840   25.1540   25.4660 C.2       1 FAD401      0.0000 
     25 O2         16.4490   25.7150   25.7490 O.2       1 FAD401      0.0000 
     26 N3         14.2150   25.7640   25.8530 N.am      1 FAD401      0.0000 
     27 C4         12.9830   25.2120   25.5780 C.2       1 FAD401      0.0000 
     28 O4         11.9630   25.7770   25.9560 O.2       1 FAD401      0.0000 
     29 C4X        12.9550   23.9590   24.8930 C.2       1 FAD401      0.0000 
     30 N5         11.7960   23.3970   24.6410 N.2       1 FAD401      0.0000 
     31 C5X        11.7940   22.1780   24.0080 C.ar      1 FAD401      0.0000 
     32 C6         10.5510   21.5660   23.7610 C.ar      1 FAD401      0.0000 
     33 C7         10.4530   20.3380   23.1610 C.ar      1 FAD401      0.0000 
     34 C7M         9.0880   19.7330   22.9480 C.3       1 FAD401      0.0000 
     35 C8         11.6430   19.6840   22.7380 C.ar      1 FAD401      0.0000 
     36 C8M        11.5820   18.3510   22.0400 C.3       1 FAD401      0.0000 
     37 C9         12.8720   20.2800   22.9530 C.ar      1 FAD401      0.0000 
     38 C9A        12.9780   21.5270   23.5970 C.ar      1 FAD401      0.0000 
     39 N10        14.1970   22.1700   23.8510 N.pl3     1 FAD401      0.0000 
     40 C10        14.2300   23.3930   24.5250 C.2       1 FAD401      0.0000 
     41 C1'        15.4700   21.5210   23.4850 C.3       1 FAD401      0.0000 
     42 C2'        16.0330   20.7090   24.6490 C.3       1 FAD401      0.0000 
     43 O2'        15.9360   21.4450   25.8730 O.3       1 FAD401      0.0000 
     44 C3'        17.4910   20.3150   24.3940 C.3       1 FAD401      0.0000 
     45 O3'        17.5280   19.2600   23.4300 O.3       1 FAD401      0.0000 
     46 C4'        18.2870   19.9050   25.6390 C.3       1 FAD401      0.0000 
     47 O4'        19.6570   19.8340   25.2430 O.3       1 FAD401      0.0000 
     48 C5'        17.8700   18.5820   26.2570 C.3       1 FAD401      0.0000 
     49 O5'        16.7380   18.6830   27.1960 O.3       1 FAD401      0.0000 
     50 P          15.9300   17.3510   27.6280 P.3       1 FAD401      0.0000 
     51 O1P        14.5870   17.6440   28.2160 O.co2     1 FAD401      0.0000 
     52 O2P        15.9270   16.3970   26.4870 O.co2     1 FAD401      0.0000 
     53 O3P        16.8920   16.7800   28.7740 O.3       1 FAD401      0.0000 
@<TRIPOS>BOND
     1    1    2 ar   
     2    1    3 ar   
     3    1    4 1    
     4    1   53 1    
     5    4    5 1    
     6    5    6 1    
     7    6    7 1    
     8    6    8 1    
     9    7   12 1    
    10    8    9 1    
    11    8   10 1    
    12   10   11 1    
    13   10   12 1    
    14   12   13 1    
    15   13   14 1    
    16   13   22 1    
    17   14   15 2    
    18   15   16 1    
    19   16   17 ar   
    20   16   22 ar   
    21   17   18 1    
    22   17   19 ar   
    23   19   20 ar   
    24   20   21 ar   
    25   21   22 ar   
    26   23   24 1    
    27   23   40 2    
    28   24   25 2    
    29   24   26 am   
    30   26   27 am   
    31   27   28 2    
    32   27   29 1    
    33   29   30 2    
    34   29   40 1    
    35   30   31 1    
    36   31   32 ar   
    37   31   38 ar   
    38   32   33 ar   
    39   33   34 1    
    40   33   35 ar   
    41   35   36 1    
    42   35   37 ar   
    43   37   38 ar   
    44   38   39 1    
    45   39   40 1    
    46   39   41 1    
    47   41   42 1    
    48   42   43 1    
    49   42   44 1    
    50   44   45 1    
    51   44   46 1    
    52   46   47 1    
    53   46   48 1    
    54   48   49 1    
    55   49   50 1    
    56   50   51 ar   
    57   50   52 ar   
    58   50   53 1    
@<TRIPOS>SUBSTRUCTURE
     1 FAD401      1 GROUP   
@<TRIPOS>SET
ATOM$ORANGE STATIC     ATOMS   COLORGROUP SYSTEM 
54 5 5 6 6 8 8 10 10 12 12 14 14 16 16 17 17 20 \
20 22 22 24 24 27 27 29 29 31 31 32 32 33 33 34 34 35 \
35 36 36 37 37 38 38 40 40 41 41 42 42 44 44 46 46 48 \
48 

