#    Name: 5kdy_1_ANN
#    Modification time : Fri May 22 19:12:39 2020

@<TRIPOS>MOLECULE
5kdy_1_ANN
   11    11     1     0     0
SMALL
NO_CHARGES


@<TRIPOS>ATOM
      1 C8          3.5880   -1.2160   18.4730 C.3       1 ANN502      0.0000 
      2 O3          4.3040   -0.2030   19.1450 O.3       1 ANN502      0.0000 
      3 C5          4.2900    1.0720   18.5640 C.ar      1 ANN502      0.0000 
      4 C6          5.2360    1.9830   18.9960 C.ar      1 ANN502      0.0000 
      5 C7          5.2480    3.2630   18.4700 C.ar      1 ANN502      0.0000 
      6 C2          4.3400    3.6080   17.4840 C.ar      1 ANN502      0.0000 
      7 C3          3.3880    2.7020   17.0450 C.ar      1 ANN502      0.0000 
      8 C4          3.3710    1.4220   17.5880 C.ar      1 ANN502      0.0000 
      9 C1          4.3910    5.0090   16.9370 C.2       1 ANN502      0.0000 
     10 O1          5.3580    5.7440   17.2960 O.co2     1 ANN502      0.0000 
     11 O2          3.4750    5.4240   16.1740 O.co2     1 ANN502      0.0000 
@<TRIPOS>BOND
     1    1    2 1    
     2    2    3 1    
     3    3    4 ar   
     4    3    8 ar   
     5    4    5 ar   
     6    5    6 ar   
     7    6    7 ar   
     8    6    9 1    
     9    7    8 ar   
    10    9   10 ar   
    11    9   11 ar   
@<TRIPOS>SUBSTRUCTURE
     1 ANN502      1 GROUP   
@<TRIPOS>SET

