#    Name: 6bsi_1_EFZ
#    Modification time : Fri May 22 19:35:15 2020

@<TRIPOS>MOLECULE
6bsi_1_EFZ
   21    23     1     0     0
SMALL
NO_CHARGES


@<TRIPOS>ATOM
      1 CL        -71.0260  -34.5990  -20.1630 Cl        1 EFZ601      0.0000 
      2 F1        -66.3740  -36.5160  -18.5610 F         1 EFZ601      0.0000 
      3 F2        -65.4780  -36.9750  -16.6590 F         1 EFZ601      0.0000 
      4 F3        -67.5520  -37.4220  -16.8860 F         1 EFZ601      0.0000 
      5 O1        -64.2440  -33.0170  -16.3840 O.2       1 EFZ601      0.0000 
      6 O2        -65.9810  -34.4210  -16.4900 O.3       1 EFZ601      0.0000 
      7 N         -65.6810  -32.7420  -17.9970 N.am      1 EFZ601      0.0000 
      8 C1        -66.9280  -33.0350  -18.6040 C.ar      1 EFZ601      0.0000 
      9 C2        -67.8320  -32.4880  -19.6900 C.ar      1 EFZ601      0.0000 
     10 C3        -69.0530  -33.0840  -20.0410 C.ar      1 EFZ601      0.0000 
     11 C4        -69.4980  -34.1070  -19.4800 C.ar      1 EFZ601      0.0000 
     12 C5        -68.9540  -34.7350  -18.5470 C.ar      1 EFZ601      0.0000 
     13 C6        -67.7300  -34.3300  -18.0480 C.ar      1 EFZ601      0.0000 
     14 C7        -67.0690  -35.1610  -16.8510 C.3       1 EFZ601      0.0000 
     15 C8        -68.0500  -35.4320  -15.6790 C.1       1 EFZ601      0.0000 
     16 C9        -68.8140  -35.5630  -14.7430 C.1       1 EFZ601      0.0000 
     17 C10       -69.7970  -35.6400  -13.4150 C.3       1 EFZ601      0.0000 
     18 C11       -70.7330  -36.5990  -13.4760 C.3       1 EFZ601      0.0000 
     19 C12       -70.7600  -34.6850  -13.4120 C.3       1 EFZ601      0.0000 
     20 C13       -66.6090  -36.5450  -17.2420 C.3       1 EFZ601      0.0000 
     21 C14       -65.2610  -33.3990  -16.9320 C.2       1 EFZ601      0.0000 
@<TRIPOS>BOND
     1    1   11 1    
     2    2   20 1    
     3    3   20 1    
     4    4   20 1    
     5    5   21 2    
     6    6   14 1    
     7    6   21 1    
     8    7    8 1    
     9    7   21 am   
    10    8    9 ar   
    11    8   13 ar   
    12    9   10 ar   
    13   10   11 ar   
    14   11   12 ar   
    15   12   13 ar   
    16   13   14 1    
    17   14   15 1    
    18   14   20 1    
    19   15   16 3    
    20   16   17 1    
    21   17   18 1    
    22   17   19 1    
    23   18   19 1    
@<TRIPOS>SUBSTRUCTURE
     1 EFZ601      1 GROUP   
@<TRIPOS>SET

