#    Name: 6ojs_5_NDP
#    Modification time : Fri May 22 19:31:33 2020

@<TRIPOS>MOLECULE
6ojs_5_NDP
   48    52     1     0     1
SMALL
NO_CHARGES


@<TRIPOS>ATOM
      1 PA         -7.9990    6.3410   37.3100 P.3       1 NDP601      0.0000 
      2 O1A        -8.8490    6.6340   36.0960 O.co2     1 NDP601      0.0000 
      3 O2A        -6.7240    5.6830   36.8760 O.co2     1 NDP601      0.0000 
      4 O5B        -7.6690    7.6500   38.0360 O.3       1 NDP601      0.0000 
      5 C5B        -8.7170    8.4350   38.5340 C.3       1 NDP601      0.0000 
      6 C4B        -8.3890    9.6790   39.2430 C.3       1 NDP601      0.0000 
      7 O4B        -8.0250   10.6910   38.3300 O.3       1 NDP601      0.0000 
      8 C3B        -9.5540   10.2180   39.9450 C.3       1 NDP601      0.0000 
      9 O3B        -9.7160    9.6380   41.1900 O.3       1 NDP601      0.0000 
     10 C2B        -9.2210   11.6150   40.0470 C.3       1 NDP601      0.0000 
     11 O2B        -8.2300   11.8250   41.0090 O.3       1 NDP601      0.0000 
     12 C1B        -8.6510   11.8940   38.7440 C.3       1 NDP601      0.0000 
     13 N9A        -9.6720   12.2750   37.8300 N.pl3     1 NDP601      0.0000 
     14 C8A       -10.3350   11.4470   36.9870 C.2       1 NDP601      0.0000 
     15 N7A       -11.2260   12.1600   36.2720 N.2       1 NDP601      0.0000 
     16 C5A       -11.1360   13.4770   36.6580 C.ar      1 NDP601      0.0000 
     17 C6A       -11.7950   14.6730   36.2790 C.ar      1 NDP601      0.0000 
     18 N6A       -12.8490   14.6310   35.2340 N.pl3     1 NDP601      0.0000 
     19 N1A       -11.4670   15.8550   36.8680 N.ar      1 NDP601      0.0000 
     20 C2A       -10.5010   15.8730   37.8220 C.ar      1 NDP601      0.0000 
     21 N3A        -9.8520   14.7720   38.2100 N.ar      1 NDP601      0.0000 
     22 C4A       -10.1500   13.5460   37.6420 C.ar      1 NDP601      0.0000 
     23 O3         -8.7620    5.3710   38.3110 O.3       1 NDP601      0.0000 
     24 PN         -9.1510    3.8890   37.9070 P.3       1 NDP601      0.0000 
     25 O1N        -9.7760    3.1630   39.1040 O.co2     1 NDP601      0.0000 
     26 O2N       -10.1540    3.9290   36.7800 O.co2     1 NDP601      0.0000 
     27 O5D        -7.8250    3.0890   37.4400 O.3       1 NDP601      0.0000 
     28 C5D        -7.1810    2.2560   38.3650 C.3       1 NDP601      0.0000 
     29 C4D        -7.1880    0.8300   38.0940 C.3       1 NDP601      0.0000 
     30 O4D        -7.1460    0.6200   36.6860 O.3       1 NDP601      0.0000 
     31 C3D        -6.0010    0.1750   38.6530 C.3       1 NDP601      0.0000 
     32 O3D        -6.3120   -1.1270   39.0290 O.3       1 NDP601      0.0000 
     33 C2D        -5.0900    0.1300   37.5640 C.3       1 NDP601      0.0000 
     34 O2D        -4.2070   -0.9340   37.7350 O.3       1 NDP601      0.0000 
     35 C1D        -5.9870   -0.0860   36.4090 C.3       1 NDP601      0.0000 
     36 N1N        -5.3840    0.3680   35.1960 N.pl3     1 NDP601      0.0000 
     37 C2N        -5.2900   -0.4980   34.1740 C.2       1 NDP601      0.0000 
     38 C3N        -4.7090   -0.1110   32.9610 C.2       1 NDP601      0.0000 
     39 C7N        -4.6250   -1.1280   31.8380 C.2       1 NDP601      0.0000 
     40 O7N        -4.2550   -0.7600   30.7140 O.2       1 NDP601      0.0000 
     41 N7N        -4.9720   -2.5030   32.0530 N.am      1 NDP601      0.0000 
     42 C4N        -4.2240    1.1990   32.8020 C.3       1 NDP601      0.0000 
     43 C5N        -4.3430    2.0760   33.8880 C.2       1 NDP601      0.0000 
     44 C6N        -4.9250    1.6520   35.0800 C.2       1 NDP601      0.0000 
     45 P2B        -8.5320   12.5990   42.3280 P.3       1 NDP601      0.0000 
     46 O1X        -8.7280   11.5770   43.4630 O.co2     1 NDP601      0.0000 
     47 O2X        -7.3970   13.4850   42.6370 O.co2     1 NDP601      0.0000 
     48 O3X        -9.7640   13.4290   42.1860 O.co2     1 NDP601      0.0000 
@<TRIPOS>BOND
     1    1    2 ar   
     2    1    3 ar   
     3    1    4 1    
     4    1   23 1    
     5    4    5 1    
     6    5    6 1    
     7    6    7 1    
     8    6    8 1    
     9    7   12 1    
    10    8    9 1    
    11    8   10 1    
    12   10   11 1    
    13   10   12 1    
    14   11   45 1    
    15   12   13 1    
    16   13   14 1    
    17   13   22 1    
    18   14   15 2    
    19   15   16 1    
    20   16   17 ar   
    21   16   22 ar   
    22   17   18 1    
    23   17   19 ar   
    24   19   20 ar   
    25   20   21 ar   
    26   21   22 ar   
    27   23   24 1    
    28   24   25 ar   
    29   24   26 ar   
    30   24   27 1    
    31   27   28 1    
    32   28   29 1    
    33   29   30 1    
    34   29   31 1    
    35   30   35 1    
    36   31   32 1    
    37   31   33 1    
    38   33   34 1    
    39   33   35 1    
    40   35   36 1    
    41   36   37 1    
    42   36   44 1    
    43   37   38 2    
    44   38   39 1    
    45   38   42 1    
    46   39   40 2    
    47   39   41 am   
    48   42   43 1    
    49   43   44 2    
    50   45   46 ar   
    51   45   47 ar   
    52   45   48 ar   
@<TRIPOS>SUBSTRUCTURE
     1 NDP601      1 GROUP   
@<TRIPOS>SET
ATOM$ORANGE STATIC     ATOMS   COLORGROUP SYSTEM 
42 5 5 6 6 8 8 10 10 12 12 14 14 16 16 17 17 20 \
20 22 22 28 28 29 29 31 31 33 33 35 35 37 37 38 38 39 \
39 42 42 43 43 44 44 

