#    Name: 6ojs_4_MTX
#    Modification time : Fri May 22 19:31:11 2020

@<TRIPOS>MOLECULE
6ojs_4_MTX
   33    35     1     0     0
SMALL
NO_CHARGES


@<TRIPOS>ATOM
      1 N1         -0.8360   -2.5910   29.1790 N.ar      1 MTX604      0.0000 
      2 C2         -1.2900   -1.9670   28.0760 C.ar      1 MTX604      0.0000 
      3 NA2        -1.3320   -2.6990   26.8360 N.pl3     1 MTX604      0.0000 
      4 N3         -1.7030   -0.6900   28.0940 N.ar      1 MTX604      0.0000 
      5 C4         -1.6740    0.0190   29.2430 C.ar      1 MTX604      0.0000 
      6 NA4        -2.1080    1.3780   29.2920 N.pl3     1 MTX604      0.0000 
      7 C4A        -1.2050   -0.5960   30.4250 C.ar      1 MTX604      0.0000 
      8 N5         -1.1630    0.0870   31.6020 N.ar      1 MTX604      0.0000 
      9 C6         -0.7110   -0.5380   32.7070 C.ar      1 MTX604      0.0000 
     10 C7         -0.2790   -1.8680   32.6790 C.ar      1 MTX604      0.0000 
     11 N8         -0.3290   -2.5310   31.5040 N.ar      1 MTX604      0.0000 
     12 C8A        -0.7880   -1.9110   30.3680 C.ar      1 MTX604      0.0000 
     13 C9         -0.6750    0.2570   33.9890 C.3       1 MTX604      0.0000 
     14 N10         0.2700    1.3490   33.9210 N.pl3     1 MTX604      0.0000 
     15 CM         -0.1950    2.7090   33.8980 C.3       1 MTX604      0.0000 
     16 C11         4.3930    0.4780   33.6500 C.ar      1 MTX604      0.0000 
     17 C12         3.5340   -0.4050   34.2930 C.ar      1 MTX604      0.0000 
     18 C13         2.1780   -0.1150   34.3800 C.ar      1 MTX604      0.0000 
     19 C14         1.6890    1.0610   33.8330 C.ar      1 MTX604      0.0000 
     20 C15         2.5440    1.9400   33.1800 C.ar      1 MTX604      0.0000 
     21 C16         3.9000    1.6460   33.0880 C.ar      1 MTX604      0.0000 
     22 C           5.8590    0.1630   33.5340 C.2       1 MTX604      0.0000 
     23 O           6.4340   -0.4380   34.4260 O.2       1 MTX604      0.0000 
     24 N           6.5780    0.5740   32.3530 N.am      1 MTX604      0.0000 
     25 CA          7.9730    0.2890   32.1950 C.3       1 MTX604      0.0000 
     26 CT          8.4480    1.1980   31.1330 C.2       1 MTX604      0.0000 
     27 O1          7.6130    1.9380   30.5510 O.co2     1 MTX604      0.0000 
     28 O2          9.6700    1.2260   30.7970 O.co2     1 MTX604      0.0000 
     29 CB          8.0810   -1.1080   31.6890 C.3       1 MTX604      0.0000 
     30 CG          9.1910   -2.0040   32.1510 C.3       1 MTX604      0.0000 
     31 CD          9.5470   -3.1420   31.2460 C.2       1 MTX604      0.0000 
     32 OE1        10.1400   -2.9040   30.1690 O.co2     1 MTX604      0.0000 
     33 OE2         8.9830   -4.2560   31.3980 O.co2     1 MTX604      0.0000 
@<TRIPOS>BOND
     1    1    2 ar   
     2    1   12 ar   
     3    2    3 1    
     4    2    4 ar   
     5    4    5 ar   
     6    5    6 1    
     7    5    7 ar   
     8    7    8 ar   
     9    7   12 ar   
    10    8    9 ar   
    11    9   10 ar   
    12    9   13 1    
    13   10   11 ar   
    14   11   12 ar   
    15   13   14 1    
    16   14   15 1    
    17   14   19 1    
    18   16   17 ar   
    19   16   21 ar   
    20   16   22 1    
    21   17   18 ar   
    22   18   19 ar   
    23   19   20 ar   
    24   20   21 ar   
    25   22   23 2    
    26   22   24 am   
    27   24   25 1    
    28   25   26 1    
    29   25   29 1    
    30   26   27 ar   
    31   26   28 ar   
    32   29   30 1    
    33   30   31 1    
    34   31   32 ar   
    35   31   33 ar   
@<TRIPOS>SUBSTRUCTURE
     1 MTX604      1 GROUP   
@<TRIPOS>SET

