#    Name: 6ojs_2_MTX
#    Modification time : Fri May 22 19:30:55 2020

@<TRIPOS>MOLECULE
6ojs_2_MTX
   33    35     1     0     0
SMALL
NO_CHARGES


@<TRIPOS>ATOM
      1 N1        -61.0370  -39.1970   66.4160 N.ar      1 MTX604      0.0000 
      2 C2        -61.2420  -39.4270   65.1070 C.ar      1 MTX604      0.0000 
      3 NA2       -62.2280  -40.4040   64.7210 N.pl3     1 MTX604      0.0000 
      4 N3        -60.5610  -38.7780   64.1500 N.ar      1 MTX604      0.0000 
      5 C4        -59.6330  -37.8560   64.4790 C.ar      1 MTX604      0.0000 
      6 NA4       -58.8970  -37.1540   63.4780 N.pl3     1 MTX604      0.0000 
      7 C4A       -59.3820  -37.5830   65.8410 C.ar      1 MTX604      0.0000 
      8 N5        -58.4530  -36.6590   66.2130 N.ar      1 MTX604      0.0000 
      9 C6        -58.2530  -36.4270   67.5250 C.ar      1 MTX604      0.0000 
     10 C7        -58.9660  -37.1110   68.5130 C.ar      1 MTX604      0.0000 
     11 N8        -59.8830  -38.0230   68.1270 N.ar      1 MTX604      0.0000 
     12 C8A       -60.1040  -38.2700   66.7960 C.ar      1 MTX604      0.0000 
     13 C9        -57.2130  -35.4060   67.9090 C.3       1 MTX604      0.0000 
     14 N10       -55.8830  -35.8310   67.5340 N.pl3     1 MTX604      0.0000 
     15 CM        -55.1700  -35.1620   66.4800 C.3       1 MTX604      0.0000 
     16 C11       -54.1950  -39.1930   69.4450 C.ar      1 MTX604      0.0000 
     17 C12       -55.1320  -38.4130   70.1140 C.ar      1 MTX604      0.0000 
     18 C13       -55.6830  -37.3030   69.4870 C.ar      1 MTX604      0.0000 
     19 C14       -55.2950  -36.9790   68.1950 C.ar      1 MTX604      0.0000 
     20 C15       -54.3690  -37.7660   67.5220 C.ar      1 MTX604      0.0000 
     21 C16       -53.8170  -38.8740   68.1520 C.ar      1 MTX604      0.0000 
     22 C         -53.5950  -40.4070   70.0960 C.2       1 MTX604      0.0000 
     23 O         -53.4060  -40.4320   71.3000 O.2       1 MTX604      0.0000 
     24 N         -53.2560  -41.5470   69.2790 N.am      1 MTX604      0.0000 
     25 CA        -52.6910  -42.7340   69.8500 C.3       1 MTX604      0.0000 
     26 CT        -52.0460  -43.4630   68.7410 C.2       1 MTX604      0.0000 
     27 O1        -52.1570  -43.0190   67.5700 O.co2     1 MTX604      0.0000 
     28 O2        -51.4000  -44.5320   68.9590 O.co2     1 MTX604      0.0000 
     29 CB        -53.8190  -43.5610   70.3610 C.3       1 MTX604      0.0000 
     30 CG        -53.6740  -44.3420   71.6310 C.3       1 MTX604      0.0000 
     31 CD        -54.5780  -45.5230   71.7930 C.2       1 MTX604      0.0000 
     32 OE1       -54.3730  -46.5440   71.0990 O.co2     1 MTX604      0.0000 
     33 OE2       -55.6960  -45.3780   72.3530 O.co2     1 MTX604      0.0000 
@<TRIPOS>BOND
     1    1    2 ar   
     2    1   12 ar   
     3    2    3 1    
     4    2    4 ar   
     5    4    5 ar   
     6    5    6 1    
     7    5    7 ar   
     8    7    8 ar   
     9    7   12 ar   
    10    8    9 ar   
    11    9   10 ar   
    12    9   13 1    
    13   10   11 ar   
    14   11   12 ar   
    15   13   14 1    
    16   14   15 1    
    17   14   19 1    
    18   16   17 ar   
    19   16   21 ar   
    20   16   22 1    
    21   17   18 ar   
    22   18   19 ar   
    23   19   20 ar   
    24   20   21 ar   
    25   22   23 2    
    26   22   24 am   
    27   24   25 1    
    28   25   26 1    
    29   25   29 1    
    30   26   27 ar   
    31   26   28 ar   
    32   29   30 1    
    33   30   31 1    
    34   31   32 ar   
    35   31   33 ar   
@<TRIPOS>SUBSTRUCTURE
     1 MTX604      1 GROUP   
@<TRIPOS>SET

