#    Name: 6ojs_5_MTX
#    Modification time : Fri May 22 19:31:19 2020

@<TRIPOS>MOLECULE
6ojs_5_MTX
   33    35     1     0     0
SMALL
NO_CHARGES


@<TRIPOS>ATOM
      1 N1        -79.9410  -77.0650   25.7680 N.ar      1 MTX604      0.0000 
      2 C2        -78.8810  -76.4480   26.3220 C.ar      1 MTX604      0.0000 
      3 NA2       -78.9870  -75.9570   27.6730 N.pl3     1 MTX604      0.0000 
      4 N3        -77.7270  -76.2740   25.6590 N.ar      1 MTX604      0.0000 
      5 C4        -77.5970  -76.7220   24.3930 C.ar      1 MTX604      0.0000 
      6 NA4       -76.3860  -76.5570   23.6580 N.pl3     1 MTX604      0.0000 
      7 C4A       -78.6820  -77.3740   23.7730 C.ar      1 MTX604      0.0000 
      8 N5        -78.5750  -77.8410   22.5010 N.ar      1 MTX604      0.0000 
      9 C6        -79.6330  -78.4610   21.9470 C.ar      1 MTX604      0.0000 
     10 C7        -80.8360  -78.6370   22.6380 C.ar      1 MTX604      0.0000 
     11 N8        -80.9210  -78.1710   23.9020 N.ar      1 MTX604      0.0000 
     12 C8A       -79.8520  -77.5370   24.4850 C.ar      1 MTX604      0.0000 
     13 C9        -79.4850  -78.9510   20.5320 C.3       1 MTX604      0.0000 
     14 N10       -79.3120  -77.8460   19.6170 N.pl3     1 MTX604      0.0000 
     15 CM        -78.0560  -77.6520   18.9430 C.3       1 MTX604      0.0000 
     16 C11       -82.4640  -75.0900   19.0410 C.ar      1 MTX604      0.0000 
     17 C12       -82.7450  -76.3960   19.4240 C.ar      1 MTX604      0.0000 
     18 C13       -81.7090  -77.3040   19.6090 C.ar      1 MTX604      0.0000 
     19 C14       -80.3950  -76.9020   19.4150 C.ar      1 MTX604      0.0000 
     20 C15       -80.1120  -75.5950   19.0390 C.ar      1 MTX604      0.0000 
     21 C16       -81.1500  -74.6900   18.8520 C.ar      1 MTX604      0.0000 
     22 C         -83.5670  -74.0850   18.8400 C.2       1 MTX604      0.0000 
     23 O         -84.6550  -74.4420   18.4230 O.2       1 MTX604      0.0000 
     24 N         -83.3280  -72.6980   19.1560 N.am      1 MTX604      0.0000 
     25 CA        -84.3500  -71.7050   18.9850 C.3       1 MTX604      0.0000 
     26 CT        -83.6560  -70.4030   18.9200 C.2       1 MTX604      0.0000 
     27 O1        -82.4150  -70.3620   19.1150 O.co2     1 MTX604      0.0000 
     28 O2        -84.3030  -69.3350   18.6950 O.co2     1 MTX604      0.0000 
     29 CB        -85.2220  -71.7080   20.1910 C.3       1 MTX604      0.0000 
     30 CG        -86.6950  -71.4840   20.0360 C.3       1 MTX604      0.0000 
     31 CD        -87.4150  -70.9540   21.2350 C.2       1 MTX604      0.0000 
     32 OE1       -87.2280  -69.7610   21.5650 O.co2     1 MTX604      0.0000 
     33 OE2       -87.8460  -71.7600   22.0990 O.co2     1 MTX604      0.0000 
@<TRIPOS>BOND
     1    1    2 ar   
     2    1   12 ar   
     3    2    3 1    
     4    2    4 ar   
     5    4    5 ar   
     6    5    6 1    
     7    5    7 ar   
     8    7    8 ar   
     9    7   12 ar   
    10    8    9 ar   
    11    9   10 ar   
    12    9   13 1    
    13   10   11 ar   
    14   11   12 ar   
    15   13   14 1    
    16   14   15 1    
    17   14   19 1    
    18   16   17 ar   
    19   16   21 ar   
    20   16   22 1    
    21   17   18 ar   
    22   18   19 ar   
    23   19   20 ar   
    24   20   21 ar   
    25   22   23 2    
    26   22   24 am   
    27   24   25 1    
    28   25   26 1    
    29   25   29 1    
    30   26   27 ar   
    31   26   28 ar   
    32   29   30 1    
    33   30   31 1    
    34   31   32 ar   
    35   31   33 ar   
@<TRIPOS>SUBSTRUCTURE
     1 MTX604      1 GROUP   
@<TRIPOS>SET

