#    Name: 6ojs_3_MTX
#    Modification time : Fri May 22 19:31:03 2020

@<TRIPOS>MOLECULE
6ojs_3_MTX
   33    35     1     0     0
SMALL
NO_CHARGES


@<TRIPOS>ATOM
      1 N1        -57.3380  -65.9180   83.3900 N.ar      1 MTX604      0.0000 
      2 C2        -56.0590  -66.1120   83.7490 C.ar      1 MTX604      0.0000 
      3 NA2       -55.3340  -65.0160   84.3380 N.pl3     1 MTX604      0.0000 
      4 N3        -55.4410  -67.2910   83.5790 N.ar      1 MTX604      0.0000 
      5 C4        -56.0990  -68.3340   83.0310 C.ar      1 MTX604      0.0000 
      6 NA4       -55.4700  -69.6000   82.8380 N.pl3     1 MTX604      0.0000 
      7 C4A       -57.4420  -68.1750   82.6380 C.ar      1 MTX604      0.0000 
      8 N5        -58.1360  -69.2070   82.0860 N.ar      1 MTX604      0.0000 
      9 C6        -59.4190  -69.0080   81.7280 C.ar      1 MTX604      0.0000 
     10 C7        -60.0570  -67.7760   81.9040 C.ar      1 MTX604      0.0000 
     11 N8        -59.3550  -66.7650   82.4580 N.ar      1 MTX604      0.0000 
     12 C8A       -58.0460  -66.9480   82.8300 C.ar      1 MTX604      0.0000 
     13 C9        -60.1600  -70.1620   81.1060 C.3       1 MTX604      0.0000 
     14 N10       -59.5790  -70.5180   79.8320 N.pl3     1 MTX604      0.0000 
     15 CM        -58.8990  -71.7750   79.6760 C.3       1 MTX604      0.0000 
     16 C11       -59.7100  -67.7660   76.6230 C.ar      1 MTX604      0.0000 
     17 C12       -60.6990  -67.7390   77.6000 C.ar      1 MTX604      0.0000 
     18 C13       -60.6650  -68.6460   78.6540 C.ar      1 MTX604      0.0000 
     19 C14       -59.6390  -69.5780   78.7270 C.ar      1 MTX604      0.0000 
     20 C15       -58.6440  -69.5950   77.7570 C.ar      1 MTX604      0.0000 
     21 C16       -58.6810  -68.6890   76.7030 C.ar      1 MTX604      0.0000 
     22 C         -59.7200  -66.7870   75.4820 C.2       1 MTX604      0.0000 
     23 O         -60.7760  -66.3810   75.0310 O.2       1 MTX604      0.0000 
     24 N         -58.4700  -66.3140   74.9370 N.am      1 MTX604      0.0000 
     25 CA        -58.4500  -65.3720   73.8550 C.3       1 MTX604      0.0000 
     26 CT        -57.1160  -65.4590   73.2280 C.2       1 MTX604      0.0000 
     27 O1        -56.2430  -66.1980   73.7460 O.co2     1 MTX604      0.0000 
     28 O2        -56.8440  -64.7790   72.1930 O.co2     1 MTX604      0.0000 
     29 CB        -58.6000  -64.0080   74.4330 C.3       1 MTX604      0.0000 
     30 CG        -59.4060  -62.9800   73.7020 C.3       1 MTX604      0.0000 
     31 CD        -59.0920  -61.5480   73.9990 C.2       1 MTX604      0.0000 
     32 OE1       -58.0220  -61.0570   73.5750 O.co2     1 MTX604      0.0000 
     33 OE2       -59.7560  -60.9310   74.8730 O.co2     1 MTX604      0.0000 
@<TRIPOS>BOND
     1    1    2 ar   
     2    1   12 ar   
     3    2    3 1    
     4    2    4 ar   
     5    4    5 ar   
     6    5    6 1    
     7    5    7 ar   
     8    7    8 ar   
     9    7   12 ar   
    10    8    9 ar   
    11    9   10 ar   
    12    9   13 1    
    13   10   11 ar   
    14   11   12 ar   
    15   13   14 1    
    16   14   15 1    
    17   14   19 1    
    18   16   17 ar   
    19   16   21 ar   
    20   16   22 1    
    21   17   18 ar   
    22   18   19 ar   
    23   19   20 ar   
    24   20   21 ar   
    25   22   23 2    
    26   22   24 am   
    27   24   25 1    
    28   25   26 1    
    29   25   29 1    
    30   26   27 ar   
    31   26   28 ar   
    32   29   30 1    
    33   30   31 1    
    34   31   32 ar   
    35   31   33 ar   
@<TRIPOS>SUBSTRUCTURE
     1 MTX604      1 GROUP   
@<TRIPOS>SET

