#    Name: 6ojs_6_NDP
#    Modification time : Fri May 22 19:31:39 2020

@<TRIPOS>MOLECULE
6ojs_6_NDP
   48    52     1     0     1
SMALL
NO_CHARGES


@<TRIPOS>ATOM
      1 PA        -71.9240  -84.4410   16.8630 P.3       1 NDP601      0.0000 
      2 O1A       -70.7910  -84.1950   17.8330 O.co2     1 NDP601      0.0000 
      3 O2A       -73.0170  -83.4480   17.1220 O.co2     1 NDP601      0.0000 
      4 O5B       -71.4260  -84.2670   15.4220 O.3       1 NDP601      0.0000 
      5 C5B       -70.3920  -85.0830   14.9380 C.3       1 NDP601      0.0000 
      6 C4B       -69.9440  -84.9150   13.5460 C.3       1 NDP601      0.0000 
      7 O4B       -69.1660  -83.7470   13.4100 O.3       1 NDP601      0.0000 
      8 C3B       -69.0650  -86.0110   13.1340 C.3       1 NDP601      0.0000 
      9 O3B       -69.7830  -87.0780   12.6240 O.3       1 NDP601      0.0000 
     10 C2B       -68.2340  -85.4080   12.1240 C.3       1 NDP601      0.0000 
     11 O2B       -68.8980  -85.3010   10.9000 O.3       1 NDP601      0.0000 
     12 C1B       -68.0270  -84.0660   12.6270 C.3       1 NDP601      0.0000 
     13 N9A       -66.8380  -84.0130   13.4050 N.pl3     1 NDP601      0.0000 
     14 C8A       -66.7550  -84.1670   14.7470 C.2       1 NDP601      0.0000 
     15 N7A       -65.4680  -84.0490   15.1310 N.2       1 NDP601      0.0000 
     16 C5A       -64.7040  -83.8110   14.0130 C.ar      1 NDP601      0.0000 
     17 C6A       -63.3220  -83.6030   13.7780 C.ar      1 NDP601      0.0000 
     18 N6A       -62.3720  -83.6220   14.9180 N.pl3     1 NDP601      0.0000 
     19 N1A       -62.8670  -83.3870   12.5140 N.ar      1 NDP601      0.0000 
     20 C2A       -63.7540  -83.3750   11.4850 C.ar      1 NDP601      0.0000 
     21 N3A       -65.0650  -83.5630   11.6570 N.ar      1 NDP601      0.0000 
     22 C4A       -65.5760  -83.7870   12.9220 C.ar      1 NDP601      0.0000 
     23 O3        -72.5030  -85.9120   17.0520 O.3       1 NDP601      0.0000 
     24 PN        -73.1990  -86.3690   18.4030 P.3       1 NDP601      0.0000 
     25 O1N       -73.7500  -87.7950   18.2690 O.co2     1 NDP601      0.0000 
     26 O2N       -72.1790  -86.3330   19.5170 O.co2     1 NDP601      0.0000 
     27 O5D       -74.4290  -85.3710   18.7350 O.3       1 NDP601      0.0000 
     28 C5D       -75.7370  -85.7860   18.4470 C.3       1 NDP601      0.0000 
     29 C4D       -76.6420  -85.9930   19.5640 C.3       1 NDP601      0.0000 
     30 O4D       -76.3190  -85.0780   20.6050 O.3       1 NDP601      0.0000 
     31 C3D       -78.0320  -85.7140   19.1830 C.3       1 NDP601      0.0000 
     32 O3D       -78.8880  -86.5750   19.8570 O.3       1 NDP601      0.0000 
     33 C2D       -78.2680  -84.3890   19.6400 C.3       1 NDP601      0.0000 
     34 O2D       -79.6240  -84.2180   19.9130 O.3       1 NDP601      0.0000 
     35 C1D       -77.4580  -84.3350   20.8720 C.3       1 NDP601      0.0000 
     36 N1N       -77.1220  -82.9910   21.2270 N.pl3     1 NDP601      0.0000 
     37 C2N       -77.4700  -82.5560   22.4470 C.2       1 NDP601      0.0000 
     38 C3N       -77.1690  -81.2540   22.8600 C.2       1 NDP601      0.0000 
     39 C7N       -77.5860  -80.8250   24.2540 C.2       1 NDP601      0.0000 
     40 O7N       -77.1930  -79.7360   24.6950 O.2       1 NDP601      0.0000 
     41 N7N       -78.4120  -81.6620   25.0770 N.am      1 NDP601      0.0000 
     42 C4N       -76.4900  -80.3850   21.9890 C.3       1 NDP601      0.0000 
     43 C5N       -76.1410  -80.8720   20.7240 C.2       1 NDP601      0.0000 
     44 C6N       -76.4600  -82.1760   20.3520 C.2       1 NDP601      0.0000 
     45 P2B       -68.4920  -86.1700    9.6710 P.3       1 NDP601      0.0000 
     46 O1X       -69.4910  -87.3350    9.5450 O.co2     1 NDP601      0.0000 
     47 O2X       -68.5330  -85.3270    8.4660 O.co2     1 NDP601      0.0000 
     48 O3X       -67.1100  -86.7130    9.8290 O.co2     1 NDP601      0.0000 
@<TRIPOS>BOND
     1    1    2 ar   
     2    1    3 ar   
     3    1    4 1    
     4    1   23 1    
     5    4    5 1    
     6    5    6 1    
     7    6    7 1    
     8    6    8 1    
     9    7   12 1    
    10    8    9 1    
    11    8   10 1    
    12   10   11 1    
    13   10   12 1    
    14   11   45 1    
    15   12   13 1    
    16   13   14 1    
    17   13   22 1    
    18   14   15 2    
    19   15   16 1    
    20   16   17 ar   
    21   16   22 ar   
    22   17   18 1    
    23   17   19 ar   
    24   19   20 ar   
    25   20   21 ar   
    26   21   22 ar   
    27   23   24 1    
    28   24   25 ar   
    29   24   26 ar   
    30   24   27 1    
    31   27   28 1    
    32   28   29 1    
    33   29   30 1    
    34   29   31 1    
    35   30   35 1    
    36   31   32 1    
    37   31   33 1    
    38   33   34 1    
    39   33   35 1    
    40   35   36 1    
    41   36   37 1    
    42   36   44 1    
    43   37   38 2    
    44   38   39 1    
    45   38   42 1    
    46   39   40 2    
    47   39   41 am   
    48   42   43 1    
    49   43   44 2    
    50   45   46 ar   
    51   45   47 ar   
    52   45   48 ar   
@<TRIPOS>SUBSTRUCTURE
     1 NDP601      1 GROUP   
@<TRIPOS>SET
ATOM$ORANGE STATIC     ATOMS   COLORGROUP SYSTEM 
42 5 5 6 6 8 8 10 10 12 12 14 14 16 16 17 17 20 \
20 22 22 28 28 29 29 31 31 33 33 35 35 37 37 38 38 39 \
39 42 42 43 43 44 44 

