#    Name: 6ojs_1_MTX
#    Modification time : Fri May 22 19:30:48 2020

@<TRIPOS>MOLECULE
6ojs_1_MTX
   33    35     1     0     0
SMALL
NO_CHARGES


@<TRIPOS>ATOM
      1 N1         -5.1330  -42.7610   95.0250 N.ar      1 MTX604      0.0000 
      2 C2         -5.8880  -43.4920   94.1890 C.ar      1 MTX604      0.0000 
      3 NA2        -7.3140  -43.2960   94.2010 N.pl3     1 MTX604      0.0000 
      4 N3         -5.3560  -44.3940   93.3480 N.ar      1 MTX604      0.0000 
      5 C4         -4.0230  -44.5960   93.3170 C.ar      1 MTX604      0.0000 
      6 NA4        -3.4310  -45.5470   92.4330 N.pl3     1 MTX604      0.0000 
      7 C4A        -3.1910  -43.8500   94.1780 C.ar      1 MTX604      0.0000 
      8 N5         -1.8400  -44.0250   94.1740 N.ar      1 MTX604      0.0000 
      9 C6         -1.0870  -43.2860   95.0120 C.ar      1 MTX604      0.0000 
     10 C7         -1.6500  -42.3520   95.8870 C.ar      1 MTX604      0.0000 
     11 N8         -2.9900  -42.1910   95.8770 N.ar      1 MTX604      0.0000 
     12 C8A        -3.7740  -42.9320   95.0280 C.ar      1 MTX604      0.0000 
     13 C9          0.4040  -43.4990   95.0000 C.3       1 MTX604      0.0000 
     14 N10         0.7680  -44.8200   95.4590 N.pl3     1 MTX604      0.0000 
     15 CM          1.3340  -45.7770   94.5450 C.3       1 MTX604      0.0000 
     16 C11        -0.0020  -45.8740   99.4780 C.ar      1 MTX604      0.0000 
     17 C12         0.2050  -44.5430   99.1370 C.ar      1 MTX604      0.0000 
     18 C13         0.4650  -44.1980   97.8160 C.ar      1 MTX604      0.0000 
     19 C14         0.5110  -45.1830   96.8400 C.ar      1 MTX604      0.0000 
     20 C15         0.2950  -46.5130   97.1790 C.ar      1 MTX604      0.0000 
     21 C16         0.0390  -46.8560   98.5010 C.ar      1 MTX604      0.0000 
     22 C          -0.2930  -46.2730  100.8990 C.2       1 MTX604      0.0000 
     23 O           0.1940  -45.6460  101.8240 O.2       1 MTX604      0.0000 
     24 N          -1.1680  -47.3910  101.1590 N.am      1 MTX604      0.0000 
     25 CA         -1.4740  -47.7970  102.4990 C.3       1 MTX604      0.0000 
     26 CT         -1.9820  -49.1800  102.4090 C.2       1 MTX604      0.0000 
     27 O1         -2.1350  -49.7030  101.2770 O.co2     1 MTX604      0.0000 
     28 O2         -2.2820  -49.8290  103.4550 O.co2     1 MTX604      0.0000 
     29 CB         -2.5830  -46.9340  102.9880 C.3       1 MTX604      0.0000 
     30 CG         -2.6070  -46.4830  104.4160 C.3       1 MTX604      0.0000 
     31 CD         -3.9490  -46.1120  104.9600 C.2       1 MTX604      0.0000 
     32 OE1        -4.7800  -47.0200  105.1830 O.co2     1 MTX604      0.0000 
     33 OE2        -4.3640  -44.9320  104.8210 O.co2     1 MTX604      0.0000 
@<TRIPOS>BOND
     1    1    2 ar   
     2    1   12 ar   
     3    2    3 1    
     4    2    4 ar   
     5    4    5 ar   
     6    5    6 1    
     7    5    7 ar   
     8    7    8 ar   
     9    7   12 ar   
    10    8    9 ar   
    11    9   10 ar   
    12    9   13 1    
    13   10   11 ar   
    14   11   12 ar   
    15   13   14 1    
    16   14   15 1    
    17   14   19 1    
    18   16   17 ar   
    19   16   21 ar   
    20   16   22 1    
    21   17   18 ar   
    22   18   19 ar   
    23   19   20 ar   
    24   20   21 ar   
    25   22   23 2    
    26   22   24 am   
    27   24   25 1    
    28   25   26 1    
    29   25   29 1    
    30   26   27 ar   
    31   26   28 ar   
    32   29   30 1    
    33   30   31 1    
    34   31   32 ar   
    35   31   33 ar   
@<TRIPOS>SUBSTRUCTURE
     1 MTX604      1 GROUP   
@<TRIPOS>SET

