#    Name: 6oo7_1_6EU
#    Modification time : Fri May 22 19:45:04 2020

@<TRIPOS>MOLECULE
6oo7_1_6EU
   46    52     1     0     0
SMALL
NO_CHARGES


@<TRIPOS>ATOM
      1 CBT       162.3080  139.5970  131.0210           1 6EU1001     0.0000 
      2 OAH       162.0200  138.2870  130.5990           1 6EU1001     0.0000 
      3 CBQ       162.3160  138.0610  129.2480           1 6EU1001     0.0000 
      4 CBO       161.2940  138.1470  128.2700           1 6EU1001     0.0000 
      5 CBS       163.6290  137.7500  128.8630           1 6EU1001     0.0000 
      6 OAI       164.6490  137.6590  129.8170           1 6EU1001     0.0000 
      7 CBR       163.9290  137.5280  127.5440           1 6EU1001     0.0000 
      8 CBP       162.9150  137.6190  126.5770           1 6EU1001     0.0000 
      9 CBN       161.5930  137.9250  126.9540           1 6EU1001     0.0000 
     10 CBM       160.4970  138.0130  125.8480           1 6EU1001     0.0000 
     11 CBK       159.8030  136.6630  125.6130           1 6EU1001     0.0000 
     12 OAG       159.1220  136.1920  126.4640           1 6EU1001     0.0000 
     13 OAF       159.9640  135.9550  124.3640           1 6EU1001     0.0000 
     14 CBC       158.7730  135.3060  123.9480           1 6EU1001     0.0000 
     15 CAX       159.1450  134.1180  122.9930           1 6EU1001     0.0000 
     16 CAS       158.5810  132.6550  123.3390           1 6EU1001     0.0000 
     17 CAK       159.5820  131.3120  123.2300           1 6EU1001     0.0000 
     18 CAU       159.8330  134.4580  121.6330           1 6EU1001     0.0000 
     19 CAR       160.5530  133.3160  120.9370           1 6EU1001     0.0000 
     20 OAD       161.7460  133.0540  121.5790           1 6EU1001     0.0000 
     21 CAZ       160.9690  133.7910  119.5210           1 6EU1001     0.0000 
     22 OAE       161.5600  134.7700  119.2860           1 6EU1001     0.0000 
     23 CBA       160.4870  132.7740  118.5260           1 6EU1001     0.0000 
     24 CBF       160.9930  132.6000  117.0870           1 6EU1001     0.0000 
     25 CAW       159.5510  131.8360  119.2480           1 6EU1001     0.0000 
     26 CAO       159.6250  132.1380  120.7670           1 6EU1001     0.0000 
     27 CAJ       159.7690  130.8260  121.7510           1 6EU1001     0.0000 
     28 OAA       158.3330  129.8220  121.5050           1 6EU1001     0.0000 
     29 CAN       160.9450  129.9160  121.5740           1 6EU1001     0.0000 
     30 CAT       160.8060  128.8230  120.4420           1 6EU1001     0.0000 
     31 CAP       161.2380  129.0330  122.8710           1 6EU1001     0.0000 
     32 CAM       159.8550  128.8550  123.7900           1 6EU1001     0.0000 
     33 CAV       160.1300  128.0560  125.0190           1 6EU1001     0.0000 
     34 CBB       161.1690  127.1250  125.0340           1 6EU1001     0.0000 
     35 CBD       159.2560  128.2410  126.2710           1 6EU1001     0.0000 
     36 OAC       159.0210  128.3080  123.1580           1 6EU1001     0.0000 
     37 CAL       159.1180  130.3090  124.0820           1 6EU1001     0.0000 
     38 OAB       157.8750  130.0380  123.7490           1 6EU1001     0.0000 
     39 CAQ       157.9460  129.1000  122.7780           1 6EU1001     0.0000 
     40 CAY       156.6540  128.2800  122.6180           1 6EU1001     0.0000 
     41 CBE       156.7530  127.4750  121.2630           1 6EU1001     0.0000 
     42 CBG       156.1330  127.9610  120.1330           1 6EU1001     0.0000 
     43 CBI       156.2180  127.2560  118.9250           1 6EU1001     0.0000 
     44 CBL       156.9390  126.0540  118.8780           1 6EU1001     0.0000 
     45 CBJ       157.5640  125.5640  120.0070           1 6EU1001     0.0000 
     46 CBH       157.4810  126.2650  121.2100           1 6EU1001     0.0000 
@<TRIPOS>BOND
     1    1    2 du   
     2    2    3 du   
     3    3    4 du   
     4    3    5 du   
     5    4    9 du   
     6    5    6 du   
     7    5    7 du   
     8    7    8 du   
     9    8    9 du   
    10    9   10 du   
    11   10   11 du   
    12   11   12 du   
    13   11   13 du   
    14   13   14 du   
    15   14   15 du   
    16   15   16 du   
    17   15   18 du   
    18   16   17 du   
    19   17   27 du   
    20   17   37 du   
    21   18   19 du   
    22   19   20 du   
    23   19   21 du   
    24   19   26 du   
    25   21   22 du   
    26   21   23 du   
    27   23   24 du   
    28   23   25 du   
    29   25   26 du   
    30   26   27 du   
    31   27   28 du   
    32   27   29 du   
    33   28   39 du   
    34   29   30 du   
    35   29   31 du   
    36   31   32 du   
    37   32   33 du   
    38   32   36 du   
    39   32   37 du   
    40   33   34 du   
    41   33   35 du   
    42   36   39 du   
    43   37   38 du   
    44   38   39 du   
    45   39   40 du   
    46   40   41 du   
    47   41   42 du   
    48   41   46 du   
    49   42   43 du   
    50   43   44 du   
    51   44   45 du   
    52   45   46 du   
@<TRIPOS>SUBSTRUCTURE
     1 6EU1001     1 GROUP   
@<TRIPOS>SET

