#    Name: 6oo7_3_6EU
#    Modification time : Fri May 22 19:45:30 2020

@<TRIPOS>MOLECULE
6oo7_3_6EU
   46    52     1     0     0
SMALL
NO_CHARGES


@<TRIPOS>ATOM
      1 CBT       114.2400  136.8930  131.1140           1 6EU1001     0.0000 
      2 OAH       114.5240  138.1990  130.6780           1 6EU1001     0.0000 
      3 CBQ       114.2230  138.4120  129.3260           1 6EU1001     0.0000 
      4 CBO       115.2440  138.3270  128.3470           1 6EU1001     0.0000 
      5 CBS       112.9070  138.7080  128.9400           1 6EU1001     0.0000 
      6 OAI       111.8860  138.7980  129.8920           1 6EU1001     0.0000 
      7 CBR       112.6030  138.9170  127.6210           1 6EU1001     0.0000 
      8 CBP       113.6160  138.8280  126.6520           1 6EU1001     0.0000 
      9 CBN       114.9410  138.5360  127.0300           1 6EU1001     0.0000 
     10 CBM       116.0380  138.4480  125.9240           1 6EU1001     0.0000 
     11 CBK       116.7530  139.7900  125.7080           1 6EU1001     0.0000 
     12 OAG       117.4550  140.2320  126.5580           1 6EU1001     0.0000 
     13 OAF       116.5870  140.5270  124.4770           1 6EU1001     0.0000 
     14 CBC       117.7810  141.1760  124.0680           1 6EU1001     0.0000 
     15 CAX       117.4120  142.3620  123.1110           1 6EU1001     0.0000 
     16 CAS       117.9800  143.8260  123.4530           1 6EU1001     0.0000 
     17 CAK       116.9880  145.1750  123.3360           1 6EU1001     0.0000 
     18 CAU       116.7300  142.0190  121.7490           1 6EU1001     0.0000 
     19 CAR       116.0140  143.1610  121.0480           1 6EU1001     0.0000 
     20 OAD       114.8230  143.4240  121.6910           1 6EU1001     0.0000 
     21 CAZ       115.6030  142.6860  119.6310           1 6EU1001     0.0000 
     22 OAE       115.0220  141.7030  119.3930           1 6EU1001     0.0000 
     23 CBA       116.0780  143.7110  118.6400           1 6EU1001     0.0000 
     24 CBF       115.5370  143.9210  117.2190           1 6EU1001     0.0000 
     25 CAW       117.0330  144.6300  119.3600           1 6EU1001     0.0000 
     26 CAO       116.9460  144.3350  120.8790           1 6EU1001     0.0000 
     27 CAJ       116.7970  145.6520  121.8540           1 6EU1001     0.0000 
     28 OAA       118.2300  146.6560  121.5910           1 6EU1001     0.0000 
     29 CAN       115.6190  146.5580  121.6790           1 6EU1001     0.0000 
     30 CAT       115.7470  147.6390  120.5340           1 6EU1001     0.0000 
     31 CAP       115.3360  147.4540  122.9700           1 6EU1001     0.0000 
     32 CAM       116.7250  147.6370  123.8790           1 6EU1001     0.0000 
     33 CAV       116.4620  148.4460  125.1040           1 6EU1001     0.0000 
     34 CBB       115.4400  149.3950  125.1140           1 6EU1001     0.0000 
     35 CBD       117.3320  148.2500  126.3580           1 6EU1001     0.0000 
     36 OAC       117.5550  148.1790  123.2360           1 6EU1001     0.0000 
     37 CAL       117.4610  146.1830  124.1770           1 6EU1001     0.0000 
     38 OAB       118.7020  146.4500  123.8340           1 6EU1001     0.0000 
     39 CAQ       118.6260  147.3830  122.8580           1 6EU1001     0.0000 
     40 CAY       119.9200  148.1970  122.6870           1 6EU1001     0.0000 
     41 CBE       119.8180  148.9930  121.3260           1 6EU1001     0.0000 
     42 CBG       120.4290  148.4950  120.1960           1 6EU1001     0.0000 
     43 CBI       120.3410  149.1930  118.9840           1 6EU1001     0.0000 
     44 CBL       119.6280  150.4000  118.9350           1 6EU1001     0.0000 
     45 CBJ       119.0140  150.9020  120.0640           1 6EU1001     0.0000 
     46 CBH       119.0990  150.2070  121.2720           1 6EU1001     0.0000 
@<TRIPOS>BOND
     1    1    2 du   
     2    2    3 du   
     3    3    4 du   
     4    3    5 du   
     5    4    9 du   
     6    5    6 du   
     7    5    7 du   
     8    7    8 du   
     9    8    9 du   
    10    9   10 du   
    11   10   11 du   
    12   11   12 du   
    13   11   13 du   
    14   13   14 du   
    15   14   15 du   
    16   15   16 du   
    17   15   18 du   
    18   16   17 du   
    19   17   27 du   
    20   17   37 du   
    21   18   19 du   
    22   19   20 du   
    23   19   21 du   
    24   19   26 du   
    25   21   22 du   
    26   21   23 du   
    27   23   24 du   
    28   23   25 du   
    29   25   26 du   
    30   26   27 du   
    31   27   28 du   
    32   27   29 du   
    33   28   39 du   
    34   29   30 du   
    35   29   31 du   
    36   31   32 du   
    37   32   33 du   
    38   32   36 du   
    39   32   37 du   
    40   33   34 du   
    41   33   35 du   
    42   36   39 du   
    43   37   38 du   
    44   38   39 du   
    45   39   40 du   
    46   40   41 du   
    47   41   42 du   
    48   41   46 du   
    49   42   43 du   
    50   43   44 du   
    51   44   45 du   
    52   45   46 du   
@<TRIPOS>SUBSTRUCTURE
     1 6EU1001     1 GROUP   
@<TRIPOS>SET

