#    Name: 6oo7_4_6EU
#    Modification time : Fri May 22 19:45:41 2020

@<TRIPOS>MOLECULE
6oo7_4_6EU
   46    52     1     0     0
SMALL
NO_CHARGES


@<TRIPOS>ATOM
      1 CBT       139.0230  161.1970  130.5880           1 6EU1001     0.0000 
      2 OAH       139.7640  161.6280  129.4800           1 6EU1001     0.0000 
      3 CBQ       139.1410  161.3930  128.2430           1 6EU1001     0.0000 
      4 CBO       139.2280  160.1370  127.5810           1 6EU1001     0.0000 
      5 CBS       138.4170  162.4400  127.6550           1 6EU1001     0.0000 
      6 OAI       138.3300  163.6740  128.3060           1 6EU1001     0.0000 
      7 CBR       137.7930  162.2610  126.4490           1 6EU1001     0.0000 
      8 CBP       137.8810  161.0230  125.7920           1 6EU1001     0.0000 
      9 CBN       138.6040  159.9600  126.3700           1 6EU1001     0.0000 
     10 CBM       138.6650  158.6030  125.5990           1 6EU1001     0.0000 
     11 CBK       139.7260  158.5900  124.4890           1 6EU1001     0.0000 
     12 OAG       140.8720  158.5400  124.7980           1 6EU1001     0.0000 
     13 OAF       139.3410  158.6430  123.0890           1 6EU1001     0.0000 
     14 CBC       139.6940  157.5090  122.3030           1 6EU1001     0.0000 
     15 CAX       140.9610  157.8870  121.4530           1 6EU1001     0.0000 
     16 CAS       142.3720  157.5540  122.1310           1 6EU1001     0.0000 
     17 CAK       143.7620  158.4030  121.7430           1 6EU1001     0.0000 
     18 CAU       140.8720  159.1360  120.5310           1 6EU1001     0.0000 
     19 CAR       141.8590  159.1900  119.3790           1 6EU1001     0.0000 
     20 OAD       142.4760  160.4190  119.3950           1 6EU1001     0.0000 
     21 CAZ       141.1010  159.0380  118.0340           1 6EU1001     0.0000 
     22 OAE       139.9700  159.2120  117.8450           1 6EU1001     0.0000 
     23 CBA       142.1280  158.5800  117.0420           1 6EU1001     0.0000 
     24 CBF       142.5710  159.3250  115.7730           1 6EU1001     0.0000 
     25 CAW       143.0160  157.6740  117.8580           1 6EU1001     0.0000 
     26 CAO       142.8280  158.0420  119.3560           1 6EU1001     0.0000 
     27 CAJ       144.1950  158.1400  120.2670           1 6EU1001     0.0000 
     28 OAA       144.8810  156.5350  120.3960           1 6EU1001     0.0000 
     29 CAN       145.3300  158.9760  119.7750           1 6EU1001     0.0000 
     30 CAT       146.3020  158.2710  118.7490           1 6EU1001     0.0000 
     31 CAP       146.3480  159.3510  120.9320           1 6EU1001     0.0000 
     32 CAM       146.2730  158.2550  122.1820           1 6EU1001     0.0000 
     33 CAV       147.1880  158.7340  123.2460           1 6EU1001     0.0000 
     34 CBB       148.1070  157.8650  123.8310           1 6EU1001     0.0000 
     35 CBD       147.1330  160.2110  123.6770           1 6EU1001     0.0000 
     36 OAC       146.5870  157.1630  121.8480           1 6EU1001     0.0000 
     37 CAL       144.7160  157.9890  122.6690           1 6EU1001     0.0000 
     38 OAB       144.6770  156.6760  122.6920           1 6EU1001     0.0000 
     39 CAQ       145.5320  156.2630  121.7350           1 6EU1001     0.0000 
     40 CAY       145.9190  154.7690  121.8670           1 6EU1001     0.0000 
     41 CBE       145.5880  154.0960  120.4740           1 6EU1001     0.0000 
     42 CBG       144.3560  153.5250  120.2560           1 6EU1001     0.0000 
     43 CBI       144.0720  152.9710  119.0070           1 6EU1001     0.0000 
     44 CBL       145.0520  152.9660  118.0050           1 6EU1001     0.0000 
     45 CBJ       146.2890  153.5260  118.2180           1 6EU1001     0.0000 
     46 CBH       146.5750  154.0940  119.4550           1 6EU1001     0.0000 
@<TRIPOS>BOND
     1    1    2 du   
     2    2    3 du   
     3    3    4 du   
     4    3    5 du   
     5    4    9 du   
     6    5    6 du   
     7    5    7 du   
     8    7    8 du   
     9    8    9 du   
    10    9   10 du   
    11   10   11 du   
    12   11   12 du   
    13   11   13 du   
    14   13   14 du   
    15   14   15 du   
    16   15   16 du   
    17   15   18 du   
    18   16   17 du   
    19   17   27 du   
    20   17   37 du   
    21   18   19 du   
    22   19   20 du   
    23   19   21 du   
    24   19   26 du   
    25   21   22 du   
    26   21   23 du   
    27   23   24 du   
    28   23   25 du   
    29   25   26 du   
    30   26   27 du   
    31   27   28 du   
    32   27   29 du   
    33   28   39 du   
    34   29   30 du   
    35   29   31 du   
    36   31   32 du   
    37   32   33 du   
    38   32   36 du   
    39   32   37 du   
    40   33   34 du   
    41   33   35 du   
    42   36   39 du   
    43   37   38 du   
    44   38   39 du   
    45   39   40 du   
    46   40   41 du   
    47   41   42 du   
    48   41   46 du   
    49   42   43 du   
    50   43   44 du   
    51   44   45 du   
    52   45   46 du   
@<TRIPOS>SUBSTRUCTURE
     1 6EU1001     1 GROUP   
@<TRIPOS>SET

