#    Name: 6oo7_2_6EU
#    Modification time : Fri May 22 19:45:17 2020

@<TRIPOS>MOLECULE
6oo7_2_6EU
   46    52     1     0     0
SMALL
NO_CHARGES


@<TRIPOS>ATOM
      1 CBT       137.4610  115.1180  130.5540           1 6EU1001     0.0000 
      2 OAH       136.6930  114.7020  129.4590           1 6EU1001     0.0000 
      3 CBQ       137.2930  114.9210  128.2070           1 6EU1001     0.0000 
      4 CBO       137.2080  116.1720  127.5360           1 6EU1001     0.0000 
      5 CBS       137.9910  113.8600  127.6140           1 6EU1001     0.0000 
      6 OAI       138.0730  112.6310  128.2770           1 6EU1001     0.0000 
      7 CBR       138.5920  114.0210  126.3930           1 6EU1001     0.0000 
      8 CBP       138.5070  115.2550  125.7280           1 6EU1001     0.0000 
      9 CBN       137.8080  116.3330  126.3090           1 6EU1001     0.0000 
     10 CBM       137.7470  117.6870  125.5290           1 6EU1001     0.0000 
     11 CBK       136.6990  117.7050  124.4060           1 6EU1001     0.0000 
     12 OAG       135.5470  117.7390  124.6970           1 6EU1001     0.0000 
     13 OAF       137.1010  117.6790  123.0100           1 6EU1001     0.0000 
     14 CBC       136.7470  118.8220  122.2350           1 6EU1001     0.0000 
     15 CAX       135.4870  118.4510  121.3710           1 6EU1001     0.0000 
     16 CAS       134.0720  118.8250  122.0170           1 6EU1001     0.0000 
     17 CAK       132.6860  117.9550  121.6640           1 6EU1001     0.0000 
     18 CAU       135.5660  117.1750  120.4850           1 6EU1001     0.0000 
     19 CAR       134.5940  117.0970  119.3220           1 6EU1001     0.0000 
     20 OAD       133.9860  115.8650  119.3480           1 6EU1001     0.0000 
     21 CAZ       135.3740  117.2270  117.9870           1 6EU1001     0.0000 
     22 OAE       136.5120  117.0630  117.8230           1 6EU1001     0.0000 
     23 CBA       134.3590  117.6420  116.9650           1 6EU1001     0.0000 
     24 CBF       133.9770  116.8550  115.7010           1 6EU1001     0.0000 
     25 CAW       133.4180  118.5290  117.7440           1 6EU1001     0.0000 
     26 CAO       133.6120  118.2330  119.2570           1 6EU1001     0.0000 
     27 CAJ       132.2490  118.1530  120.1790           1 6EU1001     0.0000 
     28 OAA       131.5420  119.7530  120.2460           1 6EU1001     0.0000 
     29 CAN       131.1210  117.2820  119.7300           1 6EU1001     0.0000 
     30 CAT       130.1420  117.9150  118.6650           1 6EU1001     0.0000 
     31 CAP       130.0970  116.9670  120.8990           1 6EU1001     0.0000 
     32 CAM       130.1740  118.1070  122.1080           1 6EU1001     0.0000 
     33 CAV       129.2650  117.6610  123.1950           1 6EU1001     0.0000 
     34 CBB       128.3980  118.5650  123.8040           1 6EU1001     0.0000 
     35 CBD       129.2660  116.1810  123.6250           1 6EU1001     0.0000 
     36 OAC       129.8520  119.1850  121.7330           1 6EU1001     0.0000 
     37 CAL       131.7320  118.4020  122.5750           1 6EU1001     0.0000 
     38 OAB       131.7680  119.7150  122.5440           1 6EU1001     0.0000 
     39 CAQ       130.9030  120.0850  121.5770           1 6EU1001     0.0000 
     40 CAY       130.5230  121.5850  121.6520           1 6EU1001     0.0000 
     41 CBE       130.9350  122.2170  120.2610           1 6EU1001     0.0000 
     42 CBG       132.1970  122.7380  120.0840           1 6EU1001     0.0000 
     43 CBI       132.5560  123.2560  118.8370           1 6EU1001     0.0000 
     44 CBL       131.6200  123.2730  117.7930           1 6EU1001     0.0000 
     45 CBJ       130.3560  122.7640  117.9630           1 6EU1001     0.0000 
     46 CBH       129.9960  122.2350  119.1980           1 6EU1001     0.0000 
@<TRIPOS>BOND
     1    1    2 du   
     2    2    3 du   
     3    3    4 du   
     4    3    5 du   
     5    4    9 du   
     6    5    6 du   
     7    5    7 du   
     8    7    8 du   
     9    8    9 du   
    10    9   10 du   
    11   10   11 du   
    12   11   12 du   
    13   11   13 du   
    14   13   14 du   
    15   14   15 du   
    16   15   16 du   
    17   15   18 du   
    18   16   17 du   
    19   17   27 du   
    20   17   37 du   
    21   18   19 du   
    22   19   20 du   
    23   19   21 du   
    24   19   26 du   
    25   21   22 du   
    26   21   23 du   
    27   23   24 du   
    28   23   25 du   
    29   25   26 du   
    30   26   27 du   
    31   27   28 du   
    32   27   29 du   
    33   28   39 du   
    34   29   30 du   
    35   29   31 du   
    36   31   32 du   
    37   32   33 du   
    38   32   36 du   
    39   32   37 du   
    40   33   34 du   
    41   33   35 du   
    42   36   39 du   
    43   37   38 du   
    44   38   39 du   
    45   39   40 du   
    46   40   41 du   
    47   41   42 du   
    48   41   46 du   
    49   42   43 du   
    50   43   44 du   
    51   44   45 du   
    52   45   46 du   
@<TRIPOS>SUBSTRUCTURE
     1 6EU1001     1 GROUP   
@<TRIPOS>SET

