#    Name: 6bg2_1_ANP
#    Modification time : Fri May 22 19:30:57 2020

@<TRIPOS>MOLECULE
6bg2_1_ANP
   31    33     1     0     1
SMALL
NO_CHARGES


@<TRIPOS>ATOM
      1 PG         20.5400   -9.4870  -19.4830 P.3       1 ANP700      0.0000 
      2 O1G        20.8410  -10.6390  -20.5180 O.co2     1 ANP700      0.0000 
      3 O2G        19.0950   -9.1030  -19.5590 O.co2     1 ANP700      0.0000 
      4 O3G        21.4350   -8.2290  -19.8300 O.co2     1 ANP700      0.0000 
      5 PB         19.9680  -11.2810  -17.3820 P.3       1 ANP700      0.0000 
      6 O1B        19.1060  -11.8060  -18.4830 O.co2     1 ANP700      0.0000 
      7 O2B        19.0510  -10.7960  -16.2220 O.co2     1 ANP700      0.0000 
      8 N3B        20.9310  -10.0160  -17.9210 N.3       1 ANP700      0.0000 
      9 PA         21.5740  -13.4570  -17.8100 P.3       1 ANP700      0.0000 
     10 O1A        21.2870  -13.1630  -19.2370 O.co2     1 ANP700      0.0000 
     11 O2A        21.0680  -14.8320  -17.3620 O.co2     1 ANP700      0.0000 
     12 O3A        20.8970  -12.4060  -16.8320 O.3       1 ANP700      0.0000 
     13 O5'        23.1370  -13.3130  -17.5760 O.3       1 ANP700      0.0000 
     14 C5'        23.7980  -12.0300  -17.5380 C.3       1 ANP700      0.0000 
     15 C4'        25.2210  -12.2130  -18.0080 C.3       1 ANP700      0.0000 
     16 O4'        26.0460  -12.6090  -16.8900 O.3       1 ANP700      0.0000 
     17 C3'        25.4210  -13.2940  -19.0660 C.3       1 ANP700      0.0000 
     18 O3'        25.2660  -12.7840  -20.3850 O.3       1 ANP700      0.0000 
     19 C2'        26.8510  -13.7620  -18.7930 C.3       1 ANP700      0.0000 
     20 O2'        27.8360  -12.9450  -19.4200 O.3       1 ANP700      0.0000 
     21 C1'        26.9170  -13.6580  -17.2680 C.3       1 ANP700      0.0000 
     22 N9         26.4820  -14.8830  -16.6060 N.pl3     1 ANP700      0.0000 
     23 C8         25.2100  -15.2270  -16.2310 C.2       1 ANP700      0.0000 
     24 N7         25.1190  -16.4090  -15.6690 N.2       1 ANP700      0.0000 
     25 C5         26.4220  -16.8820  -15.6890 C.ar      1 ANP700      0.0000 
     26 C6         27.0000  -18.0870  -15.2490 C.ar      1 ANP700      0.0000 
     27 N6         26.3080  -19.0760  -14.6770 N.pl3     1 ANP700      0.0000 
     28 N1         28.3340  -18.2430  -15.4180 N.ar      1 ANP700      0.0000 
     29 C2         29.0300  -17.2580  -15.9940 C.ar      1 ANP700      0.0000 
     30 N3         28.5930  -16.0820  -16.4490 N.ar      1 ANP700      0.0000 
     31 C4         27.2720  -15.9570  -16.2710 C.ar      1 ANP700      0.0000 
@<TRIPOS>BOND
     1    1    2 ar   
     2    1    3 ar   
     3    1    4 ar   
     4    1    8 1    
     5    5    6 ar   
     6    5    7 ar   
     7    5    8 1    
     8    5   12 1    
     9    9   10 ar   
    10    9   11 ar   
    11    9   12 1    
    12    9   13 1    
    13   13   14 1    
    14   14   15 1    
    15   15   16 1    
    16   15   17 1    
    17   16   21 1    
    18   17   18 1    
    19   17   19 1    
    20   19   20 1    
    21   19   21 1    
    22   21   22 1    
    23   22   23 1    
    24   22   31 1    
    25   23   24 2    
    26   24   25 1    
    27   25   26 ar   
    28   25   31 ar   
    29   26   27 1    
    30   26   28 ar   
    31   28   29 ar   
    32   29   30 ar   
    33   30   31 ar   
@<TRIPOS>SUBSTRUCTURE
     1 ANP700      1 GROUP   
@<TRIPOS>SET
ATOM$ORANGE STATIC     ATOMS   COLORGROUP SYSTEM 
20 14 14 15 15 17 17 19 19 21 21 23 23 25 25 26 26 29 \
29 31 31 

