#    Name: 6hn1_6_DIF
#    Modification time : Fri May 22 19:24:38 2020

@<TRIPOS>MOLECULE
6hn1_6_DIF
   19    20     1     0     0
SMALL
NO_CHARGES


@<TRIPOS>ATOM
      1 C1        -12.5780    3.4400   71.0570 C.ar      1 DIF606      0.0000 
      2 C2        -13.7520    3.9980   70.4950 C.ar      1 DIF606      0.0000 
      3 CL2       -14.9540    2.9000   69.7310 Cl        1 DIF606      0.0000 
      4 C3        -13.9980    5.4010   70.5670 C.ar      1 DIF606      0.0000 
      5 C4        -13.0150    6.2190   71.1600 C.ar      1 DIF606      0.0000 
      6 CL4       -13.3170    7.9750   71.2160 Cl        1 DIF606      0.0000 
      7 C5        -11.8260    5.6790   71.6870 C.ar      1 DIF606      0.0000 
      8 C6        -11.6160    4.2700   71.6640 C.ar      1 DIF606      0.0000 
      9 N1        -15.1960    6.0610   70.1940 N.pl3     1 DIF606      0.0000 
     10 C7        -17.5260    6.2530   69.4600 C.ar      1 DIF606      0.0000 
     11 C8        -16.5230    5.5900   70.2500 C.ar      1 DIF606      0.0000 
     12 C9        -16.9260    4.4310   70.9900 C.ar      1 DIF606      0.0000 
     13 C10       -18.2410    3.9220   70.8860 C.ar      1 DIF606      0.0000 
     14 C11       -19.1790    4.5640   70.0910 C.ar      1 DIF606      0.0000 
     15 C12       -18.8310    5.7210   69.3760 C.ar      1 DIF606      0.0000 
     16 C13       -17.1970    7.4970   68.6390 C.3       1 DIF606      0.0000 
     17 C14       -16.1220    7.1200   67.6180 C.2       1 DIF606      0.0000 
     18 O1        -15.0630    7.7930   67.6080 O.co2     1 DIF606      0.0000 
     19 O2        -16.3000    6.1090   66.8840 O.co2     1 DIF606      0.0000 
@<TRIPOS>BOND
     1    1    2 ar   
     2    1    8 ar   
     3    2    3 1    
     4    2    4 ar   
     5    4    5 ar   
     6    4    9 1    
     7    5    6 1    
     8    5    7 ar   
     9    7    8 ar   
    10    9   11 1    
    11   10   11 ar   
    12   10   15 ar   
    13   10   16 1    
    14   11   12 ar   
    15   12   13 ar   
    16   13   14 ar   
    17   14   15 ar   
    18   16   17 1    
    19   17   18 ar   
    20   17   19 ar   
@<TRIPOS>SUBSTRUCTURE
     1 DIF606      1 GROUP   
@<TRIPOS>SET

