#    Name: 6hn1_5_DIF
#    Modification time : Fri May 22 19:24:32 2020

@<TRIPOS>MOLECULE
6hn1_5_DIF
   19    20     1     0     0
SMALL
NO_CHARGES


@<TRIPOS>ATOM
      1 C1          4.7530   41.6030  101.4500 C.ar      1 DIF605      0.0000 
      2 C2          5.4430   42.8000  101.2370 C.ar      1 DIF605      0.0000 
      3 CL2         4.5160   44.3140  101.0490 Cl        1 DIF605      0.0000 
      4 C3          6.8590   42.8290  101.1810 C.ar      1 DIF605      0.0000 
      5 C4          7.5660   41.6070  101.3650 C.ar      1 DIF605      0.0000 
      6 CL4         9.3780   41.5950  101.2990 Cl        1 DIF605      0.0000 
      7 C5          6.8440   40.3910  101.5920 C.ar      1 DIF605      0.0000 
      8 C6          5.4490   40.4010  101.6420 C.ar      1 DIF605      0.0000 
      9 N1          7.5130   44.0480  101.1260 N.pl3     1 DIF605      0.0000 
     10 C7          9.3790   45.4840  101.5990 C.ar      1 DIF605      0.0000 
     11 C8          8.4020   44.5380  102.0410 C.ar      1 DIF605      0.0000 
     12 C9          8.4240   44.0930  103.3830 C.ar      1 DIF605      0.0000 
     13 C10         9.4490   44.5590  104.2310 C.ar      1 DIF605      0.0000 
     14 C11        10.4230   45.4440  103.7910 C.ar      1 DIF605      0.0000 
     15 C12        10.4010   45.8860  102.4780 C.ar      1 DIF605      0.0000 
     16 C13         9.5050   45.8950  100.1210 C.3       1 DIF605      0.0000 
     17 C14         8.3980   46.7390   99.5210 C.2       1 DIF605      0.0000 
     18 O1          7.2560   46.6180   99.9990 O.co2     1 DIF605      0.0000 
     19 O2          8.6840   47.4820   98.5020 O.co2     1 DIF605      0.0000 
@<TRIPOS>BOND
     1    1    2 ar   
     2    1    8 ar   
     3    2    3 1    
     4    2    4 ar   
     5    4    5 ar   
     6    4    9 1    
     7    5    6 1    
     8    5    7 ar   
     9    7    8 ar   
    10    9   11 1    
    11   10   11 ar   
    12   10   15 ar   
    13   10   16 1    
    14   11   12 ar   
    15   12   13 ar   
    16   13   14 ar   
    17   14   15 ar   
    18   16   17 1    
    19   17   18 ar   
    20   17   19 ar   
@<TRIPOS>SUBSTRUCTURE
     1 DIF605      1 GROUP   
@<TRIPOS>SET

