#    Name: 6hn1_4_DIF
#    Modification time : Fri May 22 19:24:24 2020

@<TRIPOS>MOLECULE
6hn1_4_DIF
   19    20     1     0     0
SMALL
NO_CHARGES


@<TRIPOS>ATOM
      1 C1         12.5100   30.9810   64.1050 C.ar      1 DIF604      0.0000 
      2 C2         11.8130   30.7540   65.2840 C.ar      1 DIF604      0.0000 
      3 CL2        11.5720   32.1050   66.3690 Cl        1 DIF604      0.0000 
      4 C3         11.3190   29.5090   65.6410 C.ar      1 DIF604      0.0000 
      5 C4         11.5550   28.4790   64.7500 C.ar      1 DIF604      0.0000 
      6 CL4        10.9990   26.8670   65.1010 Cl        1 DIF604      0.0000 
      7 C5         12.2340   28.6740   63.5550 C.ar      1 DIF604      0.0000 
      8 C6         12.7210   29.9340   63.2310 C.ar      1 DIF604      0.0000 
      9 N1         10.8540   29.2830   66.9620 N.pl3     1 DIF604      0.0000 
     10 C7         11.0230   29.4950   69.4130 C.ar      1 DIF604      0.0000 
     11 C8         11.6480   29.4020   68.1100 C.ar      1 DIF604      0.0000 
     12 C9         13.0310   29.5130   68.0470 C.ar      1 DIF604      0.0000 
     13 C10        13.7870   29.6880   69.1810 C.ar      1 DIF604      0.0000 
     14 C11        13.1900   29.7700   70.4280 C.ar      1 DIF604      0.0000 
     15 C12        11.8100   29.6610   70.5430 C.ar      1 DIF604      0.0000 
     16 C13         9.5230   29.3900   69.5950 C.3       1 DIF604      0.0000 
     17 C14         8.9880   28.0190   69.2040 C.2       1 DIF604      0.0000 
     18 O1          7.8520   27.7030   69.5080 O.co2     1 DIF604      0.0000 
     19 O2          9.6790   27.2650   68.5360 O.co2     1 DIF604      0.0000 
@<TRIPOS>BOND
     1    1    2 ar   
     2    1    8 ar   
     3    2    3 1    
     4    2    4 ar   
     5    4    5 ar   
     6    4    9 1    
     7    5    6 1    
     8    5    7 ar   
     9    7    8 ar   
    10    9   11 1    
    11   10   11 ar   
    12   10   15 ar   
    13   10   16 1    
    14   11   12 ar   
    15   12   13 ar   
    16   13   14 ar   
    17   14   15 ar   
    18   16   17 1    
    19   17   18 ar   
    20   17   19 ar   
@<TRIPOS>SUBSTRUCTURE
     1 DIF604      1 GROUP   
@<TRIPOS>SET

