#    Name: 6hn1_2_DIF
#    Modification time : Fri May 22 19:24:16 2020

@<TRIPOS>MOLECULE
6hn1_2_DIF
   19    20     1     0     0
SMALL
NO_CHARGES


@<TRIPOS>ATOM
      1 C1         -2.3900    4.5730   81.3360 C.ar      1 DIF602      0.0000 
      2 C2         -2.2300    3.8190   80.1540 C.ar      1 DIF602      0.0000 
      3 CL2        -0.6700    3.2980   79.5730 Cl        1 DIF602      0.0000 
      4 C3         -3.2790    3.5550   79.2940 C.ar      1 DIF602      0.0000 
      5 C4         -4.5580    4.0110   79.6290 C.ar      1 DIF602      0.0000 
      6 CL4        -5.9390    3.6640   78.5300 Cl        1 DIF602      0.0000 
      7 C5         -4.7560    4.7570   80.7980 C.ar      1 DIF602      0.0000 
      8 C6         -3.6770    5.0330   81.6550 C.ar      1 DIF602      0.0000 
      9 N1         -2.9310    3.0380   78.0620 N.pl3     1 DIF602      0.0000 
     10 C7         -2.6310    2.9390   75.6690 C.ar      1 DIF602      0.0000 
     11 C8         -3.1120    3.6440   76.8070 C.ar      1 DIF602      0.0000 
     12 C9         -3.6520    4.9130   76.6000 C.ar      1 DIF602      0.0000 
     13 C10        -3.8000    5.4270   75.2900 C.ar      1 DIF602      0.0000 
     14 C11        -3.3940    4.6800   74.1980 C.ar      1 DIF602      0.0000 
     15 C12        -2.8150    3.4440   74.3740 C.ar      1 DIF602      0.0000 
     16 C13        -1.9420    1.6030   75.7740 C.3       1 DIF602      0.0000 
     17 C14        -3.0000    0.5560   75.6130 C.2       1 DIF602      0.0000 
     18 O1         -3.5700    0.1100   76.6480 O.co2     1 DIF602      0.0000 
     19 O2         -3.2710    0.1930   74.4340 O.co2     1 DIF602      0.0000 
@<TRIPOS>BOND
     1    1    2 ar   
     2    1    8 ar   
     3    2    3 1    
     4    2    4 ar   
     5    4    5 ar   
     6    4    9 1    
     7    5    6 1    
     8    5    7 ar   
     9    7    8 ar   
    10    9   11 1    
    11   10   11 ar   
    12   10   15 ar   
    13   10   16 1    
    14   11   12 ar   
    15   12   13 ar   
    16   13   14 ar   
    17   14   15 ar   
    18   16   17 1    
    19   17   18 ar   
    20   17   19 ar   
@<TRIPOS>SUBSTRUCTURE
     1 DIF602      1 GROUP   
@<TRIPOS>SET

