#    Name: 5os8_1_ATP
#    Modification time : Fri May 22 19:13:25 2020

@<TRIPOS>MOLECULE
5os8_1_ATP
   19    21     1     0     1
SMALL
NO_CHARGES


@<TRIPOS>ATOM
      1 O5'      -126.1990 -179.2530  302.5100 O.3       1 ATP407      0.0000 
      2 C5'      -125.7470 -179.4600  303.8660 C.3       1 ATP407      0.0000 
      3 C4'      -126.1860 -178.3000  304.7290 C.3       1 ATP407      0.0000 
      4 O4'      -126.7690 -178.7960  305.9560 O.3       1 ATP407      0.0000 
      5 C3'      -125.0830 -177.3200  305.1400 C.3       1 ATP407      0.0000 
      6 O3'      -125.4930 -175.9680  304.9520 O.3       1 ATP407      0.0000 
      7 C2'      -124.8150 -177.6860  306.6080 C.3       1 ATP407      0.0000 
      8 O2'      -124.3540 -176.5710  307.3650 O.3       1 ATP407      0.0000 
      9 C1'      -126.2040 -178.1220  307.0620 C.3       1 ATP407      0.0000 
     10 N9       -126.2320 -179.0070  308.2280 N.pl3     1 ATP407      0.0000 
     11 C8       -126.2740 -180.3780  308.2250 C.2       1 ATP407      0.0000 
     12 N7       -126.4100 -180.9120  309.4160 N.2       1 ATP407      0.0000 
     13 C5       -126.4490 -179.8160  310.2650 C.ar      1 ATP407      0.0000 
     14 C6       -126.5830 -179.7030  311.6670 C.ar      1 ATP407      0.0000 
     15 N6       -126.8030 -180.7410  312.4760 N.pl3     1 ATP407      0.0000 
     16 N1       -126.5550 -178.4580  312.2040 N.ar      1 ATP407      0.0000 
     17 C2       -126.4290 -177.4060  311.3850 C.ar      1 ATP407      0.0000 
     18 N3       -126.3170 -177.3910  310.0520 N.ar      1 ATP407      0.0000 
     19 C4       -126.3300 -178.6350  309.5490 C.ar      1 ATP407      0.0000 
@<TRIPOS>BOND
     1    1    2 1    
     2    2    3 1    
     3    3    4 1    
     4    3    5 1    
     5    4    9 1    
     6    5    6 1    
     7    5    7 1    
     8    7    8 1    
     9    7    9 1    
    10    9   10 1    
    11   10   11 1    
    12   10   19 1    
    13   11   12 2    
    14   12   13 1    
    15   13   14 ar   
    16   13   19 ar   
    17   14   15 1    
    18   14   16 ar   
    19   16   17 ar   
    20   17   18 ar   
    21   18   19 ar   
@<TRIPOS>SUBSTRUCTURE
     1 ATP407      1 GROUP   
@<TRIPOS>SET
ATOM$ORANGE STATIC     ATOMS   COLORGROUP SYSTEM 
20 2 2 3 3 5 5 7 7 9 9 11 11 13 13 14 14 17 \
17 19 19 

