#    Name: 6gou_3_FAD
#    Modification time : Fri May 22 19:23:58 2020

@<TRIPOS>MOLECULE
6gou_3_FAD
   53    58     1     0     1
SMALL
NO_CHARGES


@<TRIPOS>ATOM
      1 PA       -104.7910    4.9910  -16.6990 P.3       1 FAD701      0.0000 
      2 O1A      -103.6230    4.6240  -15.8240 O.co2     1 FAD701      0.0000 
      3 O2A      -106.0810    5.4370  -16.0430 O.co2     1 FAD701      0.0000 
      4 O5B      -105.0740    3.7350  -17.6650 O.3       1 FAD701      0.0000 
      5 C5B      -106.1660    3.7830  -18.5840 C.3       1 FAD701      0.0000 
      6 C4B      -106.1950    2.5570  -19.4750 C.3       1 FAD701      0.0000 
      7 O4B      -105.0660    2.6100  -20.3530 O.3       1 FAD701      0.0000 
      8 C3B      -106.0860    1.2560  -18.7140 C.3       1 FAD701      0.0000 
      9 O3B      -106.9000    0.2900  -19.3850 O.3       1 FAD701      0.0000 
     10 C2B      -104.6100    0.9090  -18.7860 C.3       1 FAD701      0.0000 
     11 O2B      -104.3450   -0.5000  -18.7320 O.3       1 FAD701      0.0000 
     12 C1B      -104.1830    1.5120  -20.1210 C.3       1 FAD701      0.0000 
     13 N9A      -102.8030    2.0530  -20.1970 N.pl3     1 FAD701      0.0000 
     14 C8A      -102.2580    3.0100  -19.4230 C.2       1 FAD701      0.0000 
     15 N7A      -100.9720    3.2430  -19.7870 N.2       1 FAD701      0.0000 
     16 C5A      -100.7040    2.4400  -20.8330 C.ar      1 FAD701      0.0000 
     17 C6A       -99.5500    2.2060  -21.7140 C.ar      1 FAD701      0.0000 
     18 N6A       -98.4260    2.9090  -21.5130 N.pl3     1 FAD701      0.0000 
     19 N1A       -99.6580    1.2910  -22.6880 N.ar      1 FAD701      0.0000 
     20 C2A      -100.8020    0.5950  -22.8640 C.ar      1 FAD701      0.0000 
     21 N3A      -101.8940    0.7740  -22.1030 N.ar      1 FAD701      0.0000 
     22 C4A      -101.9070    1.6670  -21.0940 C.ar      1 FAD701      0.0000 
     23 N1       -110.2400   12.0010  -20.2990 N.2       1 FAD701      0.0000 
     24 C2       -110.1700   12.8520  -21.3520 C.2       1 FAD701      0.0000 
     25 O2       -110.0600   12.3370  -22.4830 O.2       1 FAD701      0.0000 
     26 N3       -110.2420   14.1890  -21.2230 N.am      1 FAD701      0.0000 
     27 C4       -110.3650   14.7580  -20.0060 C.2       1 FAD701      0.0000 
     28 O4       -110.4160   16.0130  -19.8680 O.2       1 FAD701      0.0000 
     29 C4X      -110.4300   13.8740  -18.8030 C.2       1 FAD701      0.0000 
     30 N5       -110.5400   14.3670  -17.5530 N.2       1 FAD701      0.0000 
     31 C5X      -110.6100   13.5700  -16.4640 C.ar      1 FAD701      0.0000 
     32 C6       -110.7400   14.1340  -15.1800 C.ar      1 FAD701      0.0000 
     33 C7       -110.8150   13.3410  -14.0410 C.ar      1 FAD701      0.0000 
     34 C7M      -110.9200   13.9970  -12.6940 C.3       1 FAD701      0.0000 
     35 C8       -110.7390   11.8690  -14.1890 C.ar      1 FAD701      0.0000 
     36 C8M      -110.7800   10.9610  -12.9880 C.3       1 FAD701      0.0000 
     37 C9       -110.5940   11.3000  -15.4610 C.ar      1 FAD701      0.0000 
     38 C9A      -110.5320   12.0840  -16.6350 C.ar      1 FAD701      0.0000 
     39 N10      -110.4070   11.5440  -17.9600 N.pl3     1 FAD701      0.0000 
     40 C10      -110.3570   12.4290  -19.0370 C.2       1 FAD701      0.0000 
     41 C1'      -110.3200   10.0930  -18.2430 C.3       1 FAD701      0.0000 
     42 C2'      -108.8510    9.6530  -18.1960 C.3       1 FAD701      0.0000 
     43 O2'      -108.0100   10.6040  -17.4990 O.3       1 FAD701      0.0000 
     44 C3'      -108.2960    9.5020  -19.5960 C.3       1 FAD701      0.0000 
     45 O3'      -109.0090    8.4580  -20.2500 O.3       1 FAD701      0.0000 
     46 C4'      -106.7840    9.2840  -19.6400 C.3       1 FAD701      0.0000 
     47 O4'      -106.4280    9.0620  -21.0160 O.3       1 FAD701      0.0000 
     48 C5'      -106.2010    8.1300  -18.8190 C.3       1 FAD701      0.0000 
     49 O5'      -104.8440    8.4880  -18.4890 O.3       1 FAD701      0.0000 
     50 P        -103.9980    7.6320  -17.4430 P.3       1 FAD701      0.0000 
     51 O1P      -102.5580    7.8470  -17.7360 O.co2     1 FAD701      0.0000 
     52 O2P      -104.4820    7.8880  -16.0530 O.co2     1 FAD701      0.0000 
     53 O3P      -104.3540    6.0970  -17.8000 O.3       1 FAD701      0.0000 
@<TRIPOS>BOND
     1    1    2 ar   
     2    1    3 ar   
     3    1    4 1    
     4    1   53 1    
     5    4    5 1    
     6    5    6 1    
     7    6    7 1    
     8    6    8 1    
     9    7   12 1    
    10    8    9 1    
    11    8   10 1    
    12   10   11 1    
    13   10   12 1    
    14   12   13 1    
    15   13   14 1    
    16   13   22 1    
    17   14   15 2    
    18   15   16 1    
    19   16   17 ar   
    20   16   22 ar   
    21   17   18 1    
    22   17   19 ar   
    23   19   20 ar   
    24   20   21 ar   
    25   21   22 ar   
    26   23   24 1    
    27   23   40 2    
    28   24   25 2    
    29   24   26 am   
    30   26   27 am   
    31   27   28 2    
    32   27   29 1    
    33   29   30 2    
    34   29   40 1    
    35   30   31 1    
    36   31   32 ar   
    37   31   38 ar   
    38   32   33 ar   
    39   33   34 1    
    40   33   35 ar   
    41   35   36 1    
    42   35   37 ar   
    43   37   38 ar   
    44   38   39 1    
    45   39   40 1    
    46   39   41 1    
    47   41   42 1    
    48   42   43 1    
    49   42   44 1    
    50   44   45 1    
    51   44   46 1    
    52   46   47 1    
    53   46   48 1    
    54   48   49 1    
    55   49   50 1    
    56   50   51 ar   
    57   50   52 ar   
    58   50   53 1    
@<TRIPOS>SUBSTRUCTURE
     1 FAD701      1 GROUP   
@<TRIPOS>SET
ATOM$ORANGE STATIC     ATOMS   COLORGROUP SYSTEM 
54 5 5 6 6 8 8 10 10 12 12 14 14 16 16 17 17 20 \
20 22 22 24 24 27 27 29 29 31 31 32 32 33 33 34 34 35 \
35 36 36 37 37 38 38 40 40 41 41 42 42 44 44 46 46 48 \
48 

