#    Name: 6gou_2_FAD
#    Modification time : Fri May 22 19:23:48 2020

@<TRIPOS>MOLECULE
6gou_2_FAD
   53    58     1     0     1
SMALL
NO_CHARGES


@<TRIPOS>ATOM
      1 PA        -52.4200   52.0070  -27.9230 P.3       1 FAD701      0.0000 
      2 O1A       -52.7760   51.5400  -26.5430 O.co2     1 FAD701      0.0000 
      3 O2A       -53.5390   52.5690  -28.7530 O.co2     1 FAD701      0.0000 
      4 O5B       -51.5550   50.8670  -28.6750 O.3       1 FAD701      0.0000 
      5 C5B       -51.0930   51.1540  -29.9710 C.3       1 FAD701      0.0000 
      6 C4B       -50.2060   50.0570  -30.4950 C.3       1 FAD701      0.0000 
      7 O4B       -48.9730   50.1000  -29.7990 O.3       1 FAD701      0.0000 
      8 C3B       -50.8080   48.6780  -30.3100 C.3       1 FAD701      0.0000 
      9 O3B       -50.3530   47.8410  -31.3860 O.3       1 FAD701      0.0000 
     10 C2B       -50.2140   48.2060  -29.0120 C.3       1 FAD701      0.0000 
     11 O2B       -50.1560   46.7690  -28.9930 O.3       1 FAD701      0.0000 
     12 C1B       -48.8400   48.8980  -29.0160 C.3       1 FAD701      0.0000 
     13 N9A       -48.2900   49.2780  -27.6840 N.pl3     1 FAD701      0.0000 
     14 C8A       -48.8450   50.0900  -26.7700 C.2       1 FAD701      0.0000 
     15 N7A       -48.0210   50.2310  -25.6800 N.2       1 FAD701      0.0000 
     16 C5A       -46.9350   49.5120  -25.9270 C.ar      1 FAD701      0.0000 
     17 C6A       -45.7070   49.2230  -25.2080 C.ar      1 FAD701      0.0000 
     18 N6A       -45.5510   49.7720  -23.9960 N.pl3     1 FAD701      0.0000 
     19 N1A       -44.7790   48.4030  -25.7910 N.ar      1 FAD701      0.0000 
     20 C2A       -44.9810   47.8500  -27.0130 C.ar      1 FAD701      0.0000 
     21 N3A       -46.1130   48.0750  -27.7300 N.ar      1 FAD701      0.0000 
     22 C4A       -47.1020   48.8800  -27.2400 C.ar      1 FAD701      0.0000 
     23 N1        -51.3650   59.9050  -33.3010 N.2       1 FAD701      0.0000 
     24 C2        -50.4000   60.8310  -33.5040 C.2       1 FAD701      0.0000 
     25 O2        -49.2940   60.3740  -33.8650 O.2       1 FAD701      0.0000 
     26 N3        -50.6280   62.1690  -33.3650 N.am      1 FAD701      0.0000 
     27 C4        -51.8440   62.6540  -32.9610 C.2       1 FAD701      0.0000 
     28 O4        -52.0860   63.8980  -32.8100 O.2       1 FAD701      0.0000 
     29 C4X       -52.9390   61.6460  -32.6820 C.2       1 FAD701      0.0000 
     30 N5        -54.1740   62.0060  -32.2700 N.2       1 FAD701      0.0000 
     31 C5X       -55.1420   61.1190  -32.0370 C.ar      1 FAD701      0.0000 
     32 C6        -56.3980   61.5630  -31.6270 C.ar      1 FAD701      0.0000 
     33 C7        -57.4390   60.6760  -31.3670 C.ar      1 FAD701      0.0000 
     34 C7M       -58.7820   61.2060  -30.9080 C.3       1 FAD701      0.0000 
     35 C8        -57.1980   59.2270  -31.5530 C.ar      1 FAD701      0.0000 
     36 C8M       -58.2880   58.2280  -31.3030 C.3       1 FAD701      0.0000 
     37 C9        -55.9480   58.7750  -31.9640 C.ar      1 FAD701      0.0000 
     38 C9A       -54.8840   59.6660  -32.2250 C.ar      1 FAD701      0.0000 
     39 N10       -53.5880   59.2490  -32.6610 N.pl3     1 FAD701      0.0000 
     40 C10       -52.6100   60.2210  -32.8900 C.2       1 FAD701      0.0000 
     41 C1'       -53.2270   57.8340  -32.8620 C.3       1 FAD701      0.0000 
     42 C2'       -52.7100   57.2380  -31.5520 C.3       1 FAD701      0.0000 
     43 O2'       -53.1350   58.0010  -30.3930 O.3       1 FAD701      0.0000 
     44 C3'       -51.1890   57.1420  -31.5530 C.3       1 FAD701      0.0000 
     45 O3'       -50.7670   56.2450  -32.6060 O.3       1 FAD701      0.0000 
     46 C4'       -50.6020   56.7950  -30.1710 C.3       1 FAD701      0.0000 
     47 O4'       -49.1720   56.6290  -30.2810 O.3       1 FAD701      0.0000 
     48 C5'       -51.1280   55.5140  -29.5280 C.3       1 FAD701      0.0000 
     49 O5'       -51.0250   55.6770  -28.1200 O.3       1 FAD701      0.0000 
     50 P         -51.6270   54.5900  -27.1140 P.3       1 FAD701      0.0000 
     51 O1P       -50.7770   54.6390  -25.8670 O.co2     1 FAD701      0.0000 
     52 O2P       -53.1100   54.7570  -27.0830 O.co2     1 FAD701      0.0000 
     53 O3P       -51.3120   53.1680  -27.7510 O.3       1 FAD701      0.0000 
@<TRIPOS>BOND
     1    1    2 ar   
     2    1    3 ar   
     3    1    4 1    
     4    1   53 1    
     5    4    5 1    
     6    5    6 1    
     7    6    7 1    
     8    6    8 1    
     9    7   12 1    
    10    8    9 1    
    11    8   10 1    
    12   10   11 1    
    13   10   12 1    
    14   12   13 1    
    15   13   14 1    
    16   13   22 1    
    17   14   15 2    
    18   15   16 1    
    19   16   17 ar   
    20   16   22 ar   
    21   17   18 1    
    22   17   19 ar   
    23   19   20 ar   
    24   20   21 ar   
    25   21   22 ar   
    26   23   24 1    
    27   23   40 2    
    28   24   25 2    
    29   24   26 am   
    30   26   27 am   
    31   27   28 2    
    32   27   29 1    
    33   29   30 2    
    34   29   40 1    
    35   30   31 1    
    36   31   32 ar   
    37   31   38 ar   
    38   32   33 ar   
    39   33   34 1    
    40   33   35 ar   
    41   35   36 1    
    42   35   37 ar   
    43   37   38 ar   
    44   38   39 1    
    45   39   40 1    
    46   39   41 1    
    47   41   42 1    
    48   42   43 1    
    49   42   44 1    
    50   44   45 1    
    51   44   46 1    
    52   46   47 1    
    53   46   48 1    
    54   48   49 1    
    55   49   50 1    
    56   50   51 ar   
    57   50   52 ar   
    58   50   53 1    
@<TRIPOS>SUBSTRUCTURE
     1 FAD701      1 GROUP   
@<TRIPOS>SET
ATOM$ORANGE STATIC     ATOMS   COLORGROUP SYSTEM 
54 5 5 6 6 8 8 10 10 12 12 14 14 16 16 17 17 20 \
20 22 22 24 24 27 27 29 29 31 31 32 32 33 33 34 34 35 \
35 36 36 37 37 38 38 40 40 41 41 42 42 44 44 46 46 48 \
48 

