#    Name: 6gou_4_FAD
#    Modification time : Fri May 22 19:24:05 2020

@<TRIPOS>MOLECULE
6gou_4_FAD
   53    58     1     0     1
SMALL
NO_CHARGES


@<TRIPOS>ATOM
      1 PA        -52.0580   -6.1680  -26.1540 P.3       1 FAD701      0.0000 
      2 O1A       -52.4920   -6.2800  -24.7040 O.co2     1 FAD701      0.0000 
      3 O2A       -53.0830   -5.8750  -27.1970 O.co2     1 FAD701      0.0000 
      4 O5B       -51.1330   -7.3720  -26.6580 O.3       1 FAD701      0.0000 
      5 C5B       -50.6820   -7.4000  -27.9940 C.3       1 FAD701      0.0000 
      6 C4B       -49.8090   -8.6330  -28.2850 C.3       1 FAD701      0.0000 
      7 O4B       -48.5170   -8.5640  -27.6580 O.3       1 FAD701      0.0000 
      8 C3B       -50.4320   -9.9280  -27.8160 C.3       1 FAD701      0.0000 
      9 O3B       -50.0700  -10.9030  -28.7790 O.3       1 FAD701      0.0000 
     10 C2B       -49.7970  -10.1590  -26.4580 C.3       1 FAD701      0.0000 
     11 O2B       -49.7180  -11.5260  -26.0460 O.3       1 FAD701      0.0000 
     12 C1B       -48.4090   -9.5380  -26.6190 C.3       1 FAD701      0.0000 
     13 N9A       -47.8630   -8.8890  -25.3890 N.pl3     1 FAD701      0.0000 
     14 C8A       -48.4150   -7.9250  -24.6300 C.2       1 FAD701      0.0000 
     15 N7A       -47.6060   -7.5800  -23.5820 N.2       1 FAD701      0.0000 
     16 C5A       -46.5260   -8.3270  -23.7010 C.ar      1 FAD701      0.0000 
     17 C6A       -45.2890   -8.4560  -22.9470 C.ar      1 FAD701      0.0000 
     18 N6A       -45.1150   -7.6830  -21.8790 N.pl3     1 FAD701      0.0000 
     19 N1A       -44.3750   -9.3390  -23.3740 N.ar      1 FAD701      0.0000 
     20 C2A       -44.6040  -10.1060  -24.4660 C.ar      1 FAD701      0.0000 
     21 N3A       -45.7130  -10.0410  -25.2140 N.ar      1 FAD701      0.0000 
     22 C4A       -46.6900   -9.1770  -24.8790 C.ar      1 FAD701      0.0000 
     23 N1        -50.9300    0.4770  -33.0320 N.2       1 FAD701      0.0000 
     24 C2        -49.9770    1.3370  -33.4280 C.2       1 FAD701      0.0000 
     25 O2        -48.8900    0.8450  -33.7320 O.2       1 FAD701      0.0000 
     26 N3        -50.1870    2.6690  -33.5360 N.am      1 FAD701      0.0000 
     27 C4        -51.3980    3.2380  -33.2410 C.2       1 FAD701      0.0000 
     28 O4        -51.6090    4.4810  -33.3220 O.2       1 FAD701      0.0000 
     29 C4X       -52.4860    2.3290  -32.7790 C.2       1 FAD701      0.0000 
     30 N5        -53.6960    2.7970  -32.4410 N.2       1 FAD701      0.0000 
     31 C5X       -54.6830    1.9600  -32.0200 C.ar      1 FAD701      0.0000 
     32 C6        -55.9410    2.4880  -31.6750 C.ar      1 FAD701      0.0000 
     33 C7        -56.9910    1.6790  -31.2280 C.ar      1 FAD701      0.0000 
     34 C7M       -58.3250    2.3010  -30.8730 C.3       1 FAD701      0.0000 
     35 C8        -56.7590    0.2150  -31.1220 C.ar      1 FAD701      0.0000 
     36 C8M       -57.8460   -0.7020  -30.6540 C.3       1 FAD701      0.0000 
     37 C9        -55.5160   -0.3190  -31.4620 C.ar      1 FAD701      0.0000 
     38 C9A       -54.4420    0.4850  -31.9020 C.ar      1 FAD701      0.0000 
     39 N10       -53.1520   -0.0400  -32.2500 N.pl3     1 FAD701      0.0000 
     40 C10       -52.1690    0.8780  -32.6860 C.2       1 FAD701      0.0000 
     41 C1'       -52.8090   -1.4760  -32.1620 C.3       1 FAD701      0.0000 
     42 C2'       -52.2960   -1.8370  -30.7500 C.3       1 FAD701      0.0000 
     43 O2'       -52.7320   -0.9000  -29.7750 O.3       1 FAD701      0.0000 
     44 C3'       -50.7760   -1.9080  -30.7070 C.3       1 FAD701      0.0000 
     45 O3'       -50.3200   -2.9940  -31.4970 O.3       1 FAD701      0.0000 
     46 C4'       -50.1620   -2.0060  -29.3160 C.3       1 FAD701      0.0000 
     47 O4'       -48.7250   -2.1310  -29.3970 O.3       1 FAD701      0.0000 
     48 C5'       -50.6670   -3.1580  -28.4490 C.3       1 FAD701      0.0000 
     49 O5'       -50.3170   -2.8030  -27.1080 O.3       1 FAD701      0.0000 
     50 P         -51.0600   -3.4510  -25.8370 P.3       1 FAD701      0.0000 
     51 O1P       -50.2800   -3.1590  -24.5650 O.co2     1 FAD701      0.0000 
     52 O2P       -52.5470   -3.1420  -25.9080 O.co2     1 FAD701      0.0000 
     53 O3P       -50.8960   -5.0180  -26.2190 O.3       1 FAD701      0.0000 
@<TRIPOS>BOND
     1    1    2 ar   
     2    1    3 ar   
     3    1    4 1    
     4    1   53 1    
     5    4    5 1    
     6    5    6 1    
     7    6    7 1    
     8    6    8 1    
     9    7   12 1    
    10    8    9 1    
    11    8   10 1    
    12   10   11 1    
    13   10   12 1    
    14   12   13 1    
    15   13   14 1    
    16   13   22 1    
    17   14   15 2    
    18   15   16 1    
    19   16   17 ar   
    20   16   22 ar   
    21   17   18 1    
    22   17   19 ar   
    23   19   20 ar   
    24   20   21 ar   
    25   21   22 ar   
    26   23   24 1    
    27   23   40 2    
    28   24   25 2    
    29   24   26 am   
    30   26   27 am   
    31   27   28 2    
    32   27   29 1    
    33   29   30 2    
    34   29   40 1    
    35   30   31 1    
    36   31   32 ar   
    37   31   38 ar   
    38   32   33 ar   
    39   33   34 1    
    40   33   35 ar   
    41   35   36 1    
    42   35   37 ar   
    43   37   38 ar   
    44   38   39 1    
    45   39   40 1    
    46   39   41 1    
    47   41   42 1    
    48   42   43 1    
    49   42   44 1    
    50   44   45 1    
    51   44   46 1    
    52   46   47 1    
    53   46   48 1    
    54   48   49 1    
    55   49   50 1    
    56   50   51 ar   
    57   50   52 ar   
    58   50   53 1    
@<TRIPOS>SUBSTRUCTURE
     1 FAD701      1 GROUP   
@<TRIPOS>SET
ATOM$ORANGE STATIC     ATOMS   COLORGROUP SYSTEM 
54 5 5 6 6 8 8 10 10 12 12 14 14 16 16 17 17 20 \
20 22 22 24 24 27 27 29 29 31 31 32 32 33 33 34 34 35 \
35 36 36 37 37 38 38 40 40 41 41 42 42 44 44 46 46 48 \
48 

