#    Name: 6gou_1_FAD
#    Modification time : Fri May 22 19:23:41 2020

@<TRIPOS>MOLECULE
6gou_1_FAD
   53    58     1     0     1
SMALL
NO_CHARGES


@<TRIPOS>ATOM
      1 PA       -109.7340    2.6780  -58.5330 P.3       1 FAD701      0.0000 
      2 O1A      -110.9970    2.3790  -59.2950 O.co2     1 FAD701      0.0000 
      3 O2A      -108.4060    2.9780  -59.2050 O.co2     1 FAD701      0.0000 
      4 O5B      -109.4010    1.5480  -57.4640 O.3       1 FAD701      0.0000 
      5 C5B      -108.3320    1.7340  -56.5280 C.3       1 FAD701      0.0000 
      6 C4B      -108.2930    0.6030  -55.4940 C.3       1 FAD701      0.0000 
      7 O4B      -109.4250    0.7310  -54.6370 O.3       1 FAD701      0.0000 
      8 C3B      -108.3720   -0.7840  -56.0960 C.3       1 FAD701      0.0000 
      9 O3B      -107.5890   -1.6870  -55.3230 O.3       1 FAD701      0.0000 
     10 C2B      -109.8480   -1.1200  -56.0050 C.3       1 FAD701      0.0000 
     11 O2B      -110.1350   -2.5230  -55.9460 O.3       1 FAD701      0.0000 
     12 C1B      -110.2800   -0.4000  -54.7370 C.3       1 FAD701      0.0000 
     13 N9A      -111.6680    0.1100  -54.7100 N.pl3     1 FAD701      0.0000 
     14 C8A      -112.2490    0.9530  -55.5810 C.2       1 FAD701      0.0000 
     15 N7A      -113.5530    1.2220  -55.2330 N.2       1 FAD701      0.0000 
     16 C5A      -113.7750    0.5350  -54.1230 C.ar      1 FAD701      0.0000 
     17 C6A      -114.9030    0.3880  -53.2290 C.ar      1 FAD701      0.0000 
     18 N6A      -116.0530    1.0540  -53.5260 N.pl3     1 FAD701      0.0000 
     19 N1A      -114.7510   -0.3980  -52.1500 N.ar      1 FAD701      0.0000 
     20 C2A      -113.6180   -1.0270  -51.9030 C.ar      1 FAD701      0.0000 
     21 N3A      -112.5450   -0.9240  -52.6850 N.ar      1 FAD701      0.0000 
     22 C4A      -112.5600   -0.1750  -53.7840 C.ar      1 FAD701      0.0000 
     23 N1       -104.4050   10.1500  -55.7120 N.2       1 FAD701      0.0000 
     24 C2       -104.5230   11.1270  -54.7620 C.2       1 FAD701      0.0000 
     25 O2       -104.6290   10.7510  -53.5740 O.2       1 FAD701      0.0000 
     26 N3       -104.5060   12.4460  -55.0670 N.am      1 FAD701      0.0000 
     27 C4       -104.3890   12.8740  -56.3460 C.2       1 FAD701      0.0000 
     28 O4       -104.3900   14.0970  -56.6390 O.2       1 FAD701      0.0000 
     29 C4X      -104.2840   11.8550  -57.4380 C.2       1 FAD701      0.0000 
     30 N5       -104.1760   12.1750  -58.7450 N.2       1 FAD701      0.0000 
     31 C5X      -104.0950   11.2840  -59.7350 C.ar      1 FAD701      0.0000 
     32 C6       -104.0100   11.7140  -61.0530 C.ar      1 FAD701      0.0000 
     33 C7       -103.9350   10.8220  -62.0980 C.ar      1 FAD701      0.0000 
     34 C7M      -103.8240   11.3170  -63.5130 C.3       1 FAD701      0.0000 
     35 C8       -103.9210    9.3890  -61.7870 C.ar      1 FAD701      0.0000 
     36 C8M      -103.8340    8.3490  -62.8740 C.3       1 FAD701      0.0000 
     37 C9       -104.0200    8.9640  -60.4560 C.ar      1 FAD701      0.0000 
     38 C9A      -104.1140    9.8600  -59.3900 C.ar      1 FAD701      0.0000 
     39 N10      -104.2220    9.4600  -58.0130 N.pl3     1 FAD701      0.0000 
     40 C10      -104.3080   10.4390  -57.0260 C.2       1 FAD701      0.0000 
     41 C1'      -104.2860    8.0650  -57.5700 C.3       1 FAD701      0.0000 
     42 C2'      -105.7450    7.5840  -57.5940 C.3       1 FAD701      0.0000 
     43 O2'      -106.5350    8.3970  -58.4590 O.3       1 FAD701      0.0000 
     44 C3'      -106.3400    7.5480  -56.1990 C.3       1 FAD701      0.0000 
     45 O3'      -105.6600    6.5320  -55.4610 O.3       1 FAD701      0.0000 
     46 C4'      -107.8540    7.3600  -56.1500 C.3       1 FAD701      0.0000 
     47 O4'      -108.2760    7.3740  -54.7800 O.3       1 FAD701      0.0000 
     48 C5'      -108.3590    6.0800  -56.8030 C.3       1 FAD701      0.0000 
     49 O5'      -109.7070    6.3290  -57.1370 O.3       1 FAD701      0.0000 
     50 P        -110.5430    5.3550  -58.0870 P.3       1 FAD701      0.0000 
     51 O1P      -112.0280    5.5210  -57.8010 O.co2     1 FAD701      0.0000 
     52 O2P      -110.0940    5.5390  -59.5180 O.co2     1 FAD701      0.0000 
     53 O3P      -110.1600    3.8810  -57.5510 O.3       1 FAD701      0.0000 
@<TRIPOS>BOND
     1    1    2 ar   
     2    1    3 ar   
     3    1    4 1    
     4    1   53 1    
     5    4    5 1    
     6    5    6 1    
     7    6    7 1    
     8    6    8 1    
     9    7   12 1    
    10    8    9 1    
    11    8   10 1    
    12   10   11 1    
    13   10   12 1    
    14   12   13 1    
    15   13   14 1    
    16   13   22 1    
    17   14   15 2    
    18   15   16 1    
    19   16   17 ar   
    20   16   22 ar   
    21   17   18 1    
    22   17   19 ar   
    23   19   20 ar   
    24   20   21 ar   
    25   21   22 ar   
    26   23   24 1    
    27   23   40 2    
    28   24   25 2    
    29   24   26 am   
    30   26   27 am   
    31   27   28 2    
    32   27   29 1    
    33   29   30 2    
    34   29   40 1    
    35   30   31 1    
    36   31   32 ar   
    37   31   38 ar   
    38   32   33 ar   
    39   33   34 1    
    40   33   35 ar   
    41   35   36 1    
    42   35   37 ar   
    43   37   38 ar   
    44   38   39 1    
    45   39   40 1    
    46   39   41 1    
    47   41   42 1    
    48   42   43 1    
    49   42   44 1    
    50   44   45 1    
    51   44   46 1    
    52   46   47 1    
    53   46   48 1    
    54   48   49 1    
    55   49   50 1    
    56   50   51 ar   
    57   50   52 ar   
    58   50   53 1    
@<TRIPOS>SUBSTRUCTURE
     1 FAD701      1 GROUP   
@<TRIPOS>SET
ATOM$ORANGE STATIC     ATOMS   COLORGROUP SYSTEM 
54 5 5 6 6 8 8 10 10 12 12 14 14 16 16 17 17 20 \
20 22 22 24 24 27 27 29 29 31 31 32 32 33 33 34 34 35 \
35 36 36 37 37 38 38 40 40 41 41 42 42 44 44 46 46 48 \
48 

