#    Name: 6c24_2_ALA_ALA_ALA_ARG_LYS_PHE_ALA
#    Modification time : Fri May 22 19:33:55 2020

@<TRIPOS>MOLECULE
6c24_2_ALA_ALA_ALA_ARG_LYS_PHE_ALA
   51    51     7     0     0
SMALL
NO_CHARGES


@<TRIPOS>ATOM
      1 N         160.7090  124.4510  110.6700 N.4       1 ALA23       0.0000 
      2 CA        160.2070  124.5250  112.0720 C.3       1 ALA23       0.0000 
      3 C         158.7880  123.9840  112.1890 C.2       1 ALA23       0.0000 
      4 O         158.0370  123.9410  111.2060 O.2       1 ALA23       0.0000 
      5 CB        160.2520  125.9610  112.5740 C.3       1 ALA23       0.0000 
      6 N         158.4260  123.5820  113.4050 N.am      2 ALA24       0.0000 
      7 CA        157.0440  123.2410  113.7200 C.3       2 ALA24       0.0000 
      8 C         156.1930  124.4880  113.5030 C.2       2 ALA24       0.0000 
      9 O         156.5490  125.5730  113.9730 O.2       2 ALA24       0.0000 
     10 CB        156.9190  122.7460  115.1490 C.3       2 ALA24       0.0000 
     11 N         155.0860  124.3190  112.7830 N.am      3 ALA25       0.0000 
     12 CA        154.3300  125.4350  112.2120 C.3       3 ALA25       0.0000 
     13 C         153.9480  126.5030  113.2420 C.2       3 ALA25       0.0000 
     14 O         153.1760  126.2310  114.1620 O.2       3 ALA25       0.0000 
     15 CB        153.0810  124.9170  111.5080 C.3       3 ALA25       0.0000 
     16 N         154.5080  127.7030  113.0750 N.am      4 ARG26       0.0000 
     17 CA        154.1880  128.8740  113.9040 C.3       4 ARG26       0.0000 
     18 C         153.5920  129.9870  113.0310 C.2       4 ARG26       0.0000 
     19 O         153.9330  130.1050  111.8520 O.2       4 ARG26       0.0000 
     20 CB        155.4370  129.3770  114.6530 C.3       4 ARG26       0.0000 
     21 CG        156.5340  129.9770  113.7810 C.3       4 ARG26       0.0000 
     22 CD        157.6620  130.5440  114.6260 C.3       4 ARG26       0.0000 
     23 NE        158.5010  129.5020  115.2230 N.pl3     4 ARG26       0.0000 
     24 CZ        159.5060  128.8630  114.6140 C.cat     4 ARG26       0.0000 
     25 NH1       159.8370  129.1220  113.3470 N.pl3     4 ARG26       0.0000 
     26 NH2       160.1960  127.9420  115.2870 N.pl3     4 ARG26       0.0000 
     27 N         152.7250  130.8060  113.6210 N.am      5 LYS27       0.0000 
     28 CA        152.0330  131.8800  112.8940 C.3       5 LYS27       0.0000 
     29 C         152.9420  133.0970  112.7580 C.2       5 LYS27       0.0000 
     30 O         153.7430  133.3610  113.6460 O.2       5 LYS27       0.0000 
     31 CB        150.7690  132.3040  113.6430 C.3       5 LYS27       0.0000 
     32 CG        149.7730  131.1880  113.9090 C.3       5 LYS27       0.0000 
     33 CD        148.7170  131.6360  114.9110 C.3       5 LYS27       0.0000 
     34 CE        147.7760  130.5090  115.3050 C.3       5 LYS27       0.0000 
     35 NZ        146.6500  131.0000  116.1490 N.4       5 LYS27       0.0000 
     36 N         152.8220  133.8290  111.6530 N.am      6 PHE28       0.0000 
     37 CA        153.4530  135.1540  111.5220 C.3       6 PHE28       0.0000 
     38 C         152.3660  136.2090  111.7420 C.2       6 PHE28       0.0000 
     39 O         151.2100  135.8600  112.0050 O.2       6 PHE28       0.0000 
     40 CB        154.1260  135.3400  110.1460 C.3       6 PHE28       0.0000 
     41 CG        155.1140  134.2500  109.7610 C.ar      6 PHE28       0.0000 
     42 CD1       155.7800  133.4770  110.7240 C.ar      6 PHE28       0.0000 
     43 CD2       155.4060  134.0200  108.4090 C.ar      6 PHE28       0.0000 
     44 CE1       156.6900  132.4930  110.3360 C.ar      6 PHE28       0.0000 
     45 CE2       156.3110  133.0370  108.0270 C.ar      6 PHE28       0.0000 
     46 CZ        156.9540  132.2750  108.9900 C.ar      6 PHE28       0.0000 
     47 N         152.7350  137.4870  111.6540 N.am      7 ALA29       0.0000 
     48 CA        151.7730  138.5920  111.8030 C.3       7 ALA29       0.0000 
     49 C         150.7710  138.6270  110.6450 C.2       7 ALA29       0.0000 
     50 O         151.0350  139.1990  109.5860 O.2       7 ALA29       0.0000 
     51 CB        152.5010  139.9270  111.9200 C.3       7 ALA29       0.0000 
@<TRIPOS>BOND
     1    1    2 1    
     2    2    3 1    
     3    2    5 1    
     4    3    4 2    
     5    3    6 am   
     6    6    7 1    
     7    7    8 1    
     8    7   10 1    
     9    8    9 2    
    10    8   11 am   
    11   11   12 1    
    12   12   13 1    
    13   12   15 1    
    14   13   14 2    
    15   13   16 am   
    16   16   17 1    
    17   17   18 1    
    18   17   20 1    
    19   18   19 2    
    20   18   27 am   
    21   20   21 1    
    22   21   22 1    
    23   22   23 1    
    24   23   24 ar   
    25   24   25 ar   
    26   24   26 ar   
    27   27   28 1    
    28   28   29 1    
    29   28   31 1    
    30   29   30 2    
    31   29   36 am   
    32   31   32 1    
    33   32   33 1    
    34   33   34 1    
    35   34   35 1    
    36   36   37 1    
    37   37   38 1    
    38   37   40 1    
    39   38   39 2    
    40   38   47 am   
    41   40   41 1    
    42   41   42 ar   
    43   41   43 ar   
    44   42   44 ar   
    45   43   45 ar   
    46   44   46 ar   
    47   45   46 ar   
    48   47   48 1    
    49   48   49 1    
    50   48   51 1    
    51   49   50 2    
@<TRIPOS>SUBSTRUCTURE
     1 ALA23       1 RESIDUE 
     2 ALA24       6 RESIDUE 
     3 ALA25      11 RESIDUE 
     4 ARG26      16 RESIDUE 
     5 LYS27      27 RESIDUE 
     6 PHE28      36 RESIDUE 
     7 ALA29      47 RESIDUE 
@<TRIPOS>SET

