#    Name: 6c24_2_ALA_ALA_ALA_ARG_LYS_PHE_ALA_CAVITY_N1_6
#    Modification time : Fri May 22 19:33:57 2020

@<TRIPOS>MOLECULE
6c24_2_ALA_ALA_ALA_ARG_LYS_PHE_ALA_CAVITY_N1_6
   85     0     6     0     0
SMALL
NO_CHARGES


@<TRIPOS>ATOM
      1 OG        142.9500  127.5000  117.1400 O.3       1 SER1        0.0000 
      2 OG        150.0500  126.4500  113.4300 O.3       1 SER1        0.0000 
      3 OG        149.2700  127.5800  114.0400 O.3       1 SER1        0.0000 
      4 OG        150.7700  124.5800  114.1200 O.3       1 SER1        0.0000 
      5 OG        146.8500  130.2000  117.1600 O.3       1 SER1        0.0000 
      6 OG        146.0700  131.3300  117.7700 O.3       1 SER1        0.0000 
      7 OG        153.6800  123.7300  112.0400 O.3       1 SER1        0.0000 
      8 OG        151.3300  127.1000  113.8700 O.3       1 SER1        0.0000 
      9 OG        152.8300  124.1000  113.9500 O.3       1 SER1        0.0000 
     10 OG        152.0500  125.2300  114.5600 O.3       1 SER1        0.0000 
     11 N         143.7400  126.3800  116.5400 N.am      2 ALA2        0.0000 
     12 N         145.8600  126.6500  115.0700 N.am      2 ALA2        0.0000 
     13 N         145.0800  127.7800  115.6800 N.am      2 ALA2        0.0000 
     14 N         145.5700  129.5500  116.7200 N.am      2 ALA2        0.0000 
     15 N         144.7900  130.6800  117.3300 N.am      2 ALA2        0.0000 
     16 N         148.4800  128.7000  114.6500 N.am      2 ALA2        0.0000 
     17 N         149.8900  130.8500  112.4900 N.am      2 ALA2        0.0000 
     18 N         149.1100  131.9700  113.0900 N.am      2 ALA2        0.0000 
     19 N         150.6100  128.9700  113.1800 N.am      2 ALA2        0.0000 
     20 N         149.8300  130.1000  113.7900 N.am      2 ALA2        0.0000 
     21 N         149.0400  131.2300  114.3900 N.am      2 ALA2        0.0000 
     22 N         150.5400  128.2300  114.4800 N.am      2 ALA2        0.0000 
     23 N         148.1900  131.6000  116.3000 N.am      2 ALA2        0.0000 
     24 N         151.9500  130.3700  112.3200 N.am      2 ALA2        0.0000 
     25 N         151.1700  131.5000  112.9300 N.am      2 ALA2        0.0000 
     26 N         150.3900  132.6200  113.5300 N.am      2 ALA2        0.0000 
     27 N         151.8900  129.6300  113.6200 N.am      2 ALA2        0.0000 
     28 N         151.1000  130.7500  114.2200 N.am      2 ALA2        0.0000 
     29 N         150.3200  131.8800  114.8300 N.am      2 ALA2        0.0000 
     30 N         152.5100  132.9000  112.0700 N.am      2 ALA2        0.0000 
     31 O         152.4500  132.1500  113.3600 O.2       2 ALA2        0.0000 
     32 N         153.1600  130.2800  114.0600 N.am      2 ALA2        0.0000 
     33 N         152.3800  131.4000  114.6600 N.am      2 ALA2        0.0000 
     34 N         153.1000  129.5300  115.3500 N.am      2 ALA2        0.0000 
     35 O         154.4400  130.9300  114.4900 O.2       2 ALA2        0.0000 
     36 NZ        148.2800  124.0200  111.9400 N.4       3 LYS4        0.0000 
     37 NZ        151.5500  123.4500  113.5100 N.4       3 LYS4        0.0000 
     38 NZ        151.4900  122.7000  114.8100 N.4       3 LYS4        0.0000 
     39 NZ        153.6100  122.9800  113.3400 N.4       3 LYS4        0.0000 
     40 CZ        144.6500  126.7400  113.3300 C.ar      4 PHE5        0.0000 
     41 CZ        143.8000  127.1200  115.2400 C.ar      4 PHE5        0.0000 
     42 CZ        147.5600  125.8900  111.2500 C.ar      4 PHE5        0.0000 
     43 CZ        146.7800  127.0200  111.8600 C.ar      4 PHE5        0.0000 
     44 CZ        146.7100  126.2700  113.1600 C.ar      4 PHE5        0.0000 
     45 CZ        145.9300  127.4000  113.7700 C.ar      4 PHE5        0.0000 
     46 CZ        148.8400  126.5500  111.6900 C.ar      4 PHE5        0.0000 
     47 CZ        148.0500  127.6700  112.3000 C.ar      4 PHE5        0.0000 
     48 CZ        150.3400  123.5500  111.7700 C.ar      4 PHE5        0.0000 
     49 CZ        147.2100  128.0500  114.2100 C.ar      4 PHE5        0.0000 
     50 CZ        146.4200  129.1700  114.8200 C.ar      4 PHE5        0.0000 
     51 CZ        144.8600  131.4300  116.0300 C.ar      4 PHE5        0.0000 
     52 CZ        150.1200  127.2000  112.1300 C.ar      4 PHE5        0.0000 
     53 CZ        147.7700  130.5700  113.9500 C.ar      4 PHE5        0.0000 
     54 CZ        146.9800  131.7000  114.5600 C.ar      4 PHE5        0.0000 
     55 CZ        151.6200  124.2000  112.2100 C.ar      4 PHE5        0.0000 
     56 CZ        150.8300  125.3200  112.8200 C.ar      4 PHE5        0.0000 
     57 CZ        147.7000  129.8300  115.2500 C.ar      4 PHE5        0.0000 
     58 CZ        146.9200  130.9500  115.8600 C.ar      4 PHE5        0.0000 
     59 CZ        146.1300  132.0800  116.4700 C.ar      4 PHE5        0.0000 
     60 CZ        151.3900  127.8500  112.5700 C.ar      4 PHE5        0.0000 
     61 CZ        152.8900  124.8500  112.6500 C.ar      4 PHE5        0.0000 
     62 CZ        152.1100  125.9800  113.2600 C.ar      4 PHE5        0.0000 
     63 CZ        153.4500  127.3800  112.4000 C.ar      4 PHE5        0.0000 
     64 CZ        152.6700  128.5000  113.0100 C.ar      4 PHE5        0.0000 
     65 CZ        154.1700  125.5000  113.0900 C.ar      4 PHE5        0.0000 
     66 CA        144.5900  126.0000  114.6300 C.3       5 GLY6        0.0000 
     67 CA        146.6500  125.5200  114.4600 C.3       5 GLY6        0.0000 
     68 CA        148.7700  125.8000  112.9900 C.3       5 GLY6        0.0000 
     69 CA        147.9900  126.9200  113.6000 C.3       5 GLY6        0.0000 
     70 CA        149.4900  123.9300  113.6800 C.3       5 GLY6        0.0000 
     71 CA        149.3300  128.3200  112.7400 C.3       5 GLY6        0.0000 
     72 CA        148.5500  129.4500  113.3500 C.3       5 GLY6        0.0000 
     73 CA        150.6700  129.7200  111.8800 C.3       5 GLY6        0.0000 
     74 CA        152.6100  127.7500  114.3100 C.3       5 GLY6        0.0000 
     75 CA        153.3200  125.8800  115.0000 C.3       5 GLY6        0.0000 
     76 CA        153.8800  128.4100  114.7500 C.3       5 GLY6        0.0000 
     77 CA        154.6000  126.5300  115.4400 C.3       5 GLY6        0.0000 
     78 CA        153.7900  133.5500  112.5000 C.3       5 GLY6        0.0000 
     79 CA        154.5100  131.6800  113.2000 C.3       5 GLY6        0.0000 
     80 DU        147.5000  125.1500  112.5500 H         6 CUB7        0.0000 
     81 DU        154.1100  124.7600  114.3900 H         6 CUB7        0.0000 
     82 DU        154.0100  129.9000  112.1500 H         6 CUB7        0.0000 
     83 DU        153.2300  131.0300  112.7600 H         6 CUB7        0.0000 
     84 DU        153.9500  129.1500  113.4500 H         6 CUB7        0.0000 
     85 DU        154.6700  127.2800  114.1400 H         6 CUB7        0.0000 
@<TRIPOS>BOND
@<TRIPOS>SUBSTRUCTURE
     1 SER1        1 GROUP   
     2 ALA2       11 GROUP   
     3 LYS4       36 GROUP   
     4 PHE5       40 GROUP   
     5 GLY6       66 GROUP   
     6 CUB7       80 GROUP   
@<TRIPOS>SET

