#    Name: 6mnc_1_J3Z
#    Modification time : Fri May 22 19:24:02 2020

@<TRIPOS>MOLECULE
6mnc_1_J3Z
   20    23     1     0     0
SMALL
NO_CHARGES


@<TRIPOS>ATOM
      1 C2         22.7240   -4.3490  -29.8300 C.3       1 J3Z401      0.0000 
      2 C4         23.1790   -2.5750  -31.6890 C.3       1 J3Z401      0.0000 
      3 C5         24.2900   -2.0080  -30.8090 C.3       1 J3Z401      0.0000 
      4 C6         23.7460   -0.8240  -29.9980 C.3       1 J3Z401      0.0000 
      5 O1         25.5520   -0.9100  -32.5350 O.2       1 J3Z401      0.0000 
      6 O3         19.2390   -7.2200  -26.3080 O.3       1 J3Z401      0.0000 
      7 C7         25.5560   -1.5480  -31.5010 C.2       1 J3Z401      0.0000 
      8 C8         26.8180   -1.9180  -30.7360 C.3       1 J3Z401      0.0000 
      9 C9         26.2460   -2.5820  -29.4920 C.3       1 J3Z401      0.0000 
     10 C10        24.8980   -3.1300  -29.9700 C.3       1 J3Z401      0.0000 
     11 C12        23.8710   -3.7220  -28.9920 C.3       1 J3Z401      0.0000 
     12 C3         22.1270   -3.3790  -30.8820 C.3       1 J3Z401      0.0000 
     13 C14        24.5000   -4.6420  -27.9230 C.3       1 J3Z401      0.0000 
     14 C15        23.7570   -5.9660  -27.8060 C.3       1 J3Z401      0.0000 
     15 C16        22.2490   -5.8680  -27.8720 C.ar      1 J3Z401      0.0000 
     16 C21        21.6900   -5.0120  -28.9450 C.ar      1 J3Z401      0.0000 
     17 C17        21.4160   -6.5960  -27.0270 C.ar      1 J3Z401      0.0000 
     18 C18        20.0260   -6.5090  -27.1760 C.ar      1 J3Z401      0.0000 
     19 C19        19.4600   -5.6990  -28.1840 C.ar      1 J3Z401      0.0000 
     20 C20        20.2780   -4.9650  -29.0680 C.ar      1 J3Z401      0.0000 
@<TRIPOS>BOND
     1    1   11 1    
     2    1   12 1    
     3    1   16 1    
     4    2    3 1    
     5    2   12 1    
     6    3    4 1    
     7    3    7 1    
     8    3   10 1    
     9    5    7 2    
    10    6   18 1    
    11    7    8 1    
    12    8    9 1    
    13    9   10 1    
    14   10   11 1    
    15   11   13 1    
    16   13   14 1    
    17   14   15 1    
    18   15   16 ar   
    19   15   17 ar   
    20   16   20 ar   
    21   17   18 ar   
    22   18   19 ar   
    23   19   20 ar   
@<TRIPOS>SUBSTRUCTURE
     1 J3Z401      1 GROUP   
@<TRIPOS>SET

