#    Name: 6a6u_1_FSA_CAVITY_N1_6
#    Modification time : Fri May 22 19:25:09 2020

@<TRIPOS>MOLECULE
6a6u_1_FSA_CAVITY_N1_6
  111     0     7     0     0
SMALL
NO_CHARGES


@<TRIPOS>ATOM
      1 OG         24.6600    3.5100  -19.1700 O.3       1 SER1        0.0000 
      2 OG         25.2700    4.0100  -17.8900 O.3       1 SER1        0.0000 
      3 OG         27.5700    3.2900  -16.9300 O.3       1 SER1        0.0000 
      4 OG         27.9500    1.8900  -16.5600 O.3       1 SER1        0.0000 
      5 OG         27.6200    0.8100  -14.2200 O.3       1 SER1        0.0000 
      6 OG         28.6000   -0.0900  -12.5700 O.3       1 SER1        0.0000 
      7 OG         28.7700    4.2900  -14.3800 O.3       1 SER1        0.0000 
      8 OG         29.1600    2.8900  -14.0100 O.3       1 SER1        0.0000 
      9 OG         29.5400    1.4900  -13.6300 O.3       1 SER1        0.0000 
     10 OG         29.3800    4.8000  -13.1000 O.3       1 SER1        0.0000 
     11 OG         29.7600    3.3900  -12.7300 O.3       1 SER1        0.0000 
     12 O          30.5900    2.2400  -17.9500 O.2       2 ALA2        0.0000 
     13 N          24.0400   -1.1200  -11.7800 N.am      2 ALA2        0.0000 
     14 N          25.3600   -0.9500  -12.4700 N.am      2 ALA2        0.0000 
     15 N          26.6800   -0.7700  -13.1600 N.am      2 ALA2        0.0000 
     16 N          27.0600   -2.1700  -12.7900 N.am      2 ALA2        0.0000 
     17 N          28.0000   -0.5900  -13.8500 N.am      2 ALA2        0.0000 
     18 N          28.3800   -1.9900  -13.4800 N.am      2 ALA2        0.0000 
     19 N          29.7000   -1.8200  -14.1700 N.am      2 ALA2        0.0000 
     20 O          31.1900    2.7400  -16.6700 O.2       2 ALA2        0.0000 
     21 O          31.5800    1.3400  -16.3000 O.2       2 ALA2        0.0000 
     22 O          32.5100    2.9200  -17.3600 O.2       2 ALA2        0.0000 
     23 N          29.9200    0.0900  -13.2600 N.am      2 ALA2        0.0000 
     24 N          31.0300    6.0500  -16.1300 N.am      2 ALA2        0.0000 
     25 N          31.4100    4.6500  -15.7600 N.am      2 ALA2        0.0000 
     26 N          31.8000    3.2500  -15.3900 N.am      2 ALA2        0.0000 
     27 N          32.1800    1.8400  -15.0200 N.am      2 ALA2        0.0000 
     28 N          32.7300    4.8200  -16.4500 N.am      2 ALA2        0.0000 
     29 N          33.1200    3.4200  -16.0800 N.am      2 ALA2        0.0000 
     30 N          34.4300    3.6000  -16.7700 N.am      2 ALA2        0.0000 
     31 N          30.7000    4.9700  -13.7900 N.am      2 ALA2        0.0000 
     32 N          32.4000    3.7500  -14.1100 N.am      2 ALA2        0.0000 
     33 N          33.7200    3.9300  -14.8000 N.am      2 ALA2        0.0000 
     34 O          31.9000    5.9800  -11.2300 O.2       2 ALA2        0.0000 
     35 OD1        22.6300    3.6600  -16.5100 O.co2     3 ASP3        0.0000 
     36 OD1        22.8500    5.5600  -15.6000 O.co2     3 ASP3        0.0000 
     37 OD1        24.1700    5.7400  -16.2900 O.co2     3 ASP3        0.0000 
     38 OD1        26.4700    5.0200  -15.3400 O.co2     3 ASP3        0.0000 
     39 OD1        28.3900    5.7000  -14.7500 O.co2     3 ASP3        0.0000 
     40 OD1        28.9900    6.2000  -13.4700 O.co2     3 ASP3        0.0000 
     41 OD1        30.1400    1.9900  -12.3600 O.co2     3 ASP3        0.0000 
     42 OD1        31.0800    3.5700  -13.4200 O.co2     3 ASP3        0.0000 
     43 OD1        31.4600    2.1700  -13.0500 O.co2     3 ASP3        0.0000 
     44 OD1        31.8400    0.7700  -12.6800 O.co2     3 ASP3        0.0000 
     45 OD1        28.2800    6.5300  -11.5000 O.co2     3 ASP3        0.0000 
     46 OD1        29.9800    5.3000  -11.8200 O.co2     3 ASP3        0.0000 
     47 OD1        31.6800    4.0700  -12.1400 O.co2     3 ASP3        0.0000 
     48 NZ         23.3400    3.3300  -18.4800 N.4       4 LYS4        0.0000 
     49 NZ         23.9500    3.8300  -17.2000 N.4       4 LYS4        0.0000 
     50 NZ         25.4800   -1.7800  -15.7100 N.4       4 LYS4        0.0000 
     51 NZ         24.3800   -0.0500  -14.1200 N.4       4 LYS4        0.0000 
     52 NZ         25.7000    0.1300  -14.8100 N.4       4 LYS4        0.0000 
     53 NZ         27.0200    0.3100  -15.5000 N.4       4 LYS4        0.0000 
     54 NZ         30.2100    3.6400  -18.3200 N.4       4 LYS4        0.0000 
     55 NZ         32.1300    4.3200  -17.7300 N.4       4 LYS4        0.0000 
     56 NZ         28.8800    7.0300  -10.2200 N.4       4 LYS4        0.0000 
     57 CZ         23.4400   -1.6300  -13.0500 C.ar      5 PHE5        0.0000 
     58 CZ         23.8200   -3.0300  -12.6800 C.ar      5 PHE5        0.0000 
     59 CZ         25.1400   -2.8500  -13.3700 C.ar      5 PHE5        0.0000 
     60 CZ         26.0800   -1.2700  -14.4400 C.ar      5 PHE5        0.0000 
     61 CZ         26.4600   -2.6700  -14.0600 C.ar      5 PHE5        0.0000 
     62 CZ         27.4000   -1.1000  -15.1300 C.ar      5 PHE5        0.0000 
     63 CZ         28.3300    0.4800  -16.1900 C.ar      5 PHE5        0.0000 
     64 CZ         28.7200   -0.9200  -15.8200 C.ar      5 PHE5        0.0000 
     65 CZ         29.1000   -2.3200  -15.4500 C.ar      5 PHE5        0.0000 
     66 CZ         28.8900    3.4600  -17.6300 C.ar      5 PHE5        0.0000 
     67 CZ         29.2700    2.0600  -17.2500 C.ar      5 PHE5        0.0000 
     68 CZ         29.6500    0.6600  -16.8800 C.ar      5 PHE5        0.0000 
     69 CZ         24.9800    0.4600  -12.8400 C.ar      5 PHE5        0.0000 
     70 CZ         25.7400   -2.3500  -12.1000 C.ar      5 PHE5        0.0000 
     71 CZ         26.3000    0.6300  -13.5300 C.ar      5 PHE5        0.0000 
     72 CZ         26.8500    3.6100  -14.9600 C.ar      5 PHE5        0.0000 
     73 CZ         27.2400    2.2100  -14.5900 C.ar      5 PHE5        0.0000 
     74 CZ         28.1700    3.7900  -15.6600 C.ar      5 PHE5        0.0000 
     75 CZ         28.5500    2.3900  -15.2800 C.ar      5 PHE5        0.0000 
     76 CZ         28.6600    5.1200  -11.1300 C.ar      5 PHE5        0.0000 
     77 CA         21.4200    2.6500  -19.0700 C.3       6 GLY6        0.0000 
     78 CA         22.7400    2.8300  -19.7600 C.3       6 GLY6        0.0000 
     79 CA         20.9200    4.8800  -16.1900 C.3       6 GLY6        0.0000 
     80 CA         21.5300    5.3800  -14.9100 C.3       6 GLY6        0.0000 
     81 CA         30.0400   -0.7400  -16.5100 C.3       6 GLY6        0.0000 
     82 CA         29.3200   -0.4200  -14.5400 C.3       6 GLY6        0.0000 
     83 CA         30.6400   -0.2400  -15.2300 C.3       6 GLY6        0.0000 
     84 CA         31.9600   -0.0600  -15.9200 C.3       6 GLY6        0.0000 
     85 CA         31.2400    0.2600  -13.9500 C.3       6 GLY6        0.0000 
     86 CA         32.5600    0.4400  -14.6500 C.3       6 GLY6        0.0000 
     87 CA         30.3100    6.3800  -14.1600 C.3       6 GLY6        0.0000 
     88 CA         32.7800    2.3500  -13.7400 C.3       6 GLY6        0.0000 
     89 CA         29.6000    6.7000  -12.1900 C.3       6 GLY6        0.0000 
     90 CA         31.3000    5.4800  -12.5100 C.3       6 GLY6        0.0000 
     91 CA         29.2600    5.6300   -9.8500 C.3       6 GLY6        0.0000 
     92 CA         30.2000    7.2100  -10.9200 C.3       6 GLY6        0.0000 
     93 CA         30.5800    5.8000  -10.5400 C.3       6 GLY6        0.0000 
     94 CA         29.8700    6.1300   -8.5700 C.3       6 GLY6        0.0000 
     95 CA         31.1800    6.3100   -9.2700 C.3       6 GLY6        0.0000 
     96 CA         32.5000    6.4800   -9.9600 C.3       6 GLY6        0.0000 
     97 DU         21.6400    4.5500  -18.1600 H         7 CUB7        0.0000 
     98 DU         22.2400    5.0600  -16.8800 H         7 CUB7        0.0000 
     99 DU         23.5600    5.2300  -17.5700 H         7 CUB7        0.0000 
    100 DU         24.7600   -1.4500  -13.7400 H         7 CUB7        0.0000 
    101 DU         25.8700    4.5100  -16.6100 H         7 CUB7        0.0000 
    102 DU         27.7900    5.1900  -16.0300 H         7 CUB7        0.0000 
    103 DU         28.9400    0.9900  -14.9100 H         7 CUB7        0.0000 
    104 DU         29.1100    5.3700  -16.7200 H         7 CUB7        0.0000 
    105 DU         29.8700    2.5700  -15.9800 H         7 CUB7        0.0000 
    106 DU         30.2600    1.1600  -15.6000 H         7 CUB7        0.0000 
    107 DU         30.8100    4.1400  -17.0400 H         7 CUB7        0.0000 
    108 DU         29.7100    5.8700  -15.4400 H         7 CUB7        0.0000 
    109 DU         30.0900    4.4700  -15.0700 H         7 CUB7        0.0000 
    110 DU         30.4800    3.0700  -14.7000 H         7 CUB7        0.0000 
    111 DU         30.8600    1.6700  -14.3300 H         7 CUB7        0.0000 
@<TRIPOS>BOND
@<TRIPOS>SUBSTRUCTURE
     1 SER1        1 GROUP   
     2 ALA2       12 GROUP   
     3 ASP3       35 GROUP   
     4 LYS4       48 GROUP   
     5 PHE5       57 GROUP   
     6 GLY6       77 GROUP   
     7 CUB7       97 GROUP   
@<TRIPOS>SET

