#    Name: 6a6u_1_FSA
#    Modification time : Fri May 22 19:25:07 2020

@<TRIPOS>MOLECULE
6a6u_1_FSA
   16    16     1     0     0
SMALL
NO_CHARGES


@<TRIPOS>ATOM
      1 OAB        29.5740    1.7900  -11.8200 O.co2     1 FSA502      0.0000 
      2 CAL        30.3060    1.1440  -12.6070 C.2       1 FSA502      0.0000 
      3 OAA        31.4780    1.4490  -12.9360 O.co2     1 FSA502      0.0000 
      4 CAH        29.7090   -0.1280  -13.2340 C.3       1 FSA502      0.0000 
      5 SAK        28.0090   -0.4040  -12.5980 S.3       1 FSA502      0.0000 
      6 CAI        27.5010   -1.9250  -13.5020 C.3       1 FSA502      0.0000 
      7 CAP        25.9700   -2.0760  -13.4230 C.3       1 FSA502      0.0000 
      8 OAF        25.5920   -3.3620  -13.9210 O.3       1 FSA502      0.0000 
      9 CAO        25.2840   -0.9660  -14.2130 C.3       1 FSA502      0.0000 
     10 OAE        25.7040   -1.0490  -15.6070 O.3       1 FSA502      0.0000 
     11 CAN        23.7860   -1.0840  -14.1150 C.3       1 FSA502      0.0000 
     12 OAD        23.2350    0.0470  -14.8170 O.3       1 FSA502      0.0000 
     13 CAM        23.4110   -0.9920  -12.6500 C.3       1 FSA502      0.0000 
     14 OAC        23.8610    0.2810  -12.1230 O.3       1 FSA502      0.0000 
     15 CAG        24.0870   -2.1160  -11.8850 C.3       1 FSA502      0.0000 
     16 OAJ        25.5450   -1.9900  -12.0410 O.3       1 FSA502      0.0000 
@<TRIPOS>BOND
     1    1    2 ar   
     2    2    3 ar   
     3    2    4 1    
     4    4    5 1    
     5    5    6 1    
     6    6    7 1    
     7    7    8 1    
     8    7    9 1    
     9    7   16 1    
    10    9   10 1    
    11    9   11 1    
    12   11   12 1    
    13   11   13 1    
    14   13   14 1    
    15   13   15 1    
    16   15   16 1    
@<TRIPOS>SUBSTRUCTURE
     1 FSA502      1 GROUP   
@<TRIPOS>SET

