#    Name: 6a6u_1_FSA_CAVITY_N1_4
#    Modification time : Fri May 22 19:25:09 2020

@<TRIPOS>MOLECULE
6a6u_1_FSA_CAVITY_N1_4
   63     0     7     0     0
SMALL
NO_CHARGES


@<TRIPOS>ATOM
      1 OG         27.9500    1.8900  -16.5600 O.3       1 SER1        0.0000 
      2 OG         27.6200    0.8100  -14.2200 O.3       1 SER1        0.0000 
      3 OG         28.6000   -0.0900  -12.5700 O.3       1 SER1        0.0000 
      4 OG         28.7700    4.2900  -14.3800 O.3       1 SER1        0.0000 
      5 OG         29.1600    2.8900  -14.0100 O.3       1 SER1        0.0000 
      6 OG         29.5400    1.4900  -13.6300 O.3       1 SER1        0.0000 
      7 OG         29.3800    4.8000  -13.1000 O.3       1 SER1        0.0000 
      8 OG         29.7600    3.3900  -12.7300 O.3       1 SER1        0.0000 
      9 N          24.0400   -1.1200  -11.7800 N.am      2 ALA2        0.0000 
     10 N          25.3600   -0.9500  -12.4700 N.am      2 ALA2        0.0000 
     11 N          26.6800   -0.7700  -13.1600 N.am      2 ALA2        0.0000 
     12 N          27.0600   -2.1700  -12.7900 N.am      2 ALA2        0.0000 
     13 N          28.0000   -0.5900  -13.8500 N.am      2 ALA2        0.0000 
     14 N          28.3800   -1.9900  -13.4800 N.am      2 ALA2        0.0000 
     15 N          29.7000   -1.8200  -14.1700 N.am      2 ALA2        0.0000 
     16 O          31.1900    2.7400  -16.6700 O.2       2 ALA2        0.0000 
     17 O          31.5800    1.3400  -16.3000 O.2       2 ALA2        0.0000 
     18 N          29.9200    0.0900  -13.2600 N.am      2 ALA2        0.0000 
     19 N          31.8000    3.2500  -15.3900 N.am      2 ALA2        0.0000 
     20 N          32.1800    1.8400  -15.0200 N.am      2 ALA2        0.0000 
     21 N          30.7000    4.9700  -13.7900 N.am      2 ALA2        0.0000 
     22 N          32.4000    3.7500  -14.1100 N.am      2 ALA2        0.0000 
     23 N          33.7200    3.9300  -14.8000 N.am      2 ALA2        0.0000 
     24 OD1        30.1400    1.9900  -12.3600 O.co2     3 ASP3        0.0000 
     25 OD1        31.0800    3.5700  -13.4200 O.co2     3 ASP3        0.0000 
     26 OD1        31.4600    2.1700  -13.0500 O.co2     3 ASP3        0.0000 
     27 OD1        31.8400    0.7700  -12.6800 O.co2     3 ASP3        0.0000 
     28 OD1        29.9800    5.3000  -11.8200 O.co2     3 ASP3        0.0000 
     29 OD1        31.6800    4.0700  -12.1400 O.co2     3 ASP3        0.0000 
     30 NZ         25.4800   -1.7800  -15.7100 N.4       4 LYS4        0.0000 
     31 NZ         24.3800   -0.0500  -14.1200 N.4       4 LYS4        0.0000 
     32 NZ         25.7000    0.1300  -14.8100 N.4       4 LYS4        0.0000 
     33 NZ         27.0200    0.3100  -15.5000 N.4       4 LYS4        0.0000 
     34 CZ         23.4400   -1.6300  -13.0500 C.ar      5 PHE5        0.0000 
     35 CZ         23.8200   -3.0300  -12.6800 C.ar      5 PHE5        0.0000 
     36 CZ         25.1400   -2.8500  -13.3700 C.ar      5 PHE5        0.0000 
     37 CZ         26.0800   -1.2700  -14.4400 C.ar      5 PHE5        0.0000 
     38 CZ         26.4600   -2.6700  -14.0600 C.ar      5 PHE5        0.0000 
     39 CZ         27.4000   -1.1000  -15.1300 C.ar      5 PHE5        0.0000 
     40 CZ         28.3300    0.4800  -16.1900 C.ar      5 PHE5        0.0000 
     41 CZ         28.7200   -0.9200  -15.8200 C.ar      5 PHE5        0.0000 
     42 CZ         29.1000   -2.3200  -15.4500 C.ar      5 PHE5        0.0000 
     43 CZ         29.6500    0.6600  -16.8800 C.ar      5 PHE5        0.0000 
     44 CZ         24.9800    0.4600  -12.8400 C.ar      5 PHE5        0.0000 
     45 CZ         25.7400   -2.3500  -12.1000 C.ar      5 PHE5        0.0000 
     46 CZ         26.3000    0.6300  -13.5300 C.ar      5 PHE5        0.0000 
     47 CZ         27.2400    2.2100  -14.5900 C.ar      5 PHE5        0.0000 
     48 CZ         28.5500    2.3900  -15.2800 C.ar      5 PHE5        0.0000 
     49 CZ         28.6600    5.1200  -11.1300 C.ar      5 PHE5        0.0000 
     50 CA         30.0400   -0.7400  -16.5100 C.3       6 GLY6        0.0000 
     51 CA         29.3200   -0.4200  -14.5400 C.3       6 GLY6        0.0000 
     52 CA         30.6400   -0.2400  -15.2300 C.3       6 GLY6        0.0000 
     53 CA         31.9600   -0.0600  -15.9200 C.3       6 GLY6        0.0000 
     54 CA         31.2400    0.2600  -13.9500 C.3       6 GLY6        0.0000 
     55 CA         32.5600    0.4400  -14.6500 C.3       6 GLY6        0.0000 
     56 CA         32.7800    2.3500  -13.7400 C.3       6 GLY6        0.0000 
     57 DU         24.7600   -1.4500  -13.7400 H         7 CUB7        0.0000 
     58 DU         28.9400    0.9900  -14.9100 H         7 CUB7        0.0000 
     59 DU         29.8700    2.5700  -15.9800 H         7 CUB7        0.0000 
     60 DU         30.2600    1.1600  -15.6000 H         7 CUB7        0.0000 
     61 DU         30.0900    4.4700  -15.0700 H         7 CUB7        0.0000 
     62 DU         30.4800    3.0700  -14.7000 H         7 CUB7        0.0000 
     63 DU         30.8600    1.6700  -14.3300 H         7 CUB7        0.0000 
@<TRIPOS>BOND
@<TRIPOS>SUBSTRUCTURE
     1 SER1        1 GROUP   
     2 ALA2        9 GROUP   
     3 ASP3       24 GROUP   
     4 LYS4       30 GROUP   
     5 PHE5       34 GROUP   
     6 GLY6       50 GROUP   
     7 CUB7       57 GROUP   
@<TRIPOS>SET

