#    Name: 5yw7_1_GBM
#    Modification time : Fri May 22 19:28:33 2020

@<TRIPOS>MOLECULE
5yw7_1_GBM
   33    35     1     0     0
SMALL
NO_CHARGES


@<TRIPOS>ATOM
      1 O3        198.2750  215.9200  177.5940           1 GBM2001     0.0000 
      2 O4        200.0680  216.7470  179.5330           1 GBM2001     0.0000 
      3 O5        201.7010  218.1470  178.6530           1 GBM2001     0.0000 
      4 O6        199.7000  221.6470  181.7470           1 GBM2001     0.0000 
      5 CL1       197.4290  224.2340  187.0560           1 GBM2001     0.0000 
      6 S2        200.3180  217.7620  178.5430           1 GBM2001     0.0000 
      7 O7        200.9900  220.6140  183.9020           1 GBM2001     0.0000 
      8 N8        198.7500  216.1610  175.4580           1 GBM2001     0.0000 
      9 N9        200.0350  217.2000  177.0560           1 GBM2001     0.0000 
     10 N10       197.9480  223.0260  181.9400           1 GBM2001     0.0000 
     11 C11       199.3980  216.8540  174.3690           1 GBM2001     0.0000 
     12 C12       198.6550  218.1570  174.1160           1 GBM2001     0.0000 
     13 C13       199.3190  215.9640  173.1370           1 GBM2001     0.0000 
     14 C14       199.1710  218.8620  172.8720           1 GBM2001     0.0000 
     15 C15       199.8030  216.6730  171.8790           1 GBM2001     0.0000 
     16 C16       199.0210  217.9580  171.6570           1 GBM2001     0.0000 
     17 C17       198.9970  216.4130  176.7410           1 GBM2001     0.0000 
     18 C18       199.3990  219.0380  178.8570           1 GBM2001     0.0000 
     19 C19       197.7940  221.2360  179.4310           1 GBM2001     0.0000 
     20 C20       196.9220  222.4200  179.7700           1 GBM2001     0.0000 
     21 C21       199.5140  220.2060  178.1060           1 GBM2001     0.0000 
     22 C22       198.4820  218.9800  179.9000           1 GBM2001     0.0000 
     23 C23       198.7130  221.3060  178.3920           1 GBM2001     0.0000 
     24 C24       197.6820  220.0760  180.1860           1 GBM2001     0.0000 
     25 C25       196.7760  222.4670  181.2880           1 GBM2001     0.0000 
     26 C26       198.9400  222.2910  182.4480           1 GBM2001     0.0000 
     27 C27       199.1370  222.2960  183.9340           1 GBM2001     0.0000 
     28 C28       200.1630  221.4510  184.6060           1 GBM2001     0.0000 
     29 C29       198.3340  223.1220  184.7060           1 GBM2001     0.0000 
     30 C30       200.2800  221.5210  185.9880           1 GBM2001     0.0000 
     31 C31       198.4880  223.1550  186.0860           1 GBM2001     0.0000 
     32 C32       199.4470  222.3650  186.7170           1 GBM2001     0.0000 
     33 C33       202.3280  221.0040  183.5950           1 GBM2001     0.0000 
@<TRIPOS>BOND
     1    1   17 du   
     2    2    6 du   
     3    3    6 du   
     4    4   26 du   
     5    5   31 du   
     6    6    9 du   
     7    6   18 du   
     8    7   28 du   
     9    7   33 du   
    10    8   11 du   
    11    8   17 du   
    12    9   17 du   
    13   10   25 du   
    14   10   26 du   
    15   11   12 du   
    16   11   13 du   
    17   12   14 du   
    18   13   15 du   
    19   14   16 du   
    20   15   16 du   
    21   18   21 du   
    22   18   22 du   
    23   19   20 du   
    24   19   23 du   
    25   19   24 du   
    26   20   25 du   
    27   21   23 du   
    28   22   24 du   
    29   26   27 du   
    30   27   28 du   
    31   27   29 du   
    32   28   30 du   
    33   29   31 du   
    34   30   32 du   
    35   31   32 du   
@<TRIPOS>SUBSTRUCTURE
     1 GBM2001     1 GROUP   
@<TRIPOS>SET

