#    Name: 6bvs_1_4AA
#    Modification time : Fri May 22 19:27:18 2020

@<TRIPOS>MOLECULE
6bvs_1_4AA
   12    12     1     0     0
SMALL
NO_CHARGES


@<TRIPOS>ATOM
      1 OAB         6.1810   25.5700    6.5480 O.co2     1 4AA401      0.0000 
      2 CAH         6.9140   25.8770    5.5590 C.2       1 4AA401      0.0000 
      3 OAC         6.4360   25.9660    4.3700 O.co2     1 4AA401      0.0000 
      4 CAL         8.4100   26.1000    5.8350 C.ar      1 4AA401      0.0000 
      5 CAG         9.1050   27.1940    5.3230 C.ar      1 4AA401      0.0000 
      6 CAF        10.4590   27.3530    5.6070 C.ar      1 4AA401      0.0000 
      7 CAJ        11.1220   26.4190    6.4020 C.ar      1 4AA401      0.0000 
      8 CLAE       12.8670   26.5950    6.7800 Cl        1 4AA401      0.0000 
      9 CAK        10.4280   25.3280    6.9060 C.ar      1 4AA401      0.0000 
     10 OAD        11.0990   24.3680    7.6810 O.3       1 4AA401      0.0000 
     11 CAI         9.0770   25.1750    6.6280 C.ar      1 4AA401      0.0000 
     12 NAA         8.3570   24.0290    7.1530 N.pl3     1 4AA401      0.0000 
@<TRIPOS>BOND
     1    1    2 ar   
     2    2    3 ar   
     3    2    4 1    
     4    4    5 ar   
     5    4   11 ar   
     6    5    6 ar   
     7    6    7 ar   
     8    7    8 1    
     9    7    9 ar   
    10    9   10 1    
    11    9   11 ar   
    12   11   12 1    
@<TRIPOS>SUBSTRUCTURE
     1 4AA401      1 GROUP   
@<TRIPOS>SET

