#    Name: 6dgz_1_A60
#    Modification time : Fri May 22 19:34:24 2020

@<TRIPOS>MOLECULE
6dgz_1_A60
   81    84     1     0     0
SMALL
NO_CHARGES


@<TRIPOS>ATOM
      1 N1         65.4310   51.9700   12.5080 N.pl3     1 A60102      0.0000 
      2 C2         66.3770   52.6150   13.3670 C.ar      1 A60102      0.0000 
      3 C3         67.5810   51.8080   13.9100 C.ar      1 A60102      0.0000 
      4 C4         68.5850   52.4870   14.8230 C.ar      1 A60102      0.0000 
      5 C5         68.3640   53.9600   15.1990 C.ar      1 A60102      0.0000 
      6 C6         67.1750   54.7660   14.6660 C.ar      1 A60102      0.0000 
      7 C7         66.1620   54.0790   13.7480 C.ar      1 A60102      0.0000 
      8 S8         69.5600   54.8050   16.2850 S.o2      1 A60102      0.0000 
      9 O9         68.9100   55.8490   17.0500 O.2       1 A60102      0.0000 
     10 O10        70.1270   53.9200   17.2810 O.2       1 A60102      0.0000 
     11 N11        70.7940   55.3890   15.2620 N.pl3     1 A60102      0.0000 
     12 C12        71.4440   54.3510   14.4570 C.3       1 A60102      0.0000 
     13 C13        73.0250   54.5440   14.4640 C.3       1 A60102      0.0000 
     14 C14        73.6950   53.5380   13.4670 C.3       1 A60102      0.0000 
     15 C15        73.5260   54.4290   15.9150 C.3       1 A60102      0.0000 
     16 C16        70.5000   56.7070   14.6170 C.3       1 A60102      0.0000 
     17 C17        71.4460   57.7970   15.2080 C.3       1 A60102      0.0000 
     18 C18        75.0640   54.6430   16.0110 C.3       1 A60102      0.0000 
     19 O18        71.3240   58.9420   14.4470 O.3       1 A60102      0.0000 
     20 C19        71.0620   58.1260   16.6430 C.3       1 A60102      0.0000 
     21 C20        73.4980   52.0590   13.8620 C.3       1 A60102      0.0000 
     22 N20        72.0440   59.0990   17.1390 N.am      1 A60102      0.0000 
     23 C21        73.1150   58.7220   18.0890 C.2       1 A60102      0.0000 
     24 O22        73.1590   57.6580   18.6160 O.2       1 A60102      0.0000 
     25 O23        74.0660   59.7570   18.3020 O.3       1 A60102      0.0000 
     26 C24        74.9970   59.5950   19.4700 C.3       1 A60102      0.0000 
     27 C25        76.1410   60.0260   19.1250 C.3       1 A60102      0.0000 
     28 O26        75.9040   61.6470   19.0620 O.3       1 A60102      0.0000 
     29 C27        75.1700   61.9260   20.0940 C.3       1 A60102      0.0000 
     30 O28        73.9430   62.8430   19.7120 O.3       1 A60102      0.0000 
     31 C29        72.8920   62.0550   19.6450 C.3       1 A60102      0.0000 
     32 C30        73.2250   60.7950   20.6240 C.3       1 A60102      0.0000 
     33 C31        74.5620   60.5950   20.5770 C.3       1 A60102      0.0000 
     34 C32        69.7140   58.7990   16.7240 C.3       1 A60102      0.0000 
     35 C33        69.5600   60.7960   18.4750 C.ar      1 A60102      0.0000 
     36 C34        69.3640   61.2940   19.9160 C.ar      1 A60102      0.0000 
     37 C35        69.1140   60.2900   21.0680 C.ar      1 A60102      0.0000 
     38 C36        69.0710   58.7820   20.7720 C.ar      1 A60102      0.0000 
     39 C37        69.2610   58.2800   19.3290 C.ar      1 A60102      0.0000 
     40 C38        69.5090   59.2960   18.1800 C.ar      1 A60102      0.0000 
     41 HN1        64.5980   51.9540   12.7220 H         1 A60102      0.0000 
     42 HN1A       65.6950   51.5980   11.7790 H         1 A60102      0.0000 
     43 H3         67.6940   50.9170   13.6710 H         1 A60102      0.0000 
     44 H4         69.3170   52.0190   15.1540 H         1 A60102      0.0000 
     45 H6         67.0650   55.6580   14.9050 H         1 A60102      0.0000 
     46 H7         65.4320   54.5500   13.4140 H         1 A60102      0.0000 
     47 H12        71.1190   54.4040   13.5450 H         1 A60102      0.0000 
     48 H12A       71.2260   53.4790   14.8240 H         1 A60102      0.0000 
     49 H13        73.2180   55.4430   14.1530 H         1 A60102      0.0000 
     50 H14        74.6460   53.7250   13.4300 H         1 A60102      0.0000 
     51 H14A       73.3150   53.6750   12.5860 H         1 A60102      0.0000 
     52 H15        73.3070   53.5480   16.2560 H         1 A60102      0.0000 
     53 H15A       73.0800   55.0980   16.4580 H         1 A60102      0.0000 
     54 H16        70.6430   56.6400   13.6600 H         1 A60102      0.0000 
     55 H16A       69.5770   56.9520   14.7900 H         1 A60102      0.0000 
     56 H17        72.3630   57.4830   15.1790 H         1 A60102      0.0000 
     57 H18        75.3490   54.5290   16.9310 H         1 A60102      0.0000 
     58 H18A       75.2850   55.5390   15.7130 H         1 A60102      0.0000 
     59 H18B       75.5170   53.9940   15.4500 H         1 A60102      0.0000 
     60 HO18       72.0110   59.4300   14.5580 H         1 A60102      0.0000 
     61 H19        71.0740   57.3240   17.1890 H         1 A60102      0.0000 
     62 H20        72.6810   51.7240   13.4610 H         1 A60102      0.0000 
     63 H20A       74.2520   51.5370   13.5460 H         1 A60102      0.0000 
     64 H20B       73.4390   51.9880   14.8280 H         1 A60102      0.0000 
     65 HN20       71.9950   59.9140   16.8690 H         1 A60102      0.0000 
     66 H24        75.0330   58.6820   19.7950 H         1 A60102      0.0000 
     67 H25        76.8180   59.8020   19.7820 H         1 A60102      0.0000 
     68 H25A       76.3820   59.6850   18.2500 H         1 A60102      0.0000 
     69 H27        75.7020   62.3350   20.7950 H         1 A60102      0.0000 
     70 H29        72.1030   62.5230   19.9590 H         1 A60102      0.0000 
     71 H29A       72.7660   61.7440   18.7350 H         1 A60102      0.0000 
     72 H30        72.7620   60.0030   20.3100 H         1 A60102      0.0000 
     73 H30A       72.9560   61.0050   21.5320 H         1 A60102      0.0000 
     74 H31        74.9140   60.3410   21.4450 H         1 A60102      0.0000 
     75 H32        69.0160   58.1660   16.4940 H         1 A60102      0.0000 
     76 H32A       69.6870   59.5530   16.1140 H         1 A60102      0.0000 
     77 H33        69.7080   61.4030   17.7860 H         1 A60102      0.0000 
     78 H34        69.3920   62.2050   20.0960 H         1 A60102      0.0000 
     79 H35        68.9970   60.5970   21.9380 H         1 A60102      0.0000 
     80 H36        68.9180   58.1760   21.4610 H         1 A60102      0.0000 
     81 H37        69.2350   57.3680   19.1460 H         1 A60102      0.0000 
@<TRIPOS>BOND
     1    1    2 1    
     2    2    3 ar   
     3    1   41 1    
     4    1   42 1    
     5    2    7 ar   
     6    3    4 ar   
     7    4    5 ar   
     8    3   43 1    
     9    5    6 ar   
    10    4   44 1    
    11    5    8 1    
    12    6    7 ar   
    13    8    9 2    
    14    6   45 1    
    15    7   46 1    
    16    8   10 2    
    17    8   11 1    
    18   11   12 1    
    19   11   16 1    
    20   12   13 1    
    21   12   47 1    
    22   12   48 1    
    23   13   14 1    
    24   13   15 1    
    25   13   49 1    
    26   14   21 1    
    27   14   50 1    
    28   14   51 1    
    29   15   18 1    
    30   15   52 1    
    31   15   53 1    
    32   16   17 1    
    33   16   54 1    
    34   16   55 1    
    35   17   19 1    
    36   17   20 1    
    37   17   56 1    
    38   19   60 1    
    39   18   57 1    
    40   18   58 1    
    41   18   59 1    
    42   20   22 1    
    43   20   34 1    
    44   20   61 1    
    45   21   62 1    
    46   21   63 1    
    47   21   64 1    
    48   22   23 am   
    49   23   24 2    
    50   22   65 1    
    51   23   25 1    
    52   25   26 1    
    53   26   27 1    
    54   26   33 1    
    55   26   66 1    
    56   27   67 1    
    57   27   68 1    
    58   27   28 1    
    59   28   29 1    
    60   29   30 1    
    61   29   33 1    
    62   29   69 1    
    63   30   31 1    
    64   31   32 1    
    65   31   70 1    
    66   31   71 1    
    67   32   33 1    
    68   32   72 1    
    69   32   73 1    
    70   33   74 1    
    71   34   40 1    
    72   34   75 1    
    73   34   76 1    
    74   35   36 ar   
    75   35   40 ar   
    76   36   37 ar   
    77   35   77 1    
    78   37   38 ar   
    79   36   78 1    
    80   38   39 ar   
    81   37   79 1    
    82   39   40 ar   
    83   38   80 1    
    84   39   81 1    
@<TRIPOS>SUBSTRUCTURE
     1 A60102      1 GROUP   
@<TRIPOS>SET

