#    Name: 6erg_2_LYS_PRO_ARG_GLY_LEU_PHE_SER
#    Modification time : Fri May 22 19:35:23 2020

@<TRIPOS>MOLECULE
6erg_2_LYS_PRO_ARG_GLY_LEU_PHE_SER
   61    62     7     0     0
SMALL
NO_CHARGES


@<TRIPOS>ATOM
      1 N          67.5950    0.0930  157.5000 N.4       1 LYS293      0.0000 
      2 CA         67.7110   -0.9410  156.4740 C.3       1 LYS293      0.0000 
      3 C          68.3300   -2.2450  157.0440 C.2       1 LYS293      0.0000 
      4 O          69.5520   -2.2950  157.2430 O.2       1 LYS293      0.0000 
      5 CB         68.5040   -0.4170  155.2630 C.3       1 LYS293      0.0000 
      6 CG         68.5590   -1.3990  154.1060 C.3       1 LYS293      0.0000 
      7 CD         69.1210   -0.7670  152.8470 C.3       1 LYS293      0.0000 
      8 CE         69.0980   -1.7560  151.7160 C.3       1 LYS293      0.0000 
      9 NZ         68.7570   -1.1160  150.4160 N.4       1 LYS293      0.0000 
     10 N          67.5160   -3.3070  157.2880 N.am      2 PRO294      0.0000 
     11 CA         68.0800   -4.5560  157.8380 C.3       2 PRO294      0.0000 
     12 C          68.9650   -5.3190  156.8560 C.2       2 PRO294      0.0000 
     13 O          68.6680   -5.3670  155.6590 O.2       2 PRO294      0.0000 
     14 CB         66.8420   -5.3740  158.2390 C.3       2 PRO294      0.0000 
     15 CG         65.6960   -4.4150  158.2010 C.3       2 PRO294      0.0000 
     16 CD         66.0540   -3.4190  157.1370 C.3       2 PRO294      0.0000 
     17 N          70.0590   -5.9020  157.3740 N.am      3 ARG295      0.0000 
     18 CA         71.0380   -6.6640  156.5960 C.3       3 ARG295      0.0000 
     19 C          71.4110   -7.9910  157.2510 C.2       3 ARG295      0.0000 
     20 O          71.3340   -8.1250  158.4740 O.2       3 ARG295      0.0000 
     21 CB         72.3220   -5.8400  156.3840 C.3       3 ARG295      0.0000 
     22 CG         72.2010   -4.7290  155.3580 C.3       3 ARG295      0.0000 
     23 CD         73.5630   -4.2300  154.8860 C.3       3 ARG295      0.0000 
     24 NE         74.2800   -3.4310  155.8890 N.pl3     3 ARG295      0.0000 
     25 CZ         74.1250   -2.1180  156.0640 C.cat     3 ARG295      0.0000 
     26 NH1        73.2170   -1.4490  155.3640 N.pl3     3 ARG295      0.0000 
     27 NH2        74.8550   -1.4730  156.9650 N.pl3     3 ARG295      0.0000 
     28 N          71.8500   -8.9330  156.4120 N.am      4 GLY296      0.0000 
     29 CA         72.3460  -10.2580  156.7770 C.3       4 GLY296      0.0000 
     30 C          71.5250  -11.0820  157.7440 C.2       4 GLY296      0.0000 
     31 O          70.6180  -11.8020  157.3220 O.2       4 GLY296      0.0000 
     32 N          71.8570  -11.0190  159.0470 N.am      5 LEU297      0.0000 
     33 CA         71.1700  -11.8120  160.0750 C.3       5 LEU297      0.0000 
     34 C          69.7540  -11.2990  160.3600 C.2       5 LEU297      0.0000 
     35 O          68.8520  -12.1060  160.6000 O.2       5 LEU297      0.0000 
     36 CB         71.9780  -11.8600  161.3930 C.3       5 LEU297      0.0000 
     37 CG         71.6710  -13.0220  162.3450 C.3       5 LEU297      0.0000 
     38 CD1        72.5810  -14.1850  162.0930 C.3       5 LEU297      0.0000 
     39 CD2        71.7810  -12.6000  163.7940 C.3       5 LEU297      0.0000 
     40 H          72.5860  -10.4120  159.4080 H         5 LEU297      0.0000 
     41 HA         71.0820  -12.8300  159.7040 H         5 LEU297      0.0000 
     42 N          69.5610   -9.9690  160.3310 N.am      6 PHE298      0.0000 
     43 CA         68.2750   -9.3310  160.6350 C.3       6 PHE298      0.0000 
     44 C          67.3300   -9.2240  159.4430 C.2       6 PHE298      0.0000 
     45 O          66.1110   -9.1910  159.6440 O.2       6 PHE298      0.0000 
     46 CB         68.5130   -7.9440  161.2640 C.3       6 PHE298      0.0000 
     47 CG         69.3270   -8.0100  162.5310 C.ar      6 PHE298      0.0000 
     48 CD1        68.7700   -8.4850  163.7070 C.ar      6 PHE298      0.0000 
     49 CD2        70.6550   -7.6060  162.5470 C.ar      6 PHE298      0.0000 
     50 CE1        69.5280   -8.5710  164.8760 C.ar      6 PHE298      0.0000 
     51 CE2        71.4060   -7.6780  163.7190 C.ar      6 PHE298      0.0000 
     52 CZ         70.8370   -8.1600  164.8760 C.ar      6 PHE298      0.0000 
     53 H          70.2900   -9.3070  160.0840 H         6 PHE298      0.0000 
     54 HA         67.7620   -9.9290  161.3860 H         6 PHE298      0.0000 
     55 N          67.8670   -9.1680  158.2100 N.am      7 SER299      0.0000 
     56 CA         67.0570   -9.0610  156.9900 C.3       7 SER299      0.0000 
     57 C          66.2040  -10.3110  156.7300 C.2       7 SER299      0.0000 
     58 O          66.6400  -11.4290  157.0890 O.2       7 SER299      0.0000 
     59 CB         67.9200   -8.7190  155.7740 C.3       7 SER299      0.0000 
     60 OG         68.6660   -9.8240  155.2880 O.3       7 SER299      0.0000 
     61 OXT        65.0980  -10.1520  156.1790 O.3       7 SER299      0.0000 
@<TRIPOS>BOND
     1    1    2 1    
     2    2    3 1    
     3    2    5 1    
     4    3    4 2    
     5    3   10 am   
     6    5    6 1    
     7    6    7 1    
     8    7    8 1    
     9    8    9 1    
    10   10   11 1    
    11   10   16 1    
    12   11   12 1    
    13   11   14 1    
    14   12   17 am   
    15   12   13 2    
    16   14   15 1    
    17   15   16 1    
    18   17   18 1    
    19   18   19 1    
    20   18   21 1    
    21   19   20 2    
    22   19   28 am   
    23   21   22 1    
    24   22   23 1    
    25   23   24 1    
    26   24   25 ar   
    27   25   26 ar   
    28   25   27 ar   
    29   28   29 1    
    30   29   30 1    
    31   30   31 2    
    32   30   32 am   
    33   32   33 1    
    34   32   40 1    
    35   33   34 1    
    36   33   36 1    
    37   33   41 1    
    38   34   35 2    
    39   34   42 am   
    40   36   37 1    
    41   37   38 1    
    42   37   39 1    
    43   42   43 1    
    44   42   53 1    
    45   43   44 1    
    46   43   46 1    
    47   43   54 1    
    48   44   45 2    
    49   44   55 am   
    50   46   47 1    
    51   47   48 ar   
    52   47   49 ar   
    53   48   50 ar   
    54   49   51 ar   
    55   50   52 ar   
    56   51   52 ar   
    57   55   56 1    
    58   56   57 1    
    59   56   59 1    
    60   57   58 2    
    61   57   61 1    
    62   59   60 1    
@<TRIPOS>SUBSTRUCTURE
     1 LYS293      1 RESIDUE 
     2 PRO294     10 RESIDUE 
     3 ARG295     17 RESIDUE 
     4 GLY296     28 RESIDUE 
     5 LEU297     32 RESIDUE 
     6 PHE298     42 RESIDUE 
     7 SER299     55 RESIDUE 
@<TRIPOS>SET

