#    Name: 6erg_1_LYS_PRO_ARG_GLY_LEU_PHE_SER_CAVITY_N1_4
#    Modification time : Fri May 22 19:35:12 2020

@<TRIPOS>MOLECULE
6erg_1_LYS_PRO_ARG_GLY_LEU_PHE_SER_CAVITY_N1_4
   89     0     7     0     0
SMALL
NO_CHARGES


@<TRIPOS>ATOM
      1 OG        -38.4300   -7.8200  203.8000 O.3       1 SER1        0.0000 
      2 OG        -38.6200  -12.6800  209.3200 O.3       1 SER1        0.0000 
      3 OG        -37.6100  -13.9400  210.6800 O.3       1 SER1        0.0000 
      4 OG        -37.5400  -12.4800  210.3400 O.3       1 SER1        0.0000 
      5 N         -39.7100  -12.3900  203.8200 N.am      2 ALA2        0.0000 
      6 N         -39.6500  -10.9300  203.4700 N.am      2 ALA2        0.0000 
      7 N         -38.6300  -12.2000  204.8400 N.am      2 ALA2        0.0000 
      8 N         -38.5700  -10.7400  204.4900 N.am      2 ALA2        0.0000 
      9 O         -38.5000   -9.2800  204.1500 O.2       2 ALA2        0.0000 
     10 N         -38.5900  -11.7100  206.9000 N.am      2 ALA2        0.0000 
     11 N         -39.6300  -11.4100  207.9500 N.am      2 ALA2        0.0000 
     12 O         -34.5300  -15.3200  205.5000 O.2       2 ALA2        0.0000 
     13 OD1       -36.2900   -6.9600  201.3700 O.co2     3 ASP3        0.0000 
     14 OD1       -37.3300   -6.6600  202.4100 O.co2     3 ASP3        0.0000 
     15 OD1       -33.4200  -14.1500  204.1100 O.co2     3 ASP3        0.0000 
     16 OD1       -34.4000  -12.4000  204.8000 O.co2     3 ASP3        0.0000 
     17 OD1       -33.3800  -13.6600  206.1700 O.co2     3 ASP3        0.0000 
     18 OD1       -34.4900  -14.8300  207.5600 O.co2     3 ASP3        0.0000 
     19 OD1       -35.5300  -14.5300  208.6000 O.co2     3 ASP3        0.0000 
     20 OD1       -34.4500  -14.3400  209.6300 O.co2     3 ASP3        0.0000 
     21 NZ        -39.7400  -13.3600  206.2300 N.4       4 LYS4        0.0000 
     22 NZ        -40.7800  -13.0600  207.2700 N.4       4 LYS4        0.0000 
     23 NZ        -35.5900  -15.9900  208.9500 N.4       4 LYS4        0.0000 
     24 NZ        -36.6300  -15.6900  209.9900 N.4       4 LYS4        0.0000 
     25 NZ        -36.5700  -14.2400  209.6400 N.4       4 LYS4        0.0000 
     26 NZ        -35.4900  -14.0400  210.6700 N.4       4 LYS4        0.0000 
     27 CZ        -39.8000  -13.3700  199.6900 C.ar      5 PHE5        0.0000 
     28 CZ        -40.9000  -14.5300  201.0800 C.ar      5 PHE5        0.0000 
     29 CZ        -38.7200  -13.1700  200.7100 C.ar      5 PHE5        0.0000 
     30 CZ        -38.6500  -11.7200  200.3700 C.ar      5 PHE5        0.0000 
     31 CZ        -38.5800  -10.2600  200.0200 C.ar      5 PHE5        0.0000 
     32 CZ        -38.5100   -8.8000  199.6700 C.ar      5 PHE5        0.0000 
     33 CZ        -39.8900  -15.7900  202.4500 C.ar      5 PHE5        0.0000 
     34 CZ        -39.8200  -14.3400  202.1000 C.ar      5 PHE5        0.0000 
     35 CZ        -39.7500  -12.8800  201.7500 C.ar      5 PHE5        0.0000 
     36 CZ        -37.7000  -14.4400  202.0800 C.ar      5 PHE5        0.0000 
     37 CZ        -38.7400  -14.1400  203.1200 C.ar      5 PHE5        0.0000 
     38 CZ        -38.6700  -12.6900  202.7800 C.ar      5 PHE5        0.0000 
     39 CZ        -38.6100  -11.2300  202.4300 C.ar      5 PHE5        0.0000 
     40 CZ        -38.4700   -8.3100  201.7400 C.ar      5 PHE5        0.0000 
     41 CZ        -36.6200  -14.2400  203.1100 C.ar      5 PHE5        0.0000 
     42 CZ        -37.6600  -13.9500  204.1500 C.ar      5 PHE5        0.0000 
     43 CZ        -38.7000  -13.6500  205.1900 C.ar      5 PHE5        0.0000 
     44 CZ        -35.5400  -14.0500  204.1300 C.ar      5 PHE5        0.0000 
     45 CZ        -36.5800  -13.7600  205.1700 C.ar      5 PHE5        0.0000 
     46 CZ        -37.6200  -13.4600  206.2100 C.ar      5 PHE5        0.0000 
     47 CZ        -39.7700  -14.3300  208.6400 C.ar      5 PHE5        0.0000 
     48 CZ        -39.7000  -12.8700  208.2900 C.ar      5 PHE5        0.0000 
     49 CZ        -35.5000  -13.5600  206.1900 C.ar      5 PHE5        0.0000 
     50 CZ        -36.6700  -16.1800  207.9300 C.ar      5 PHE5        0.0000 
     51 CZ        -36.6100  -14.7200  207.5800 C.ar      5 PHE5        0.0000 
     52 CZ        -38.6900  -14.1300  209.6600 C.ar      5 PHE5        0.0000 
     53 CZ        -39.5900  -10.9200  210.0100 C.ar      5 PHE5        0.0000 
     54 CA        -39.8600  -14.8300  200.0400 C.3       6 GLY6        0.0000 
     55 CA        -37.6800  -13.4700  199.6700 C.3       6 GLY6        0.0000 
     56 CA        -37.6100  -12.0100  199.3300 C.3       6 GLY6        0.0000 
     57 CA        -37.5400  -10.5500  198.9800 C.3       6 GLY6        0.0000 
     58 CA        -38.7800  -14.6300  201.0600 C.3       6 GLY6        0.0000 
     59 CA        -36.4600  -10.3600  200.0000 C.3       6 GLY6        0.0000 
     60 CA        -37.6400  -12.9800  201.7400 C.3       6 GLY6        0.0000 
     61 CA        -37.5700  -11.5200  201.3900 C.3       6 GLY6        0.0000 
     62 CA        -37.5000  -10.0600  201.0400 C.3       6 GLY6        0.0000 
     63 CA        -37.4300   -8.6100  200.7000 C.3       6 GLY6        0.0000 
     64 CA        -39.7800  -13.8500  204.1600 C.3       6 GLY6        0.0000 
     65 CA        -35.3800  -10.1700  201.0200 C.3       6 GLY6        0.0000 
     66 CA        -36.5600  -12.7900  202.7600 C.3       6 GLY6        0.0000 
     67 CA        -36.4900  -11.3300  202.4100 C.3       6 GLY6        0.0000 
     68 CA        -36.4200   -9.8700  202.0700 C.3       6 GLY6        0.0000 
     69 CA        -36.3500   -8.4100  201.7200 C.3       6 GLY6        0.0000 
     70 CA        -34.5000  -14.3500  203.0900 C.3       6 GLY6        0.0000 
     71 CA        -34.4400  -12.8900  202.7400 C.3       6 GLY6        0.0000 
     72 CA        -35.4800  -12.5900  203.7800 C.3       6 GLY6        0.0000 
     73 CA        -35.4100  -11.1400  203.4300 C.3       6 GLY6        0.0000 
     74 CA        -38.7300  -14.6200  207.6000 C.3       6 GLY6        0.0000 
     75 CA        -37.7100  -15.8900  208.9700 C.3       6 GLY6        0.0000 
     76 CA        -37.6500  -14.4300  208.6200 C.3       6 GLY6        0.0000 
     77 CA        -36.5300  -13.7500  211.7100 C.3       6 GLY6        0.0000 
     78 DU        -38.5400   -9.7700  202.0800 H         7 CUB7        0.0000 
     79 DU        -37.5900  -12.4900  203.8000 H         7 CUB7        0.0000 
     80 DU        -37.5300  -11.0300  203.4500 H         7 CUB7        0.0000 
     81 DU        -37.4600   -9.5800  203.1100 H         7 CUB7        0.0000 
     82 DU        -37.3900   -8.1200  202.7600 H         7 CUB7        0.0000 
     83 DU        -36.5100  -12.3000  204.8200 H         7 CUB7        0.0000 
     84 DU        -37.5500  -12.0000  205.8600 H         7 CUB7        0.0000 
     85 DU        -38.6600  -13.1600  207.2500 H         7 CUB7        0.0000 
     86 DU        -34.4600  -13.8600  205.1500 H         7 CUB7        0.0000 
     87 DU        -36.5400  -13.2700  207.2300 H         7 CUB7        0.0000 
     88 DU        -37.5800  -12.9700  208.2700 H         7 CUB7        0.0000 
     89 DU        -36.5000  -12.7800  209.3000 H         7 CUB7        0.0000 
@<TRIPOS>BOND
@<TRIPOS>SUBSTRUCTURE
     1 SER1        1 GROUP   
     2 ALA2        5 GROUP   
     3 ASP3       13 GROUP   
     4 LYS4       21 GROUP   
     5 PHE5       27 GROUP   
     6 GLY6       54 GROUP   
     7 CUB7       78 GROUP   
@<TRIPOS>SET

