#    Name: 6erg_2_LYS_PRO_ARG_GLY_LEU_PHE_SER_CAVITY_N1_ALL
#    Modification time : Fri May 22 19:35:25 2020

@<TRIPOS>MOLECULE
6erg_2_LYS_PRO_ARG_GLY_LEU_PHE_SER_CAVITY_N1_ALL
  111     0     7     0     0
SMALL
NO_CHARGES


@<TRIPOS>ATOM
      1 OG         70.3000  -12.4000  153.6600 O.3       1 SER1        0.0000 
      2 OG         70.3600  -10.9500  153.3100 O.3       1 SER1        0.0000 
      3 OG         70.4300   -9.4900  152.9700 O.3       1 SER1        0.0000 
      4 OG         69.3300  -10.6500  154.3600 O.3       1 SER1        0.0000 
      5 OG         71.5100   -9.2900  153.9900 O.3       1 SER1        0.0000 
      6 OG         70.4100  -10.4600  155.3800 O.3       1 SER1        0.0000 
      7 OG         71.4900  -10.2600  156.4000 O.3       1 SER1        0.0000 
      8 OG         70.7000   -5.5800  162.9400 O.3       1 SER1        0.0000 
      9 N          67.1300  -11.5300  150.2500 N.am      2 ALA2        0.0000 
     10 O          67.1900  -10.0700  149.9000 O.2       2 ALA2        0.0000 
     11 N          68.0900  -14.7300  156.4400 N.am      2 ALA2        0.0000 
     12 O          67.1600  -12.4900  159.1900 O.2       2 ALA2        0.0000 
     13 N          65.2500   -8.4900  162.6500 N.am      2 ALA2        0.0000 
     14 N          72.5700  -10.0700  157.4200 N.am      2 ALA2        0.0000 
     15 N          71.4600  -11.2300  158.8100 N.am      2 ALA2        0.0000 
     16 N          71.5300   -9.7700  158.4600 N.am      2 ALA2        0.0000 
     17 N          70.4900   -9.4800  159.5100 N.am      2 ALA2        0.0000 
     18 N          71.5000  -10.7400  160.8800 N.am      2 ALA2        0.0000 
     19 N          71.5700   -9.2800  160.5300 N.am      2 ALA2        0.0000 
     20 O          70.5300   -8.9900  161.5700 O.2       2 ALA2        0.0000 
     21 O          71.6100   -8.8000  162.5900 O.2       2 ALA2        0.0000 
     22 O          71.6800   -7.3400  162.2500 O.2       2 ALA2        0.0000 
     23 OD1        68.2700   -9.8800  150.9200 O.co2     3 ASP3        0.0000 
     24 OD1        69.3500   -9.6800  151.9400 O.co2     3 ASP3        0.0000 
     25 OD1        67.0700  -13.4600  155.0700 O.co2     3 ASP3        0.0000 
     26 OD1        67.1400  -12.0100  154.7200 O.co2     3 ASP3        0.0000 
     27 OD1        68.1500  -13.2700  156.0900 O.co2     3 ASP3        0.0000 
     28 OD1        67.1100  -12.9800  157.1300 O.co2     3 ASP3        0.0000 
     29 OD1        67.1800  -11.5200  156.7800 O.co2     3 ASP3        0.0000 
     30 OD1        66.1200  -12.1900  160.2400 O.co2     3 ASP3        0.0000 
     31 OD1        67.2600  -10.5400  160.9100 O.co2     3 ASP3        0.0000 
     32 OD1        66.2200  -10.2400  161.9500 O.co2     3 ASP3        0.0000 
     33 OD1        70.6800   -6.5500  165.3500 O.co2     3 ASP3        0.0000 
     34 NZ         68.1400  -12.7900  151.6200 N.4       4 LYS4        0.0000 
     35 NZ         67.1000  -12.5000  152.6600 N.4       4 LYS4        0.0000 
     36 NZ         68.1800  -12.3000  153.6800 N.4       4 LYS4        0.0000 
     37 NZ         69.1300  -15.0200  155.4000 N.4       4 LYS4        0.0000 
     38 NZ         69.1900  -13.5700  155.0500 N.4       4 LYS4        0.0000 
     39 NZ         72.4300  -12.9800  158.1200 N.4       4 LYS4        0.0000 
     40 NZ         72.5000  -11.5300  157.7700 N.4       4 LYS4        0.0000 
     41 NZ         72.4700  -12.5000  160.1800 N.4       4 LYS4        0.0000 
     42 CZ         70.2000  -14.8300  156.4200 C.ar      5 PHE5        0.0000 
     43 CZ         70.3400  -11.9100  155.7200 C.ar      5 PHE5        0.0000 
     44 CZ         69.2300  -13.0800  157.1100 C.ar      5 PHE5        0.0000 
     45 CZ         68.1900  -12.7800  158.1500 C.ar      5 PHE5        0.0000 
     46 CZ         71.4200  -11.7200  156.7500 C.ar      5 PHE5        0.0000 
     47 CZ         70.3100  -12.8800  158.1400 C.ar      5 PHE5        0.0000 
     48 CZ         69.2700  -12.5900  159.1800 C.ar      5 PHE5        0.0000 
     49 CZ         68.2400  -12.2900  160.2200 C.ar      5 PHE5        0.0000 
     50 CZ         71.3900  -12.6900  159.1600 C.ar      5 PHE5        0.0000 
     51 CZ         70.3500  -12.3900  160.2000 C.ar      5 PHE5        0.0000 
     52 CZ         69.3200  -12.1000  161.2400 C.ar      5 PHE5        0.0000 
     53 CZ         72.4100  -13.9500  160.5300 C.ar      5 PHE5        0.0000 
     54 CZ         71.3700  -13.6600  161.5700 C.ar      5 PHE5        0.0000 
     55 CZ         71.4300  -12.2000  161.2200 C.ar      5 PHE5        0.0000 
     56 CZ         70.3300  -13.3600  162.6100 C.ar      5 PHE5        0.0000 
     57 CZ         72.3800  -14.9200  162.9400 C.ar      5 PHE5        0.0000 
     58 CZ         72.5100  -12.0100  162.2400 C.ar      5 PHE5        0.0000 
     59 CZ         72.5800  -10.5500  161.9000 C.ar      5 PHE5        0.0000 
     60 CZ         71.4800  -11.7100  163.2900 C.ar      5 PHE5        0.0000 
     61 CZ         71.5400  -10.2500  162.9400 C.ar      5 PHE5        0.0000 
     62 CZ         70.6400   -7.0400  163.2900 C.ar      5 PHE5        0.0000 
     63 CZ         71.5800   -9.7600  165.0000 C.ar      5 PHE5        0.0000 
     64 CZ         71.6500   -8.3100  164.6600 C.ar      5 PHE5        0.0000 
     65 CZ         71.7200   -6.8500  164.3100 C.ar      5 PHE5        0.0000 
     66 CA         69.2400  -11.6300  150.2300 C.3       6 GLY6        0.0000 
     67 CA         68.2100  -11.3300  151.2700 C.3       6 GLY6        0.0000 
     68 CA         70.3200  -11.4300  151.2500 C.3       6 GLY6        0.0000 
     69 CA         69.2200  -12.6000  152.6400 C.3       6 GLY6        0.0000 
     70 CA         69.2900  -11.1400  152.2900 C.3       6 GLY6        0.0000 
     71 CA         70.2300  -13.8600  154.0100 C.3       6 GLY6        0.0000 
     72 CA         71.3100  -13.6700  155.0300 C.3       6 GLY6        0.0000 
     73 CA         70.2700  -13.3700  156.0700 C.3       6 GLY6        0.0000 
     74 CA         71.3500  -13.1800  157.0900 C.3       6 GLY6        0.0000 
     75 CA         67.2000  -12.0000  161.2600 C.3       6 GLY6        0.0000 
     76 CA         66.1600  -11.7000  162.3000 C.3       6 GLY6        0.0000 
     77 CA         68.2800  -11.8000  162.2800 C.3       6 GLY6        0.0000 
     78 CA         68.3400  -10.3500  161.9300 C.3       6 GLY6        0.0000 
     79 CA         67.3700   -8.5900  162.6300 C.3       6 GLY6        0.0000 
     80 CA         66.3300   -8.3000  163.6700 C.3       6 GLY6        0.0000 
     81 CA         70.4000  -11.9000  162.2600 C.3       6 GLY6        0.0000 
     82 CA         69.4200  -10.1500  162.9600 C.3       6 GLY6        0.0000 
     83 CA         68.4500   -8.4000  163.6500 C.3       6 GLY6        0.0000 
     84 CA         72.4500  -13.4600  162.5900 C.3       6 GLY6        0.0000 
     85 CA         71.4100  -13.1700  163.6300 C.3       6 GLY6        0.0000 
     86 CA         70.4400  -11.4200  164.3300 C.3       6 GLY6        0.0000 
     87 CA         70.5000   -9.9600  163.9800 C.3       6 GLY6        0.0000 
     88 CA         69.4600   -9.6600  165.0200 C.3       6 GLY6        0.0000 
     89 CA         69.5300   -8.2000  164.6700 C.3       6 GLY6        0.0000 
     90 CA         69.6000   -6.7500  164.3300 C.3       6 GLY6        0.0000 
     91 CA         70.6100   -8.0100  165.7000 C.3       6 GLY6        0.0000 
     92 DU         67.1700  -11.0400  152.3100 H         7 CUB7        0.0000 
     93 DU         68.2500  -10.8400  153.3300 H         7 CUB7        0.0000 
     94 DU         69.2600  -12.1100  154.7000 H         7 CUB7        0.0000 
     95 DU         68.2200  -11.8100  155.7400 H         7 CUB7        0.0000 
     96 DU         69.3000  -11.6200  156.7700 H         7 CUB7        0.0000 
     97 DU         69.3700  -10.1600  156.4200 H         7 CUB7        0.0000 
     98 DU         68.2600  -11.3200  157.8100 H         7 CUB7        0.0000 
     99 DU         67.2200  -11.0300  158.8500 H         7 CUB7        0.0000 
    100 DU         70.3800  -11.4300  157.7900 H         7 CUB7        0.0000 
    101 DU         70.4500   -9.9700  157.4400 H         7 CUB7        0.0000 
    102 DU         69.3400  -11.1300  158.8300 H         7 CUB7        0.0000 
    103 DU         68.3000  -10.8300  159.8700 H         7 CUB7        0.0000 
    104 DU         70.4200  -10.9400  159.8500 H         7 CUB7        0.0000 
    105 DU         69.3800  -10.6400  160.8900 H         7 CUB7        0.0000 
    106 DU         69.4500   -9.1800  160.5500 H         7 CUB7        0.0000 
    107 DU         68.4100   -8.8900  161.5900 H         7 CUB7        0.0000 
    108 DU         70.4600  -10.4500  161.9200 H         7 CUB7        0.0000 
    109 DU         69.4900   -8.6900  162.6100 H         7 CUB7        0.0000 
    110 DU         69.5600   -7.2400  162.2600 H         7 CUB7        0.0000 
    111 DU         70.5700   -8.5000  163.6300 H         7 CUB7        0.0000 
@<TRIPOS>BOND
@<TRIPOS>SUBSTRUCTURE
     1 SER1        1 GROUP   
     2 ALA2        9 GROUP   
     3 ASP3       23 GROUP   
     4 LYS4       34 GROUP   
     5 PHE5       42 GROUP   
     6 GLY6       66 GROUP   
     7 CUB7       92 GROUP   
@<TRIPOS>SET

