#    Name: 6erg_1_LYS_PRO_ARG_GLY_LEU_PHE_SER
#    Modification time : Fri May 22 19:35:11 2020

@<TRIPOS>MOLECULE
6erg_1_LYS_PRO_ARG_GLY_LEU_PHE_SER
   61    62     7     0     0
SMALL
NO_CHARGES


@<TRIPOS>ATOM
      1 N         -35.4350   -1.6100  208.1750 N.4       1 LYS293      0.0000 
      2 CA        -35.4140   -2.7630  209.0700 C.3       1 LYS293      0.0000 
      3 C         -36.0290   -4.0210  208.4100 C.2       1 LYS293      0.0000 
      4 O         -37.2570   -4.1120  208.3250 O.2       1 LYS293      0.0000 
      5 CB        -36.0910   -2.4320  210.4210 C.3       1 LYS293      0.0000 
      6 CG        -35.9920   -3.5590  211.4440 C.3       1 LYS293      0.0000 
      7 CD        -36.2180   -3.0860  212.8550 C.3       1 LYS293      0.0000 
      8 CE        -35.5740   -4.0400  213.8310 C.3       1 LYS293      0.0000 
      9 NZ        -36.0300   -3.7960  215.2120 N.4       1 LYS293      0.0000 
     10 N         -35.1910   -5.0010  207.9670 N.am      2 PRO294      0.0000 
     11 CA        -35.7320   -6.2160  207.3220 C.3       2 PRO294      0.0000 
     12 C         -36.5160   -7.1230  208.2640 C.2       2 PRO294      0.0000 
     13 O         -36.1480   -7.2770  209.4360 O.2       2 PRO294      0.0000 
     14 CB        -34.4830   -6.9240  206.7720 C.3       2 PRO294      0.0000 
     15 CG        -33.3950   -5.9090  206.8200 C.3       2 PRO294      0.0000 
     16 CD        -33.7160   -5.0410  207.9890 C.3       2 PRO294      0.0000 
     17 N         -37.6050   -7.7160  207.7390 N.am      3 ARG295      0.0000 
     18 CA        -38.4900   -8.6080  208.4940 C.3       3 ARG295      0.0000 
     19 C         -38.8300   -9.8920  207.7350 C.2       3 ARG295      0.0000 
     20 O         -38.8030   -9.9120  206.5010 O.2       3 ARG295      0.0000 
     21 CB        -39.7990   -7.8910  208.8480 C.3       3 ARG295      0.0000 
     22 CG        -39.7080   -6.8250  209.9440 C.3       3 ARG295      0.0000 
     23 CD        -41.0120   -6.5410  210.6960 C.3       3 ARG295      0.0000 
     24 NE        -42.1880   -6.3560  209.8320 N.pl3     3 ARG295      0.0000 
     25 CZ        -43.0060   -7.3440  209.4770 C.cat     3 ARG295      0.0000 
     26 NH1       -42.7910   -8.5800  209.9080 N.pl3     3 ARG295      0.0000 
     27 NH2       -44.0310   -7.1070  208.6720 N.pl3     3 ARG295      0.0000 
     28 N         -39.1880  -10.9240  208.5050 N.am      4 GLY296      0.0000 
     29 CA        -39.6270  -12.2370  208.0470 C.3       4 GLY296      0.0000 
     30 C         -38.7980  -12.9290  206.9860 C.2       4 GLY296      0.0000 
     31 O         -37.8290  -13.6220  207.3080 O.2       4 GLY296      0.0000 
     32 N         -39.1930  -12.7750  205.7080 N.am      5 LEU297      0.0000 
     33 CA        -38.5150  -13.4380  204.5910 C.3       5 LEU297      0.0000 
     34 C         -37.1420  -12.8230  204.2910 C.2       5 LEU297      0.0000 
     35 O         -36.2100  -13.5550  203.9470 O.2       5 LEU297      0.0000 
     36 CB        -39.3830  -13.4270  203.3140 C.3       5 LEU297      0.0000 
     37 CG        -39.0650  -14.4930  202.2610 C.3       5 LEU297      0.0000 
     38 CD1       -39.9090  -15.7220  202.4610 C.3       5 LEU297      0.0000 
     39 CD2       -39.2800  -13.9650  200.8630 C.3       5 LEU297      0.0000 
     40 H         -39.9710  -12.1830  205.4360 H         5 LEU297      0.0000 
     41 HA        -38.3520  -14.4770  204.8700 H         5 LEU297      0.0000 
     42 N         -37.0220  -11.4930  204.4230 N.am      6 PHE298      0.0000 
     43 CA        -35.7860  -10.7620  204.1160 C.3       6 PHE298      0.0000 
     44 C         -34.7970  -10.6940  205.2720 C.2       6 PHE298      0.0000 
     45 O         -33.5930  -10.5640  205.0200 O.2       6 PHE298      0.0000 
     46 CB        -36.1210   -9.3500  203.6160 C.3       6 PHE298      0.0000 
     47 CG        -36.9860   -9.3580  202.3820 C.ar      6 PHE298      0.0000 
     48 CD1       -36.4600   -9.7150  201.1470 C.ar      6 PHE298      0.0000 
     49 CD2       -38.3300   -9.0210  202.4550 C.ar      6 PHE298      0.0000 
     50 CE1       -37.2630   -9.7410  200.0120 C.ar      6 PHE298      0.0000 
     51 CE2       -39.1300   -9.0440  201.3160 C.ar      6 PHE298      0.0000 
     52 CZ        -38.5900   -9.3950  200.1010 C.ar      6 PHE298      0.0000 
     53 H         -37.7730  -10.8960  204.7560 H         6 PHE298      0.0000 
     54 HA        -35.2770  -11.2690  203.2980 H         6 PHE298      0.0000 
     55 N         -35.2780  -10.7740  206.5280 N.am      7 SER299      0.0000 
     56 CA        -34.4170  -10.7170  207.7150 C.3       7 SER299      0.0000 
     57 C         -33.4810  -11.9290  207.8290 C.2       7 SER299      0.0000 
     58 O         -33.8630  -13.0390  207.3920 O.2       7 SER299      0.0000 
     59 CB        -35.2350  -10.5350  208.9920 C.3       7 SER299      0.0000 
     60 OG        -35.8950  -11.7200  209.4100 O.3       7 SER299      0.0000 
     61 OXT       -32.3630  -11.7420  208.3480 O.3       7 SER299      0.0000 
@<TRIPOS>BOND
     1    1    2 1    
     2    2    3 1    
     3    2    5 1    
     4    3    4 2    
     5    3   10 am   
     6    5    6 1    
     7    6    7 1    
     8    7    8 1    
     9    8    9 1    
    10   10   11 1    
    11   10   16 1    
    12   11   12 1    
    13   11   14 1    
    14   12   13 2    
    15   12   17 am   
    16   14   15 1    
    17   15   16 1    
    18   17   18 1    
    19   18   19 1    
    20   18   21 1    
    21   19   20 2    
    22   19   28 am   
    23   21   22 1    
    24   22   23 1    
    25   23   24 1    
    26   24   25 ar   
    27   25   26 ar   
    28   25   27 ar   
    29   28   29 1    
    30   29   30 1    
    31   30   31 2    
    32   30   32 am   
    33   32   33 1    
    34   32   40 1    
    35   33   34 1    
    36   33   36 1    
    37   33   41 1    
    38   34   35 2    
    39   34   42 am   
    40   36   37 1    
    41   37   38 1    
    42   37   39 1    
    43   42   43 1    
    44   42   53 1    
    45   43   44 1    
    46   43   46 1    
    47   43   54 1    
    48   44   45 2    
    49   44   55 am   
    50   46   47 1    
    51   47   48 ar   
    52   47   49 ar   
    53   48   50 ar   
    54   49   51 ar   
    55   50   52 ar   
    56   51   52 ar   
    57   55   56 1    
    58   56   57 1    
    59   56   59 1    
    60   57   58 2    
    61   57   61 1    
    62   59   60 1    
@<TRIPOS>SUBSTRUCTURE
     1 LYS293      1 RESIDUE 
     2 PRO294     10 RESIDUE 
     3 ARG295     17 RESIDUE 
     4 GLY296     28 RESIDUE 
     5 LEU297     32 RESIDUE 
     6 PHE298     42 RESIDUE 
     7 SER299     55 RESIDUE 
@<TRIPOS>SET

