#    Name: 6g95_1_RTZ
#    Modification time : Fri May 22 19:25:15 2020

@<TRIPOS>MOLECULE
6g95_1_RTZ
   25    28     1     0     0
SMALL
NO_CHARGES


@<TRIPOS>ATOM
      1 CAA       -43.8500   13.2980   -6.0940 C.3       1 RTZ708      0.0000 
      2 CAB       -52.6120   12.7760   -1.3420 C.3       1 RTZ708      0.0000 
      3 CAC       -43.7190    7.7920   -3.3050 C.ar      1 RTZ708      0.0000 
      4 CAD       -44.4320    6.7950   -3.9620 C.ar      1 RTZ708      0.0000 
      5 CAE       -47.1190   12.0100   -8.4310 C.3       1 RTZ708      0.0000 
      6 CAF       -46.2410   13.0730   -8.9990 C.3       1 RTZ708      0.0000 
      7 CAG       -47.3040   12.1340   -6.9510 C.3       1 RTZ708      0.0000 
      8 CAH       -44.3160    9.0190   -3.0470 C.ar      1 RTZ708      0.0000 
      9 CAI       -45.7440    7.0170   -4.3680 C.ar      1 RTZ708      0.0000 
     10 CAJ       -50.7740   10.8590   -3.1100 C.ar      1 RTZ708      0.0000 
     11 CAK       -50.1320    9.8270   -3.7810 C.ar      1 RTZ708      0.0000 
     12 CAL       -46.4650   12.6030   -4.7350 C.3       1 RTZ708      0.0000 
     13 CAM       -44.9460   13.2130   -8.2080 C.3       1 RTZ708      0.0000 
     14 CAN       -45.6400   11.8020   -3.7280 C.3       1 RTZ708      0.0000 
     15 CAO       -48.6470   11.7850   -2.4590 C.ar      1 RTZ708      0.0000 
     16 CAP       -46.0110   12.3250   -6.1580 C.3       1 RTZ708      0.0000 
     17 CAQ       -50.0310   11.8360   -2.4510 C.ar      1 RTZ708      0.0000 
     18 CAR       -45.6360    9.2410   -3.4600 C.ar      1 RTZ708      0.0000 
     19 CAS       -48.0020   10.7410   -3.1300 C.ar      1 RTZ708      0.0000 
     20 CAT       -46.3530    8.2500   -4.1160 C.ar      1 RTZ708      0.0000 
     21 CAU       -48.7380    9.7750   -3.7960 C.ar      1 RTZ708      0.0000 
     22 NAV       -45.1510   13.4060   -6.7370 N.4       1 RTZ708      0.0000 
     23 NAW       -46.3620   10.6720   -3.1550 N.pl3     1 RTZ708      0.0000 
     24 SAX       -50.8590   13.1890   -1.5700 S.3       1 RTZ708      0.0000 
     25 SAY       -47.9330    8.5480   -4.5880 S.3       1 RTZ708      0.0000 
@<TRIPOS>BOND
     1    1   22 1    
     2    2   24 1    
     3    3    4 ar   
     4    3    8 ar   
     5    4    9 ar   
     6    5    6 1    
     7    5    7 1    
     8    6   13 1    
     9    7   16 1    
    10    8   18 ar   
    11    9   20 ar   
    12   10   11 ar   
    13   10   17 ar   
    14   11   21 ar   
    15   12   14 1    
    16   12   16 1    
    17   13   22 1    
    18   14   23 1    
    19   15   17 ar   
    20   15   19 ar   
    21   16   22 1    
    22   17   24 1    
    23   18   20 ar   
    24   18   23 1    
    25   19   21 ar   
    26   19   23 1    
    27   20   25 1    
    28   21   25 1    
@<TRIPOS>SUBSTRUCTURE
     1 RTZ708      1 GROUP   
@<TRIPOS>SET

