#    Name: 6nhb_1_H4B
#    Modification time : Fri May 22 19:33:27 2020

@<TRIPOS>MOLECULE
6nhb_1_H4B
   17    18     1     0     1
SMALL
NO_CHARGES


@<TRIPOS>ATOM
      1 N1        119.0920  248.9000  348.5500 N.2       1 H4B802      0.0000 
      2 C2        119.1670  248.4590  349.8320 C.2       1 H4B802      0.0000 
      3 N2        118.1100  247.7790  350.3520 N.pl3     1 H4B802      0.0000 
      4 N3        120.2840  248.6990  350.5780 N.am      1 H4B802      0.0000 
      5 C4        121.3320  249.3680  350.0320 C.2       1 H4B802      0.0000 
      6 O4        122.3550  249.5880  350.7130 O.2       1 H4B802      0.0000 
      7 C4A       121.2560  249.8160  348.7090 C.2       1 H4B802      0.0000 
      8 C8A       120.1150  249.5620  347.9820 C.2       1 H4B802      0.0000 
      9 N5        122.2740  250.4950  348.1370 N.3       1 H4B802      0.0000 
     10 N8        120.0100  249.9880  346.6840 N.pl3     1 H4B802      0.0000 
     11 C6        121.9560  251.3450  346.9830 C.3       1 H4B802      0.0000 
     12 C7        121.1510  250.5440  345.9770 C.3       1 H4B802      0.0000 
     13 C9        123.1950  251.9600  346.3210 C.3       1 H4B802      0.0000 
     14 O9        124.1220  250.9180  345.9940 O.3       1 H4B802      0.0000 
     15 C10       122.8640  252.7940  345.0810 C.3       1 H4B802      0.0000 
     16 C11       124.1300  253.1680  344.3090 C.3       1 H4B802      0.0000 
     17 O10       122.1720  253.9940  345.4410 O.3       1 H4B802      0.0000 
@<TRIPOS>BOND
     1    1    2 2    
     2    1    8 1    
     3    2    3 1    
     4    2    4 1    
     5    4    5 am   
     6    5    6 2    
     7    5    7 1    
     8    7    8 2    
     9    7    9 1    
    10    8   10 1    
    11    9   11 1    
    12   10   12 1    
    13   11   12 1    
    14   11   13 1    
    15   13   14 1    
    16   13   15 1    
    17   15   16 1    
    18   15   17 1    
@<TRIPOS>SUBSTRUCTURE
     1 H4B802      1 GROUP   
@<TRIPOS>SET
ATOM$ORANGE STATIC     ATOMS   COLORGROUP SYSTEM 
18 2 2 5 5 7 7 8 8 11 11 12 12 13 13 15 15 16 \
16 

