#    Name: 6nhb_1_H4B_CAVITY_N1_6
#    Modification time : Fri May 22 19:33:28 2020

@<TRIPOS>MOLECULE
6nhb_1_H4B_CAVITY_N1_6
   24     0     6     0     0
SMALL
NO_CHARGES


@<TRIPOS>ATOM
      1 N         116.1100  247.9000  354.0700 N.am      1 ALA2        0.0000 
      2 N         115.5600  249.6400  355.1500 N.am      1 ALA2        0.0000 
      3 OD1       119.8200  246.5200  351.9200 O.co2     2 ASP3        0.0000 
      4 OD1       121.3100  247.8700  352.5900 O.co2     2 ASP3        0.0000 
      5 NZ        115.5500  245.4000  353.6500 N.4       3 LYS4        0.0000 
      6 NZ        117.0400  246.7400  354.3200 N.4       3 LYS4        0.0000 
      7 NZ        115.9300  245.9800  354.9700 N.4       3 LYS4        0.0000 
      8 NZ        119.0800  246.3500  353.9100 N.4       3 LYS4        0.0000 
      9 NZ        117.4200  247.3300  355.6400 N.4       3 LYS4        0.0000 
     10 CZ        118.8900  247.6700  351.6800 C.ar      4 PHE5        0.0000 
     11 CZ        117.2300  248.6600  353.4200 C.ar      4 PHE5        0.0000 
     12 CZ        119.2700  248.2600  353.0000 C.ar      4 PHE5        0.0000 
     13 CZ        118.1600  247.5000  353.6600 C.ar      4 PHE5        0.0000 
     14 CZ        116.6800  250.4000  354.5000 C.ar      4 PHE5        0.0000 
     15 CZ        117.6100  249.2400  354.7400 C.ar      4 PHE5        0.0000 
     16 CZ        118.5400  248.0900  354.9900 C.ar      4 PHE5        0.0000 
     17 CZ        118.1700  251.7400  355.1700 C.ar      4 PHE5        0.0000 
     18 CA        118.7000  245.7600  352.5800 C.3       5 GLY6        0.0000 
     19 CA        117.5900  245.0000  353.2400 C.3       5 GLY6        0.0000 
     20 DU        117.7800  246.9200  352.3300 H         6 CUB7        0.0000 
     21 DU        116.6600  246.1600  352.9900 H         6 CUB7        0.0000 
     22 DU        115.0000  247.1400  354.7300 H         6 CUB7        0.0000 
     23 DU        120.2000  247.1100  353.2500 H         6 CUB7        0.0000 
     24 DU        116.4900  248.4800  355.4000 H         6 CUB7        0.0000 
@<TRIPOS>BOND
@<TRIPOS>SUBSTRUCTURE
     1 ALA2        1 GROUP   
     2 ASP3        3 GROUP   
     3 LYS4        5 GROUP   
     4 PHE5       10 GROUP   
     5 GLY6       18 GROUP   
     6 CUB7       20 GROUP   
@<TRIPOS>SET

