#    Name: 6nhb_1_H4B_CAVITY_N1_4
#    Modification time : Fri May 22 19:33:28 2020

@<TRIPOS>MOLECULE
6nhb_1_H4B_CAVITY_N1_4
   11     0     5     0     0
SMALL
NO_CHARGES


@<TRIPOS>ATOM
      1 OD1       119.8200  246.5200  351.9200 O.co2     1 ASP3        0.0000 
      2 OD1       121.3100  247.8700  352.5900 O.co2     1 ASP3        0.0000 
      3 NZ        119.0800  246.3500  353.9100 N.4       2 LYS4        0.0000 
      4 CZ        118.8900  247.6700  351.6800 C.ar      3 PHE5        0.0000 
      5 CZ        117.2300  248.6600  353.4200 C.ar      3 PHE5        0.0000 
      6 CZ        119.2700  248.2600  353.0000 C.ar      3 PHE5        0.0000 
      7 CZ        118.1600  247.5000  353.6600 C.ar      3 PHE5        0.0000 
      8 CA        118.7000  245.7600  352.5800 C.3       4 GLY6        0.0000 
      9 DU        117.7800  246.9200  352.3300 H         5 CUB7        0.0000 
     10 DU        116.6600  246.1600  352.9900 H         5 CUB7        0.0000 
     11 DU        120.2000  247.1100  353.2500 H         5 CUB7        0.0000 
@<TRIPOS>BOND
@<TRIPOS>SUBSTRUCTURE
     1 ASP3        1 GROUP   
     2 LYS4        3 GROUP   
     3 PHE5        4 GROUP   
     4 GLY6        8 GROUP   
     5 CUB7        9 GROUP   
@<TRIPOS>SET

