#    Name: 6nhb_1_H4B_CAVITY_N1_12
#    Modification time : Fri May 22 19:33:28 2020

@<TRIPOS>MOLECULE
6nhb_1_H4B_CAVITY_N1_12
   69     0     6     0     0
SMALL
NO_CHARGES


@<TRIPOS>ATOM
      1 N         116.1100  247.9000  354.0700 N.am      1 ALA2        0.0000 
      2 N         115.5600  249.6400  355.1500 N.am      1 ALA2        0.0000 
      3 N         114.2600  246.9700  356.7100 N.am      1 ALA2        0.0000 
      4 O         114.0800  252.5300  355.9900 O.2       1 ALA2        0.0000 
      5 N         114.8300  249.4700  357.1400 N.am      1 ALA2        0.0000 
      6 N         113.7100  248.7100  357.7900 N.am      1 ALA2        0.0000 
      7 N         114.6400  247.5500  358.0400 N.am      1 ALA2        0.0000 
      8 N         113.1700  250.4500  358.8800 N.am      1 ALA2        0.0000 
      9 N         114.0900  249.2900  359.1200 N.am      1 ALA2        0.0000 
     10 OD1       119.8200  246.5200  351.9200 O.co2     2 ASP3        0.0000 
     11 OD1       121.3100  247.8700  352.5900 O.co2     2 ASP3        0.0000 
     12 NZ        115.5500  245.4000  353.6500 N.4       3 LYS4        0.0000 
     13 NZ        117.0400  246.7400  354.3200 N.4       3 LYS4        0.0000 
     14 NZ        115.9300  245.9800  354.9700 N.4       3 LYS4        0.0000 
     15 NZ        119.0800  246.3500  353.9100 N.4       3 LYS4        0.0000 
     16 NZ        117.4200  247.3300  355.6400 N.4       3 LYS4        0.0000 
     17 NZ        116.3100  246.5700  356.3000 N.4       3 LYS4        0.0000 
     18 CZ        118.8900  247.6700  351.6800 C.ar      4 PHE5        0.0000 
     19 CZ        117.2300  248.6600  353.4200 C.ar      4 PHE5        0.0000 
     20 CZ        119.2700  248.2600  353.0000 C.ar      4 PHE5        0.0000 
     21 CZ        118.1600  247.5000  353.6600 C.ar      4 PHE5        0.0000 
     22 CZ        116.6800  250.4000  354.5000 C.ar      4 PHE5        0.0000 
     23 CZ        117.6100  249.2400  354.7400 C.ar      4 PHE5        0.0000 
     24 CZ        118.5400  248.0900  354.9900 C.ar      4 PHE5        0.0000 
     25 CZ        117.2400  252.9000  354.9200 C.ar      4 PHE5        0.0000 
     26 CZ        118.1700  251.7400  355.1700 C.ar      4 PHE5        0.0000 
     27 CZ        117.0600  250.9800  355.8200 C.ar      4 PHE5        0.0000 
     28 CZ        117.9900  249.8300  356.0700 C.ar      4 PHE5        0.0000 
     29 CZ        118.5500  252.3300  356.4900 C.ar      4 PHE5        0.0000 
     30 CZ        115.2100  250.0500  358.4600 C.ar      4 PHE5        0.0000 
     31 CZ        114.8500  253.7100  358.6400 C.ar      4 PHE5        0.0000 
     32 CZ        113.7300  252.9500  359.3000 C.ar      4 PHE5        0.0000 
     33 CZ        112.6200  252.1900  359.9600 C.ar      4 PHE5        0.0000 
     34 CZ        115.7700  252.5500  358.8900 C.ar      4 PHE5        0.0000 
     35 CZ        114.6600  251.7900  359.5500 C.ar      4 PHE5        0.0000 
     36 CZ        113.5500  251.0300  360.2000 C.ar      4 PHE5        0.0000 
     37 CZ        115.2300  254.2900  359.9700 C.ar      4 PHE5        0.0000 
     38 CA        118.7000  245.7600  352.5800 C.3       5 GLY6        0.0000 
     39 CA        117.5900  245.0000  353.2400 C.3       5 GLY6        0.0000 
     40 CA        113.8800  246.3800  355.3900 C.3       5 GLY6        0.0000 
     41 CA        114.4500  248.8800  355.8100 C.3       5 GLY6        0.0000 
     42 CA        115.2000  253.2900  355.3300 C.3       5 GLY6        0.0000 
     43 CA        116.1300  252.1400  355.5800 C.3       5 GLY6        0.0000 
     44 CA        115.0100  251.3800  356.2400 C.3       5 GLY6        0.0000 
     45 CA        113.9000  250.6200  356.8900 C.3       5 GLY6        0.0000 
     46 CA        113.5400  254.2700  357.0700 C.3       5 GLY6        0.0000 
     47 CA        114.4700  253.1200  357.3200 C.3       5 GLY6        0.0000 
     48 CA        113.3500  252.3600  357.9700 C.3       5 GLY6        0.0000 
     49 CA        112.2400  251.6000  358.6300 C.3       5 GLY6        0.0000 
     50 CA        117.6200  253.4800  356.2500 C.3       5 GLY6        0.0000 
     51 CA        114.2800  251.2100  358.2200 C.3       5 GLY6        0.0000 
     52 CA        113.9200  254.8600  358.4000 C.3       5 GLY6        0.0000 
     53 CA        112.8000  254.1000  359.0600 C.3       5 GLY6        0.0000 
     54 CA        115.9600  254.4700  357.9900 C.3       5 GLY6        0.0000 
     55 CA        116.8900  253.3100  358.2300 C.3       5 GLY6        0.0000 
     56 DU        117.7800  246.9200  352.3300 H         6 CUB7        0.0000 
     57 DU        116.6600  246.1600  352.9900 H         6 CUB7        0.0000 
     58 DU        115.0000  247.1400  354.7300 H         6 CUB7        0.0000 
     59 DU        120.2000  247.1100  353.2500 H         6 CUB7        0.0000 
     60 DU        116.4900  248.4800  355.4000 H         6 CUB7        0.0000 
     61 DU        115.3800  247.7300  356.0600 H         6 CUB7        0.0000 
     62 DU        115.9400  250.2200  356.4800 H         6 CUB7        0.0000 
     63 DU        116.8700  249.0700  356.7300 H         6 CUB7        0.0000 
     64 DU        115.7600  248.3100  357.3800 H         6 CUB7        0.0000 
     65 DU        115.5800  253.8800  356.6600 H         6 CUB7        0.0000 
     66 DU        116.5100  252.7200  356.9100 H         6 CUB7        0.0000 
     67 DU        115.3900  251.9700  357.5600 H         6 CUB7        0.0000 
     68 DU        117.4400  251.5700  357.1500 H         6 CUB7        0.0000 
     69 DU        116.3200  250.8100  357.8100 H         6 CUB7        0.0000 
@<TRIPOS>BOND
@<TRIPOS>SUBSTRUCTURE
     1 ALA2        1 GROUP   
     2 ASP3       10 GROUP   
     3 LYS4       12 GROUP   
     4 PHE5       18 GROUP   
     5 GLY6       38 GROUP   
     6 CUB7       56 GROUP   
@<TRIPOS>SET

