#    Name: 6bp4_1_SAM
#    Modification time : Fri May 22 19:28:15 2020

@<TRIPOS>MOLECULE
6bp4_1_SAM
   49    51     1     0     0
SMALL
NO_CHARGES


@<TRIPOS>ATOM
      1 N          76.3550  -15.3580  101.7100 N.4       1 SAM505      0.0000 
      2 CA         76.3920  -14.4830  100.5830 C.3       1 SAM505      0.0000 
      3 C          75.9710  -15.2380   99.3060 C.2       1 SAM505      0.0000 
      4 O          76.2280  -16.4740   99.1810 O.co2     1 SAM505      0.0000 
      5 OXT        75.3700  -14.6220   98.3700 O.co2     1 SAM505      0.0000 
      6 CB         77.8360  -13.9540  100.4020 C.3       1 SAM505      0.0000 
      7 CG         78.0700  -12.7090  101.3100 C.3       1 SAM505      0.0000 
      8 SD         79.7790  -12.6330  101.8200 S.3       1 SAM505      0.0000 
      9 CE         80.0330  -13.7290  103.0930 C.3       1 SAM505      0.0000 
     10 C5'        80.8580  -13.0300  100.5770 C.3       1 SAM505      0.0000 
     11 C4'        80.4430  -12.4440   99.1890 C.3       1 SAM505      0.0000 
     12 O4'        79.6350  -11.4190   99.3050 O.3       1 SAM505      0.0000 
     13 C3'        81.6480  -11.8640   98.4580 C.3       1 SAM505      0.0000 
     14 O3'        82.3510  -12.8370   97.7990 O.3       1 SAM505      0.0000 
     15 C2'        81.0020  -10.9030   97.4520 C.3       1 SAM505      0.0000 
     16 O2'        80.6250  -11.6400   96.1910 O.3       1 SAM505      0.0000 
     17 C1'        79.9270  -10.4600   98.0520 C.3       1 SAM505      0.0000 
     18 N9         80.1350   -9.0910   98.5670 N.pl3     1 SAM505      0.0000 
     19 C8         80.1450   -8.7250   99.8400 C.2       1 SAM505      0.0000 
     20 N7         80.3590   -7.4130   99.8850 N.2       1 SAM505      0.0000 
     21 C5         80.4830   -6.9720   98.6280 C.ar      1 SAM505      0.0000 
     22 C6         80.7080   -5.7320   98.1050 C.ar      1 SAM505      0.0000 
     23 N6         80.9060   -4.4110   98.6410 N.pl3     1 SAM505      0.0000 
     24 N1         80.7840   -5.5740   96.7980 N.ar      1 SAM505      0.0000 
     25 C2         80.6420   -6.6230   95.9810 C.ar      1 SAM505      0.0000 
     26 N3         80.4210   -7.8420   96.4910 N.ar      1 SAM505      0.0000 
     27 C4         80.3410   -8.0060   97.8160 C.ar      1 SAM505      0.0000 
     28 HN1        76.5370  -16.1670  101.4530 H         1 SAM505      0.0000 
     29 HN2        76.9440  -15.1020  102.2950 H         1 SAM505      0.0000 
     30 HA         75.8090  -13.7610  100.7270 H         1 SAM505      0.0000 
     31 HB1        78.4460  -14.6270  100.6370 H         1 SAM505      0.0000 
     32 HB2        77.9680  -13.7140   99.5040 H         1 SAM505      0.0000 
     33 HG1        77.5210  -12.7720  102.0690 H         1 SAM505      0.0000 
     34 HG2        77.8530  -11.9290  100.8340 H         1 SAM505      0.0000 
     35 HE1        80.5950  -14.4230  102.8020 H         1 SAM505      0.0000 
     36 HE2        79.2090  -14.0870  103.3650 H         1 SAM505      0.0000 
     37 HE3        80.4350  -13.2830  103.8160 H         1 SAM505      0.0000 
     38 H5'1       80.9170  -14.1090  100.5020 H         1 SAM505      0.0000 
     39 H5'2       81.8380  -12.6470  100.8340 H         1 SAM505      0.0000 
     40 H4'        80.0400  -13.1100   98.6630 H         1 SAM505      0.0000 
     41 H3'        82.2010  -11.3940   99.0540 H         1 SAM505      0.0000 
     42 HO3'       83.0740  -12.5240   97.5330 H         1 SAM505      0.0000 
     43 H2'        81.5860  -10.1930   97.2610 H         1 SAM505      0.0000 
     44 HO2'       80.0950  -12.2540   96.3760 H         1 SAM505      0.0000 
     45 H1'        79.1990  -10.4790   97.4590 H         1 SAM505      0.0000 
     46 H8         80.0240   -9.2850  100.5720 H         1 SAM505      0.0000 
     47 HN61       81.5990   -4.2430   99.1350 H         1 SAM505      0.0000 
     48 HN62       80.3330   -3.7820   98.4690 H         1 SAM505      0.0000 
     49 H2         80.6970   -6.5070   95.0610 H         1 SAM505      0.0000 
@<TRIPOS>BOND
     1    1    2 1    
     2    2    3 1    
     3    1   28 1    
     4    1   29 1    
     5    2    6 1    
     6    3    4 ar   
     7    2   30 1    
     8    3    5 ar   
     9    6    7 1    
    10    7    8 1    
    11    6   31 1    
    12    6   32 1    
    13    8    9 1    
    14    7   33 1    
    15    7   34 1    
    16    8   10 1    
    17   10   11 1    
    18    9   35 1    
    19    9   36 1    
    20    9   37 1    
    21   10   38 1    
    22   10   39 1    
    23   11   12 1    
    24   11   13 1    
    25   12   17 1    
    26   11   40 1    
    27   13   14 1    
    28   13   15 1    
    29   15   16 1    
    30   13   41 1    
    31   14   42 1    
    32   15   17 1    
    33   17   18 1    
    34   15   43 1    
    35   17   45 1    
    36   16   44 1    
    37   18   19 1    
    38   18   27 1    
    39   19   20 2    
    40   20   21 1    
    41   19   46 1    
    42   21   22 ar   
    43   21   27 ar   
    44   22   23 1    
    45   22   24 ar   
    46   24   25 ar   
    47   23   47 1    
    48   23   48 1    
    49   25   26 ar   
    50   26   27 ar   
    51   25   49 1    
@<TRIPOS>SUBSTRUCTURE
     1 SAM505      1 GROUP   
@<TRIPOS>SET

