#    Name: 6bp4_2_SAM
#    Modification time : Fri May 22 19:28:21 2020

@<TRIPOS>MOLECULE
6bp4_2_SAM
   48    50     1     0     0
SMALL
NO_CHARGES


@<TRIPOS>ATOM
      1 N          91.2250    0.8570   73.4600 N.4       1 SAM505      0.0000 
      2 CA         91.3390    2.0520   74.2300 C.3       1 SAM505      0.0000 
      3 C          91.3450    3.2940   73.3120 C.2       1 SAM505      0.0000 
      4 O          90.4410    3.4530   72.4340 O.co2     1 SAM505      0.0000 
      5 OXT        92.2540    4.1710   73.4380 O.co2     1 SAM505      0.0000 
      6 CB         92.6490    1.9630   75.0620 C.3       1 SAM505      0.0000 
      7 CG         92.5300    2.8460   76.3420 C.3       1 SAM505      0.0000 
      8 SD         92.5770    1.8380   77.8080 S.3       1 SAM505      0.0000 
      9 CE         93.8080    2.4200   78.8370 C.3       1 SAM505      0.0000 
     10 C5'        91.0930    1.8660   78.6290 C.3       1 SAM505      0.0000 
     11 C4'        89.8540    1.7350   77.6790 C.3       1 SAM505      0.0000 
     12 O4'        90.0720    0.8790   76.7070 O.3       1 SAM505      0.0000 
     13 C3'        88.6530    1.1650   78.4330 C.3       1 SAM505      0.0000 
     14 O3'        87.8880    2.1640   78.9790 O.3       1 SAM505      0.0000 
     15 C2'        87.8570    0.4200   77.3510 C.3       1 SAM505      0.0000 
     16 O2'        86.9260    1.3720   76.6410 O.3       1 SAM505      0.0000 
     17 C1'        88.7590   -0.0250   76.5150 C.3       1 SAM505      0.0000 
     18 N9         89.1600   -1.4280   76.7810 N.pl3     1 SAM505      0.0000 
     19 C8         90.4050   -1.8450   76.9650 C.2       1 SAM505      0.0000 
     20 N7         90.3740   -3.1580   77.1710 N.2       1 SAM505      0.0000 
     21 C5         89.1010   -3.5550   77.1140 C.ar      1 SAM505      0.0000 
     22 C6         88.5210   -4.7830   77.2540 C.ar      1 SAM505      0.0000 
     23 N6         89.0010   -6.1130   77.5180 N.pl3     1 SAM505      0.0000 
     24 N1         87.2120   -4.9110   77.1490 N.ar      1 SAM505      0.0000 
     25 C2         86.4580   -3.8350   76.9060 C.ar      1 SAM505      0.0000 
     26 N3         87.0250   -2.6260   76.7660 N.ar      1 SAM505      0.0000 
     27 C4         88.3510   -2.4930   76.8690 C.ar      1 SAM505      0.0000 
     28 HN1        90.4590    0.8500   73.0520 H         1 SAM505      0.0000 
     29 HN2        91.8640    0.8280   72.8740 H         1 SAM505      0.0000 
     30 HA         90.6080    2.1090   74.8170 H         1 SAM505      0.0000 
     31 HB1        92.7990    1.0710   75.3130 H         1 SAM505      0.0000 
     32 HB2        93.3700    2.2650   74.5410 H         1 SAM505      0.0000 
     33 HG1        93.2450    3.4550   76.3620 H         1 SAM505      0.0000 
     34 HG2        91.7200    3.3200   76.3190 H         1 SAM505      0.0000 
     35 HE1        94.5690    2.6270   78.3290 H         1 SAM505      0.0000 
     36 HE2        94.0230    1.7600   79.4690 H         1 SAM505      0.0000 
     37 HE3        93.5080    3.1920   79.2800 H         1 SAM505      0.0000 
     38 H5'1       91.0780    1.0510   79.3420 H         1 SAM505      0.0000 
     39 H5'2       91.0150    2.8010   79.1690 H         1 SAM505      0.0000 
     40 H4'        89.6340    2.5740   77.3190 H         1 SAM505      0.0000 
     41 H3'        88.9400    0.5660   79.0970 H         1 SAM505      0.0000 
     42 H2'        87.3800   -0.2940   77.7310 H         1 SAM505      0.0000 
     43 HO2'       87.1350    2.1550   76.8280 H         1 SAM505      0.0000 
     44 H1'        88.4440    0.0590   75.6340 H         1 SAM505      0.0000 
     45 H8         91.1660   -1.3120   76.9520 H         1 SAM505      0.0000 
     46 HN61       88.5490   -6.6430   78.0360 H         1 SAM505      0.0000 
     47 HN62       89.7430   -6.3860   77.1590 H         1 SAM505      0.0000 
     48 H2         85.5360   -3.9250   76.8310 H         1 SAM505      0.0000 
@<TRIPOS>BOND
     1    1    2 1    
     2    2    3 1    
     3    1   28 1    
     4    1   29 1    
     5    2    6 1    
     6    3    4 ar   
     7    2   30 1    
     8    3    5 ar   
     9    6    7 1    
    10    7    8 1    
    11    6   31 1    
    12    6   32 1    
    13    8    9 1    
    14    7   33 1    
    15    7   34 1    
    16    8   10 1    
    17   10   11 1    
    18    9   35 1    
    19    9   36 1    
    20    9   37 1    
    21   10   38 1    
    22   10   39 1    
    23   11   12 1    
    24   11   13 1    
    25   12   17 1    
    26   11   40 1    
    27   13   14 1    
    28   13   15 1    
    29   15   16 1    
    30   13   41 1    
    31   15   17 1    
    32   17   18 1    
    33   15   42 1    
    34   17   44 1    
    35   16   43 1    
    36   18   19 1    
    37   18   27 1    
    38   19   20 2    
    39   20   21 1    
    40   19   45 1    
    41   21   22 ar   
    42   21   27 ar   
    43   22   23 1    
    44   22   24 ar   
    45   24   25 ar   
    46   23   46 1    
    47   23   47 1    
    48   25   26 ar   
    49   26   27 ar   
    50   25   48 1    
@<TRIPOS>SUBSTRUCTURE
     1 SAM505      1 GROUP   
@<TRIPOS>SET

