#    Name: 6jo5_22_LUT_CAVITY_N1_12
#    Modification time : Fri May 22 19:35:54 2020

@<TRIPOS>MOLECULE
6jo5_22_LUT_CAVITY_N1_12
   73     0     6     0     0
SMALL
NO_CHARGES


@<TRIPOS>ATOM
      1 O         181.2700  225.2500  241.1900 O.2       1 ALA2        0.0000 
      2 N         186.3500  223.6900  243.0100 N.am      1 ALA2        0.0000 
      3 N         187.3800  223.4300  244.8400 N.am      1 ALA2        0.0000 
      4 N         187.6300  224.2100  243.5900 N.am      1 ALA2        0.0000 
      5 OD1       180.5300  222.8900  244.9500 O.co2     2 ASP3        0.0000 
      6 OD1       180.0400  224.8400  244.2900 O.co2     2 ASP3        0.0000 
      7 OD1       181.8100  223.4100  245.5300 O.co2     2 ASP3        0.0000 
      8 OD1       181.0700  224.5700  246.1200 O.co2     2 ASP3        0.0000 
      9 OD1       181.3200  225.3600  244.8700 O.co2     2 ASP3        0.0000 
     10 OD1       180.3300  225.7400  246.7100 O.co2     2 ASP3        0.0000 
     11 NZ        184.0300  223.4400  240.6000 N.4       3 LYS4        0.0000 
     12 NZ        185.3100  223.9600  241.1800 N.4       3 LYS4        0.0000 
     13 NZ        185.5600  224.7400  239.9300 N.4       3 LYS4        0.0000 
     14 CZ        180.5300  226.4100  241.7800 C.ar      4 PHE5        0.0000 
     15 CZ        180.7800  227.2000  240.5300 C.ar      4 PHE5        0.0000 
     16 CZ        183.2900  224.6000  241.1900 C.ar      4 PHE5        0.0000 
     17 CZ        182.5500  225.7700  241.7700 C.ar      4 PHE5        0.0000 
     18 CZ        182.0600  227.7200  241.1100 C.ar      4 PHE5        0.0000 
     19 CZ        184.8200  225.9100  240.5100 C.ar      4 PHE5        0.0000 
     20 CZ        183.0900  223.9300  246.1100 C.ar      4 PHE5        0.0000 
     21 CZ        183.3400  224.7200  244.8600 C.ar      4 PHE5        0.0000 
     22 CZ        184.0800  227.0800  241.1000 C.ar      4 PHE5        0.0000 
     23 CZ        182.3600  225.0900  246.7000 C.ar      4 PHE5        0.0000 
     24 CZ        182.6000  225.8800  245.4500 C.ar      4 PHE5        0.0000 
     25 CZ        185.6100  221.3300  246.7700 C.ar      4 PHE5        0.0000 
     26 CZ        184.8700  222.5000  247.3600 C.ar      4 PHE5        0.0000 
     27 CZ        185.1200  223.2800  246.1000 C.ar      4 PHE5        0.0000 
     28 CZ        185.3600  224.0700  244.8500 C.ar      4 PHE5        0.0000 
     29 CZ        184.6200  225.2400  245.4400 C.ar      4 PHE5        0.0000 
     30 CZ        184.8700  226.0200  244.1800 C.ar      4 PHE5        0.0000 
     31 CZ        186.8900  221.8500  247.3500 C.ar      4 PHE5        0.0000 
     32 CZ        187.1400  222.6400  246.1000 C.ar      4 PHE5        0.0000 
     33 CA        181.2700  221.7200  244.3700 C.3       5 GLY6        0.0000 
     34 CA        181.5200  222.5100  243.1100 C.3       5 GLY6        0.0000 
     35 CA        181.7600  223.2900  241.8600 C.3       5 GLY6        0.0000 
     36 CA        180.7800  223.6700  243.7000 C.3       5 GLY6        0.0000 
     37 CA        181.0200  224.4600  242.4500 C.3       5 GLY6        0.0000 
     38 CA        180.2800  225.6300  243.0300 C.3       5 GLY6        0.0000 
     39 CA        179.3000  226.0000  244.8700 C.3       5 GLY6        0.0000 
     40 CA        179.5500  226.7900  243.6200 C.3       5 GLY6        0.0000 
     41 CA        179.7900  227.5800  242.3700 C.3       5 GLY6        0.0000 
     42 CA        178.8100  227.9600  244.2100 C.3       5 GLY6        0.0000 
     43 CA        182.3100  221.4500  246.2000 C.3       5 GLY6        0.0000 
     44 CA        182.5500  222.2400  244.9500 C.3       5 GLY6        0.0000 
     45 CA        182.8000  223.0300  243.6900 C.3       5 GLY6        0.0000 
     46 CA        183.0500  223.8100  242.4400 C.3       5 GLY6        0.0000 
     47 CA        181.5700  222.6200  246.7900 C.3       5 GLY6        0.0000 
     48 CA        181.3200  228.8900  241.6900 C.3       5 GLY6        0.0000 
     49 CA        184.3300  220.8100  246.1900 C.3       5 GLY6        0.0000 
     50 CA        185.0700  223.1700  242.4300 C.3       5 GLY6        0.0000 
     51 CA        183.5900  221.9800  246.7800 C.3       5 GLY6        0.0000 
     52 CA        183.8300  222.7600  245.5300 C.3       5 GLY6        0.0000 
     53 CA        184.0800  223.5500  244.2700 C.3       5 GLY6        0.0000 
     54 CA        184.3300  224.3400  243.0200 C.3       5 GLY6        0.0000 
     55 CA        182.8500  223.1400  247.3600 C.3       5 GLY6        0.0000 
     56 CA        182.1100  224.3100  247.9500 C.3       5 GLY6        0.0000 
     57 CA        185.8600  222.1200  245.5200 C.3       5 GLY6        0.0000 
     58 CA        186.1000  222.9000  244.2600 C.3       5 GLY6        0.0000 
     59 CA        186.5900  224.4800  241.7600 C.3       5 GLY6        0.0000 
     60 CA        185.8500  225.6400  242.3500 C.3       5 GLY6        0.0000 
     61 CA        186.1000  226.4300  241.0900 C.3       5 GLY6        0.0000 
     62 DU        182.0600  224.1900  244.2800 H         6 CUB7        0.0000 
     63 DU        182.3100  224.9800  243.0300 H         6 CUB7        0.0000 
     64 DU        181.8100  226.9300  242.3600 H         6 CUB7        0.0000 
     65 DU        180.8300  227.3100  244.2000 H         6 CUB7        0.0000 
     66 DU        181.0700  228.1000  242.9500 H         6 CUB7        0.0000 
     67 DU        184.5700  225.1200  241.7700 H         6 CUB7        0.0000 
     68 DU        183.5900  225.5000  243.6100 H         6 CUB7        0.0000 
     69 DU        183.8300  226.2900  242.3500 H         6 CUB7        0.0000 
     70 DU        182.8500  226.6700  244.1900 H         6 CUB7        0.0000 
     71 DU        183.0900  227.4500  242.9400 H         6 CUB7        0.0000 
     72 DU        185.6100  224.8600  243.6000 H         6 CUB7        0.0000 
     73 DU        185.1200  226.8100  242.9300 H         6 CUB7        0.0000 
@<TRIPOS>BOND
@<TRIPOS>SUBSTRUCTURE
     1 ALA2        1 GROUP   
     2 ASP3        5 GROUP   
     3 LYS4       11 GROUP   
     4 PHE5       14 GROUP   
     5 GLY6       33 GROUP   
     6 CUB7       62 GROUP   
@<TRIPOS>SET

