#    Name: 6jo5_9_LUT_CAVITY_N1_4
#    Modification time : Fri May 22 19:35:42 2020

@<TRIPOS>MOLECULE
6jo5_9_LUT_CAVITY_N1_4
   26     0     6     0     0
SMALL
NO_CHARGES


@<TRIPOS>ATOM
      1 N         130.9400  200.3700  215.6800 N.am      1 ALA2        0.0000 
      2 N         129.4600  202.7100  216.8600 N.am      1 ALA2        0.0000 
      3 N         131.4800  202.0600  216.8500 N.am      1 ALA2        0.0000 
      4 OD1       128.2300  205.8200  216.7800 O.co2     2 ASP3        0.0000 
      5 NZ        132.2200  200.9000  216.2600 N.4       3 LYS4        0.0000 
      6 NZ        132.4700  201.6800  215.0100 N.4       3 LYS4        0.0000 
      7 NZ        130.0000  204.3900  218.0200 N.4       3 LYS4        0.0000 
      8 NZ        130.2500  205.1800  216.7700 N.4       3 LYS4        0.0000 
      9 NZ        129.5100  206.3500  217.3600 N.4       3 LYS4        0.0000 
     10 NZ        133.5000  201.4200  216.8400 N.4       3 LYS4        0.0000 
     11 NZ        131.2900  204.9100  218.6000 N.4       3 LYS4        0.0000 
     12 NZ        131.5300  205.7000  217.3500 N.4       3 LYS4        0.0000 
     13 CZ        127.6900  204.1400  215.6100 C.ar      4 PHE5        0.0000 
     14 CZ        130.4500  202.3300  215.0200 C.ar      4 PHE5        0.0000 
     15 CZ        129.7100  203.4900  215.6000 C.ar      4 PHE5        0.0000 
     16 CA        133.7500  202.2000  215.5900 C.3       5 GLY6        0.0000 
     17 CA        135.0300  202.7300  216.1700 C.3       5 GLY6        0.0000 
     18 DU        128.7200  203.8700  217.4400 H         6 CUB7        0.0000 
     19 DU        131.7300  202.8500  215.6000 H         6 CUB7        0.0000 
     20 DU        130.7400  203.2300  217.4400 H         6 CUB7        0.0000 
     21 DU        130.9900  204.0100  216.1800 H         6 CUB7        0.0000 
     22 DU        132.7600  202.5800  217.4300 H         6 CUB7        0.0000 
     23 DU        133.0100  203.3700  216.1700 H         6 CUB7        0.0000 
     24 DU        132.0300  203.7500  218.0100 H         6 CUB7        0.0000 
     25 DU        132.2700  204.5400  216.7600 H         6 CUB7        0.0000 
     26 DU        134.2900  203.8900  216.7500 H         6 CUB7        0.0000 
@<TRIPOS>BOND
@<TRIPOS>SUBSTRUCTURE
     1 ALA2        1 GROUP   
     2 ASP3        4 GROUP   
     3 LYS4        5 GROUP   
     4 PHE5       13 GROUP   
     5 GLY6       16 GROUP   
     6 CUB7       18 GROUP   
@<TRIPOS>SET

