#    Name: 6jo5_9_LUT_CAVITY_N1_6
#    Modification time : Fri May 22 19:35:42 2020

@<TRIPOS>MOLECULE
6jo5_9_LUT_CAVITY_N1_6
   64     0     6     0     0
SMALL
NO_CHARGES


@<TRIPOS>ATOM
      1 N         130.9400  200.3700  215.6800 N.am      1 ALA2        0.0000 
      2 N         129.2200  201.9200  218.1100 N.am      1 ALA2        0.0000 
      3 N         129.4600  202.7100  216.8600 N.am      1 ALA2        0.0000 
      4 N         131.2400  201.2700  218.1000 N.am      1 ALA2        0.0000 
      5 N         131.4800  202.0600  216.8500 N.am      1 ALA2        0.0000 
      6 N         130.5000  202.4400  218.6900 N.am      1 ALA2        0.0000 
      7 O         134.8800  209.2200  218.4200 O.2       1 ALA2        0.0000 
      8 O         135.1300  210.0000  217.1700 O.2       1 ALA2        0.0000 
      9 OD1       128.4800  203.0800  218.7000 O.co2     2 ASP3        0.0000 
     10 OD1       128.2300  205.8200  216.7800 O.co2     2 ASP3        0.0000 
     11 NZ        132.2200  200.9000  216.2600 N.4       3 LYS4        0.0000 
     12 NZ        132.4700  201.6800  215.0100 N.4       3 LYS4        0.0000 
     13 NZ        129.7600  203.6100  219.2700 N.4       3 LYS4        0.0000 
     14 NZ        130.0000  204.3900  218.0200 N.4       3 LYS4        0.0000 
     15 NZ        130.2500  205.1800  216.7700 N.4       3 LYS4        0.0000 
     16 NZ        129.5100  206.3500  217.3600 N.4       3 LYS4        0.0000 
     17 NZ        128.7700  207.5100  217.9400 N.4       3 LYS4        0.0000 
     18 NZ        133.2600  200.6300  218.0900 N.4       3 LYS4        0.0000 
     19 NZ        133.5000  201.4200  216.8400 N.4       3 LYS4        0.0000 
     20 NZ        131.0400  204.1300  219.8500 N.4       3 LYS4        0.0000 
     21 NZ        131.2900  204.9100  218.6000 N.4       3 LYS4        0.0000 
     22 NZ        131.5300  205.7000  217.3500 N.4       3 LYS4        0.0000 
     23 NZ        130.7900  206.8700  217.9300 N.4       3 LYS4        0.0000 
     24 NZ        132.3200  204.6500  220.4300 N.4       3 LYS4        0.0000 
     25 CZ        127.4400  203.3500  216.8600 C.ar      4 PHE5        0.0000 
     26 CZ        127.6900  204.1400  215.6100 C.ar      4 PHE5        0.0000 
     27 CZ        130.4500  202.3300  215.0200 C.ar      4 PHE5        0.0000 
     28 CZ        129.7100  203.4900  215.6000 C.ar      4 PHE5        0.0000 
     29 CZ        135.3300  203.6300  218.5900 C.ar      4 PHE5        0.0000 
     30 CZ        135.5700  204.4100  217.3300 C.ar      4 PHE5        0.0000 
     31 CA        129.0200  208.3000  216.6900 C.3       5 GLY6        0.0000 
     32 CA        133.7500  202.2000  215.5900 C.3       5 GLY6        0.0000 
     33 CA        130.3000  208.8200  217.2700 C.3       5 GLY6        0.0000 
     34 CA        134.7900  201.9400  217.4200 C.3       5 GLY6        0.0000 
     35 CA        135.0300  202.7300  216.1700 C.3       5 GLY6        0.0000 
     36 CA        133.8000  202.3200  219.2600 C.3       5 GLY6        0.0000 
     37 CA        133.0600  203.4800  219.8500 C.3       5 GLY6        0.0000 
     38 CA        132.5700  205.4400  219.1800 C.3       5 GLY6        0.0000 
     39 CA        132.8100  206.2200  217.9300 C.3       5 GLY6        0.0000 
     40 CA        132.0700  207.3900  218.5100 C.3       5 GLY6        0.0000 
     41 CA        132.3200  208.1800  217.2600 C.3       5 GLY6        0.0000 
     42 CA        131.5800  209.3400  217.8500 C.3       5 GLY6        0.0000 
     43 CA        134.5900  204.7900  219.1700 C.3       5 GLY6        0.0000 
     44 CA        134.1000  206.7400  218.5100 C.3       5 GLY6        0.0000 
     45 CA        133.6000  208.7000  217.8400 C.3       5 GLY6        0.0000 
     46 CA        132.8600  209.8600  218.4300 C.3       5 GLY6        0.0000 
     47 DU        128.7200  203.8700  217.4400 H         6 CUB7        0.0000 
     48 DU        131.7300  202.8500  215.6000 H         6 CUB7        0.0000 
     49 DU        130.7400  203.2300  217.4400 H         6 CUB7        0.0000 
     50 DU        130.9900  204.0100  216.1800 H         6 CUB7        0.0000 
     51 DU        132.5200  201.8000  218.6800 H         6 CUB7        0.0000 
     52 DU        132.7600  202.5800  217.4300 H         6 CUB7        0.0000 
     53 DU        133.0100  203.3700  216.1700 H         6 CUB7        0.0000 
     54 DU        131.7800  202.9600  219.2700 H         6 CUB7        0.0000 
     55 DU        132.0300  203.7500  218.0100 H         6 CUB7        0.0000 
     56 DU        132.2700  204.5400  216.7600 H         6 CUB7        0.0000 
     57 DU        131.0400  207.6500  216.6800 H         6 CUB7        0.0000 
     58 DU        134.0500  203.1000  218.0100 H         6 CUB7        0.0000 
     59 DU        134.2900  203.8900  216.7500 H         6 CUB7        0.0000 
     60 DU        133.3100  204.2700  218.5900 H         6 CUB7        0.0000 
     61 DU        133.0600  207.0100  216.6700 H         6 CUB7        0.0000 
     62 DU        134.8400  205.5800  217.9200 H         6 CUB7        0.0000 
     63 DU        134.3400  207.5300  217.2500 H         6 CUB7        0.0000 
     64 DU        135.6200  208.0500  217.8300 H         6 CUB7        0.0000 
@<TRIPOS>BOND
@<TRIPOS>SUBSTRUCTURE
     1 ALA2        1 GROUP   
     2 ASP3        9 GROUP   
     3 LYS4       11 GROUP   
     4 PHE5       25 GROUP   
     5 GLY6       31 GROUP   
     6 CUB7       47 GROUP   
@<TRIPOS>SET

