#    Name: 6jo5_22_LUT_CAVITY_N1_6
#    Modification time : Fri May 22 19:35:54 2020

@<TRIPOS>MOLECULE
6jo5_22_LUT_CAVITY_N1_6
    9     0     4     0     0
SMALL
NO_CHARGES


@<TRIPOS>ATOM
      1 NZ        185.5600  224.7400  239.9300 N.4       1 LYS4        0.0000 
      2 CZ        182.0600  227.7200  241.1100 C.ar      2 PHE5        0.0000 
      3 CZ        184.8200  225.9100  240.5100 C.ar      2 PHE5        0.0000 
      4 CZ        184.0800  227.0800  241.1000 C.ar      2 PHE5        0.0000 
      5 CA        181.3200  228.8900  241.6900 C.3       3 GLY6        0.0000 
      6 CA        186.5900  224.4800  241.7600 C.3       3 GLY6        0.0000 
      7 CA        185.8500  225.6400  242.3500 C.3       3 GLY6        0.0000 
      8 CA        186.1000  226.4300  241.0900 C.3       3 GLY6        0.0000 
      9 DU        185.1200  226.8100  242.9300 H         4 CUB7        0.0000 
@<TRIPOS>BOND
@<TRIPOS>SUBSTRUCTURE
     1 LYS4        1 GROUP   
     2 PHE5        2 GROUP   
     3 GLY6        5 GROUP   
     4 CUB7        9 GROUP   
@<TRIPOS>SET

