#    Name: 6jo5_22_LUT_CAVITY_N1_8
#    Modification time : Fri May 22 19:35:54 2020

@<TRIPOS>MOLECULE
6jo5_22_LUT_CAVITY_N1_8
   31     0     5     0     0
SMALL
NO_CHARGES


@<TRIPOS>ATOM
      1 N         186.3500  223.6900  243.0100 N.am      1 ALA2        0.0000 
      2 N         187.3800  223.4300  244.8400 N.am      1 ALA2        0.0000 
      3 N         187.6300  224.2100  243.5900 N.am      1 ALA2        0.0000 
      4 NZ        184.0300  223.4400  240.6000 N.4       2 LYS4        0.0000 
      5 NZ        185.3100  223.9600  241.1800 N.4       2 LYS4        0.0000 
      6 NZ        185.5600  224.7400  239.9300 N.4       2 LYS4        0.0000 
      7 CZ        180.5300  226.4100  241.7800 C.ar      3 PHE5        0.0000 
      8 CZ        180.7800  227.2000  240.5300 C.ar      3 PHE5        0.0000 
      9 CZ        183.2900  224.6000  241.1900 C.ar      3 PHE5        0.0000 
     10 CZ        182.5500  225.7700  241.7700 C.ar      3 PHE5        0.0000 
     11 CZ        182.0600  227.7200  241.1100 C.ar      3 PHE5        0.0000 
     12 CZ        184.8200  225.9100  240.5100 C.ar      3 PHE5        0.0000 
     13 CZ        184.0800  227.0800  241.1000 C.ar      3 PHE5        0.0000 
     14 CZ        185.3600  224.0700  244.8500 C.ar      3 PHE5        0.0000 
     15 CZ        184.8700  226.0200  244.1800 C.ar      3 PHE5        0.0000 
     16 CA        179.7900  227.5800  242.3700 C.3       4 GLY6        0.0000 
     17 CA        181.3200  228.8900  241.6900 C.3       4 GLY6        0.0000 
     18 CA        185.0700  223.1700  242.4300 C.3       4 GLY6        0.0000 
     19 CA        184.3300  224.3400  243.0200 C.3       4 GLY6        0.0000 
     20 CA        186.5900  224.4800  241.7600 C.3       4 GLY6        0.0000 
     21 CA        185.8500  225.6400  242.3500 C.3       4 GLY6        0.0000 
     22 CA        186.1000  226.4300  241.0900 C.3       4 GLY6        0.0000 
     23 DU        181.8100  226.9300  242.3600 H         5 CUB7        0.0000 
     24 DU        181.0700  228.1000  242.9500 H         5 CUB7        0.0000 
     25 DU        184.5700  225.1200  241.7700 H         5 CUB7        0.0000 
     26 DU        183.5900  225.5000  243.6100 H         5 CUB7        0.0000 
     27 DU        183.8300  226.2900  242.3500 H         5 CUB7        0.0000 
     28 DU        182.8500  226.6700  244.1900 H         5 CUB7        0.0000 
     29 DU        183.0900  227.4500  242.9400 H         5 CUB7        0.0000 
     30 DU        185.6100  224.8600  243.6000 H         5 CUB7        0.0000 
     31 DU        185.1200  226.8100  242.9300 H         5 CUB7        0.0000 
@<TRIPOS>BOND
@<TRIPOS>SUBSTRUCTURE
     1 ALA2        1 GROUP   
     2 LYS4        4 GROUP   
     3 PHE5        7 GROUP   
     4 GLY6       16 GROUP   
     5 CUB7       23 GROUP   
@<TRIPOS>SET

