#    Name: 6jo5_15_LUT_CAVITY_N1_6
#    Modification time : Fri May 22 19:35:49 2020

@<TRIPOS>MOLECULE
6jo5_15_LUT_CAVITY_N1_6
   67     0     6     0     0
SMALL
NO_CHARGES


@<TRIPOS>ATOM
      1 N         141.1400  162.9900  176.2600 N.am      1 ALA2        0.0000 
      2 N         140.1600  163.3700  178.1000 N.am      1 ALA2        0.0000 
      3 N         140.4000  164.1600  176.8500 N.am      1 ALA2        0.0000 
      4 N         143.1600  162.3500  176.2500 N.am      1 ALA2        0.0000 
      5 N         143.4100  163.1400  175.0000 N.am      1 ALA2        0.0000 
      6 N         142.1800  162.7300  178.0900 N.am      1 ALA2        0.0000 
      7 N         142.4200  163.5100  176.8400 N.am      1 ALA2        0.0000 
      8 N         142.7700  168.0500  179.7600 N.am      1 ALA2        0.0000 
      9 OD1       137.8400  163.1200  175.6900 O.co2     2 ASP3        0.0000 
     10 OD1       137.3500  165.0700  175.0200 O.co2     2 ASP3        0.0000 
     11 OD1       138.8800  162.8500  177.5200 O.co2     2 ASP3        0.0000 
     12 NZ        138.3800  164.8000  176.8500 N.4       3 LYS4        0.0000 
     13 NZ        138.6300  165.5900  175.6000 N.4       3 LYS4        0.0000 
     14 NZ        139.6600  165.3200  177.4300 N.4       3 LYS4        0.0000 
     15 NZ        139.9100  166.1100  176.1800 N.4       3 LYS4        0.0000 
     16 NZ        140.7000  165.0600  179.2700 N.4       3 LYS4        0.0000 
     17 NZ        140.9500  165.8500  178.0100 N.4       3 LYS4        0.0000 
     18 NZ        141.1900  166.6300  176.7600 N.4       3 LYS4        0.0000 
     19 NZ        144.2000  162.0800  178.0900 N.4       3 LYS4        0.0000 
     20 NZ        144.4500  162.8700  176.8300 N.4       3 LYS4        0.0000 
     21 NZ        144.6900  163.6600  175.5800 N.4       3 LYS4        0.0000 
     22 CZ        138.0900  163.9000  174.4400 C.ar      4 PHE5        0.0000 
     23 CZ        139.8600  162.4700  175.6800 C.ar      4 PHE5        0.0000 
     24 CZ        139.1200  163.6400  176.2700 C.ar      4 PHE5        0.0000 
     25 CZ        139.3700  164.4200  175.0200 C.ar      4 PHE5        0.0000 
     26 CZ        141.3900  163.7800  175.0100 C.ar      4 PHE5        0.0000 
     27 CZ        140.6500  164.9500  175.5900 C.ar      4 PHE5        0.0000 
     28 CZ        144.7400  163.7700  179.2500 C.ar      4 PHE5        0.0000 
     29 CZ        144.2500  165.7200  178.5900 C.ar      4 PHE5        0.0000 
     30 CZ        145.5300  166.2400  179.1600 C.ar      4 PHE5        0.0000 
     31 CZ        145.0400  168.2000  178.5000 C.ar      4 PHE5        0.0000 
     32 CA        140.4500  167.8000  177.3500 C.3       5 GLY6        0.0000 
     33 CA        139.9600  169.7500  176.6800 C.3       5 GLY6        0.0000 
     34 CA        140.2100  170.5400  175.4300 C.3       5 GLY6        0.0000 
     35 CA        141.9800  165.5800  179.8500 C.3       5 GLY6        0.0000 
     36 CA        141.4900  167.5300  179.1800 C.3       5 GLY6        0.0000 
     37 CA        141.7300  168.3200  177.9300 C.3       5 GLY6        0.0000 
     38 CA        141.2400  170.2700  177.2600 C.3       5 GLY6        0.0000 
     39 CA        141.4900  171.0600  176.0100 C.3       5 GLY6        0.0000 
     40 CA        140.5000  171.4400  177.8500 C.3       5 GLY6        0.0000 
     41 CA        140.7500  172.2300  176.5900 C.3       5 GLY6        0.0000 
     42 CA        145.7300  163.3900  177.4100 C.3       5 GLY6        0.0000 
     43 CA        146.2200  164.9600  174.9100 C.3       5 GLY6        0.0000 
     44 CA        144.9900  164.5600  178.0000 C.3       5 GLY6        0.0000 
     45 CA        145.2300  165.3400  176.7500 C.3       5 GLY6        0.0000 
     46 CA        144.0000  164.9400  179.8400 C.3       5 GLY6        0.0000 
     47 CA        143.2600  166.1000  180.4300 C.3       5 GLY6        0.0000 
     48 CA        143.5100  166.8900  179.1700 C.3       5 GLY6        0.0000 
     49 CA        142.5200  170.7900  177.8400 C.3       5 GLY6        0.0000 
     50 CA        146.2700  165.0800  178.5800 C.3       5 GLY6        0.0000 
     51 CA        146.5200  165.8700  177.3200 C.3       5 GLY6        0.0000 
     52 CA        145.7800  167.0300  177.9100 C.3       5 GLY6        0.0000 
     53 DU        142.6700  164.3000  175.5900 H         6 CUB7        0.0000 
     54 DU        141.4400  163.8900  178.6800 H         6 CUB7        0.0000 
     55 DU        141.6800  164.6800  177.4300 H         6 CUB7        0.0000 
     56 DU        141.9300  165.4700  176.1700 H         6 CUB7        0.0000 
     57 DU        143.4600  163.2500  178.6700 H         6 CUB7        0.0000 
     58 DU        143.7100  164.0400  177.4200 H         6 CUB7        0.0000 
     59 DU        143.9500  164.8200  176.1700 H         6 CUB7        0.0000 
     60 DU        142.7200  164.4100  179.2600 H         6 CUB7        0.0000 
     61 DU        142.2300  166.3700  178.5900 H         6 CUB7        0.0000 
     62 DU        142.4700  167.1500  177.3400 H         6 CUB7        0.0000 
     63 DU        141.9800  169.1100  176.6700 H         6 CUB7        0.0000 
     64 DU        144.4900  166.5100  177.3300 H         6 CUB7        0.0000 
     65 DU        143.7600  167.6800  177.9200 H         6 CUB7        0.0000 
     66 DU        143.0200  168.8400  178.5100 H         6 CUB7        0.0000 
     67 DU        143.2600  169.6300  177.2500 H         6 CUB7        0.0000 
@<TRIPOS>BOND
@<TRIPOS>SUBSTRUCTURE
     1 ALA2        1 GROUP   
     2 ASP3        9 GROUP   
     3 LYS4       12 GROUP   
     4 PHE5       22 GROUP   
     5 GLY6       32 GROUP   
     6 CUB7       53 GROUP   
@<TRIPOS>SET

