#    Name: 6jo5_22_LUT
#    Modification time : Fri May 22 19:35:54 2020

@<TRIPOS>MOLECULE
6jo5_22_LUT
   42    43     1     0     0
SMALL
NO_CHARGES


@<TRIPOS>ATOM
      1 C1        182.7210  236.9380  239.2100 C.3       1 LUT619      0.0000 
      2 C2        182.0320  238.2430  238.8030 C.3       1 LUT619      0.0000 
      3 C3        182.3520  238.8350  237.4320 C.3       1 LUT619      0.0000 
      4 C4        183.7400  238.4620  236.9480 C.3       1 LUT619      0.0000 
      5 C5        183.8850  236.9680  237.0000 C.2       1 LUT619      0.0000 
      6 C6        183.5290  236.2870  238.0960 C.2       1 LUT619      0.0000 
      7 C7        183.9250  234.8600  238.2100 C.2       1 LUT619      0.0000 
      8 C8        185.0760  234.5120  238.7880 C.2       1 LUT619      0.0000 
      9 C9        185.5370  233.1210  238.9160 C.2       1 LUT619      0.0000 
     10 C10       186.7310  232.9370  239.4870 C.2       1 LUT619      0.0000 
     11 C11       187.3520  231.6340  239.6690 C.2       1 LUT619      0.0000 
     12 C12       188.5990  231.6590  240.1240 C.2       1 LUT619      0.0000 
     13 C13       189.3780  230.4350  240.3470 C.2       1 LUT619      0.0000 
     14 C14       190.5520  230.5290  240.9850 C.2       1 LUT619      0.0000 
     15 C15       191.3740  229.3500  241.2180 C.2       1 LUT619      0.0000 
     16 C16       181.6570  235.9400  239.6450 C.3       1 LUT619      0.0000 
     17 C17       183.5880  237.2570  240.4240 C.3       1 LUT619      0.0000 
     18 C18       184.4230  236.2810  235.7760 C.3       1 LUT619      0.0000 
     19 C19       184.7210  231.9690  238.4130 C.3       1 LUT619      0.0000 
     20 C20       188.8680  229.1160  239.8470 C.3       1 LUT619      0.0000 
     21 O3        182.2740  240.2620  237.5120 O.3       1 LUT619      0.0000 
     22 C21       201.0160  222.4870  246.0220 C.3       1 LUT619      0.0000 
     23 C22       202.1250  221.4700  246.2750 C.3       1 LUT619      0.0000 
     24 C23       203.5180  222.0420  246.0550 C.3       1 LUT619      0.0000 
     25 C24       203.5890  222.7040  244.7030 C.2       1 LUT619      0.0000 
     26 C25       202.5400  223.3310  244.1530 C.2       1 LUT619      0.0000 
     27 C26       201.1210  223.0990  244.6160 C.3       1 LUT619      0.0000 
     28 C27       200.3560  224.4040  244.5190 C.2       1 LUT619      0.0000 
     29 C28       199.2340  224.4780  243.8070 C.2       1 LUT619      0.0000 
     30 C29       198.5060  225.7540  243.7120 C.2       1 LUT619      0.0000 
     31 C30       197.2050  225.7500  243.3920 C.2       1 LUT619      0.0000 
     32 C31       196.4640  227.0010  243.2800 C.2       1 LUT619      0.0000 
     33 C32       195.1850  226.9810  242.9250 C.2       1 LUT619      0.0000 
     34 C33       194.4370  228.2420  242.7960 C.2       1 LUT619      0.0000 
     35 C34       193.3160  228.2430  242.0670 C.2       1 LUT619      0.0000 
     36 C35       192.5230  229.4500  241.8750 C.2       1 LUT619      0.0000 
     37 C36       201.0560  223.5490  247.1190 C.3       1 LUT619      0.0000 
     38 C37       199.6880  221.7430  246.1260 C.3       1 LUT619      0.0000 
     39 C38       202.7980  224.2920  243.0260 C.3       1 LUT619      0.0000 
     40 C39       199.2310  227.0460  243.9620 C.3       1 LUT619      0.0000 
     41 C40       194.9260  229.4910  243.4700 C.3       1 LUT619      0.0000 
     42 O23       204.4760  220.9800  246.0990 O.3       1 LUT619      0.0000 
@<TRIPOS>BOND
     1    1    2 1    
     2    1    6 1    
     3    1   16 1    
     4    1   17 1    
     5    2    3 1    
     6    3    4 1    
     7    3   21 1    
     8    4    5 1    
     9    5    6 2    
    10    5   18 1    
    11    6    7 1    
    12    7    8 2    
    13    8    9 1    
    14    9   10 2    
    15    9   19 1    
    16   10   11 1    
    17   11   12 2    
    18   12   13 1    
    19   13   14 2    
    20   13   20 1    
    21   14   15 1    
    22   15   36 2    
    23   22   23 1    
    24   22   27 1    
    25   22   37 1    
    26   22   38 1    
    27   23   24 1    
    28   24   25 1    
    29   24   42 1    
    30   25   26 2    
    31   26   27 1    
    32   26   39 1    
    33   27   28 1    
    34   28   29 2    
    35   29   30 1    
    36   30   31 2    
    37   30   40 1    
    38   31   32 1    
    39   32   33 2    
    40   33   34 1    
    41   34   35 2    
    42   34   41 1    
    43   35   36 1    
@<TRIPOS>SUBSTRUCTURE
     1 LUT619      1 GROUP   
@<TRIPOS>SET

