#    Name: 6jo5_15_LUT
#    Modification time : Fri May 22 19:35:48 2020

@<TRIPOS>MOLECULE
6jo5_15_LUT
   42    43     1     0     0
SMALL
NO_CHARGES


@<TRIPOS>ATOM
      1 C1        137.7210  187.1550  171.4440 C.3       1 LUT622      0.0000 
      2 C2        137.2650  188.2690  170.5140 C.3       1 LUT622      0.0000 
      3 C3        135.9440  188.8850  170.9130 C.3       1 LUT622      0.0000 
      4 C4        134.9080  187.7930  170.9710 C.3       1 LUT622      0.0000 
      5 C5        135.3180  186.7690  171.9870 C.2       1 LUT622      0.0000 
      6 C6        136.6030  186.4190  172.1670 C.2       1 LUT622      0.0000 
      7 C7        137.0220  185.3430  173.1100 C.2       1 LUT622      0.0000 
      8 C8        136.9570  184.0290  172.8570 C.2       1 LUT622      0.0000 
      9 C9        137.4240  183.0220  173.8300 C.2       1 LUT622      0.0000 
     10 C10       137.6460  181.7830  173.3730 C.2       1 LUT622      0.0000 
     11 C11       138.1380  180.6620  174.1670 C.2       1 LUT622      0.0000 
     12 C12       138.5900  179.6410  173.4480 C.2       1 LUT622      0.0000 
     13 C13       139.1690  178.3910  173.9670 C.2       1 LUT622      0.0000 
     14 C14       139.3650  177.3920  173.0920 C.2       1 LUT622      0.0000 
     15 C15       139.9660  176.1200  173.4610 C.2       1 LUT622      0.0000 
     16 C16       138.6070  187.7740  172.5140 C.3       1 LUT622      0.0000 
     17 C17       138.5460  186.2010  170.5940 C.3       1 LUT622      0.0000 
     18 C18       134.1920  186.2010  172.7860 C.3       1 LUT622      0.0000 
     19 C19       137.6480  183.3820  175.2670 C.3       1 LUT622      0.0000 
     20 C20       139.5640  178.2510  175.4060 C.3       1 LUT622      0.0000 
     21 O3        135.5480  189.8540  169.9410 O.3       1 LUT622      0.0000 
     22 C21       145.4020  164.5020  172.4240 C.3       1 LUT622      0.0000 
     23 C22       146.1910  163.5010  173.2560 C.3       1 LUT622      0.0000 
     24 C23       145.3260  162.5710  174.0940 C.3       1 LUT622      0.0000 
     25 C24       144.1940  163.3030  174.7680 C.2       1 LUT622      0.0000 
     26 C25       143.6830  164.4440  174.2960 C.2       1 LUT622      0.0000 
     27 C26       144.4290  165.3010  173.3050 C.3       1 LUT622      0.0000 
     28 C27       143.4810  166.1200  172.4490 C.2       1 LUT622      0.0000 
     29 C28       143.4990  167.4380  172.6120 C.2       1 LUT622      0.0000 
     30 C29       142.6630  168.3770  171.8490 C.2       1 LUT622      0.0000 
     31 C30       142.7320  169.6630  172.2120 C.2       1 LUT622      0.0000 
     32 C31       142.0040  170.7490  171.5720 C.2       1 LUT622      0.0000 
     33 C32       141.8010  171.8180  172.3290 C.2       1 LUT622      0.0000 
     34 C33       141.1070  173.0350  171.8820 C.2       1 LUT622      0.0000 
     35 C34       140.9050  173.9960  172.7940 C.2       1 LUT622      0.0000 
     36 C35       140.2640  175.2660  172.4850 C.2       1 LUT622      0.0000 
     37 C36       144.6910  163.7930  171.2750 C.3       1 LUT622      0.0000 
     38 C37       146.4140  165.4550  171.8000 C.3       1 LUT622      0.0000 
     39 C38       142.3400  164.8610  174.8120 C.3       1 LUT622      0.0000 
     40 C39       141.7990  167.9170  170.7180 C.3       1 LUT622      0.0000 
     41 C40       140.6610  173.1960  170.4610 C.3       1 LUT622      0.0000 
     42 O23       146.1240  161.9560  175.1090 O.3       1 LUT622      0.0000 
@<TRIPOS>BOND
     1    1    2 1    
     2    1    6 1    
     3    1   16 1    
     4    1   17 1    
     5    2    3 1    
     6    3    4 1    
     7    3   21 1    
     8    4    5 1    
     9    5    6 2    
    10    5   18 1    
    11    6    7 1    
    12    7    8 2    
    13    8    9 1    
    14    9   10 2    
    15    9   19 1    
    16   10   11 1    
    17   11   12 2    
    18   12   13 1    
    19   13   14 2    
    20   13   20 1    
    21   14   15 1    
    22   15   36 2    
    23   22   23 1    
    24   22   27 1    
    25   22   37 1    
    26   22   38 1    
    27   23   24 1    
    28   24   25 1    
    29   24   42 1    
    30   25   26 2    
    31   26   27 1    
    32   26   39 1    
    33   27   28 1    
    34   28   29 2    
    35   29   30 1    
    36   30   31 2    
    37   30   40 1    
    38   31   32 1    
    39   32   33 2    
    40   33   34 1    
    41   34   35 2    
    42   34   41 1    
    43   35   36 1    
@<TRIPOS>SUBSTRUCTURE
     1 LUT622      1 GROUP   
@<TRIPOS>SET

