#    Name: 6jo5_15_LUT_CAVITY_N1_4
#    Modification time : Fri May 22 19:35:49 2020

@<TRIPOS>MOLECULE
6jo5_15_LUT_CAVITY_N1_4
   33     0     5     0     0
SMALL
NO_CHARGES


@<TRIPOS>ATOM
      1 N         141.1400  162.9900  176.2600 N.am      1 ALA2        0.0000 
      2 N         140.4000  164.1600  176.8500 N.am      1 ALA2        0.0000 
      3 N         143.1600  162.3500  176.2500 N.am      1 ALA2        0.0000 
      4 N         143.4100  163.1400  175.0000 N.am      1 ALA2        0.0000 
      5 N         142.1800  162.7300  178.0900 N.am      1 ALA2        0.0000 
      6 N         142.4200  163.5100  176.8400 N.am      1 ALA2        0.0000 
      7 NZ        138.6300  165.5900  175.6000 N.4       2 LYS4        0.0000 
      8 NZ        139.6600  165.3200  177.4300 N.4       2 LYS4        0.0000 
      9 NZ        139.9100  166.1100  176.1800 N.4       2 LYS4        0.0000 
     10 NZ        140.9500  165.8500  178.0100 N.4       2 LYS4        0.0000 
     11 NZ        141.1900  166.6300  176.7600 N.4       2 LYS4        0.0000 
     12 NZ        144.2000  162.0800  178.0900 N.4       2 LYS4        0.0000 
     13 NZ        144.4500  162.8700  176.8300 N.4       2 LYS4        0.0000 
     14 NZ        144.6900  163.6600  175.5800 N.4       2 LYS4        0.0000 
     15 CZ        139.8600  162.4700  175.6800 C.ar      3 PHE5        0.0000 
     16 CZ        139.1200  163.6400  176.2700 C.ar      3 PHE5        0.0000 
     17 CZ        139.3700  164.4200  175.0200 C.ar      3 PHE5        0.0000 
     18 CZ        141.3900  163.7800  175.0100 C.ar      3 PHE5        0.0000 
     19 CZ        140.6500  164.9500  175.5900 C.ar      3 PHE5        0.0000 
     20 CA        140.2100  170.5400  175.4300 C.3       4 GLY6        0.0000 
     21 CA        141.4900  171.0600  176.0100 C.3       4 GLY6        0.0000 
     22 CA        145.7300  163.3900  177.4100 C.3       4 GLY6        0.0000 
     23 CA        146.2200  164.9600  174.9100 C.3       4 GLY6        0.0000 
     24 CA        144.9900  164.5600  178.0000 C.3       4 GLY6        0.0000 
     25 CA        145.2300  165.3400  176.7500 C.3       4 GLY6        0.0000 
     26 DU        142.6700  164.3000  175.5900 H         5 CUB7        0.0000 
     27 DU        141.6800  164.6800  177.4300 H         5 CUB7        0.0000 
     28 DU        141.9300  165.4700  176.1700 H         5 CUB7        0.0000 
     29 DU        143.4600  163.2500  178.6700 H         5 CUB7        0.0000 
     30 DU        143.7100  164.0400  177.4200 H         5 CUB7        0.0000 
     31 DU        143.9500  164.8200  176.1700 H         5 CUB7        0.0000 
     32 DU        142.4700  167.1500  177.3400 H         5 CUB7        0.0000 
     33 DU        144.4900  166.5100  177.3300 H         5 CUB7        0.0000 
@<TRIPOS>BOND
@<TRIPOS>SUBSTRUCTURE
     1 ALA2        1 GROUP   
     2 LYS4        7 GROUP   
     3 PHE5       15 GROUP   
     4 GLY6       20 GROUP   
     5 CUB7       26 GROUP   
@<TRIPOS>SET

