#    Name: 6jo5_9_LUT
#    Modification time : Fri May 22 19:35:41 2020

@<TRIPOS>MOLECULE
6jo5_9_LUT
   42    43     1     0     0
SMALL
NO_CHARGES


@<TRIPOS>ATOM
      1 C1        136.0550  226.5760  213.7910 C.3       1 LUT620      0.0000 
      2 C2        135.7630  227.9970  213.3160 C.3       1 LUT620      0.0000 
      3 C3        134.6420  228.7460  214.0190 C.3       1 LUT620      0.0000 
      4 C4        133.4830  227.8110  214.2940 C.3       1 LUT620      0.0000 
      5 C5        133.9970  226.7160  215.1810 C.2       1 LUT620      0.0000 
      6 C6        135.1430  226.0790  214.9010 C.2       1 LUT620      0.0000 
      7 C7        135.5300  224.8890  215.7120 C.2       1 LUT620      0.0000 
      8 C8        135.1770  223.6490  215.3640 C.2       1 LUT620      0.0000 
      9 C9        135.5090  222.4240  216.1220 C.2       1 LUT620      0.0000 
     10 C10       135.1770  221.2630  215.5430 C.2       1 LUT620      0.0000 
     11 C11       135.3770  219.9140  216.0640 C.2       1 LUT620      0.0000 
     12 C12       134.5400  219.0010  215.5740 C.2       1 LUT620      0.0000 
     13 C13       134.5740  217.5670  215.8980 C.2       1 LUT620      0.0000 
     14 C14       133.9110  216.7430  215.0710 C.2       1 LUT620      0.0000 
     15 C15       133.9070  215.2960  215.2290 C.2       1 LUT620      0.0000 
     16 C16       137.4730  226.5640  214.3290 C.3       1 LUT620      0.0000 
     17 C17       135.9920  225.6670  212.5700 C.3       1 LUT620      0.0000 
     18 C18       133.1830  226.4020  216.4000 C.3       1 LUT620      0.0000 
     19 C19       136.1490  222.4780  217.4760 C.3       1 LUT620      0.0000 
     20 C20       135.3410  217.0460  217.0760 C.3       1 LUT620      0.0000 
     21 O3        134.2080  229.8280  213.1900 O.3       1 LUT620      0.0000 
     22 C21       132.3190  202.9010  211.4580 C.3       1 LUT620      0.0000 
     23 C22       132.7420  201.4760  211.7890 C.3       1 LUT620      0.0000 
     24 C23       132.0360  200.8700  212.9930 C.3       1 LUT620      0.0000 
     25 C24       131.9440  201.8560  214.1280 C.2       1 LUT620      0.0000 
     26 C25       131.7600  203.1580  213.9000 C.2       1 LUT620      0.0000 
     27 C26       132.3800  203.8090  212.6920 C.3       1 LUT620      0.0000 
     28 C27       131.7610  205.1540  212.3770 C.2       1 LUT620      0.0000 
     29 C28       132.4970  206.2340  212.6040 C.2       1 LUT620      0.0000 
     30 C29       132.0400  207.6050  212.3270 C.2       1 LUT620      0.0000 
     31 C30       132.7790  208.6030  212.8200 C.2       1 LUT620      0.0000 
     32 C31       132.5110  210.0210  212.6200 C.2       1 LUT620      0.0000 
     33 C32       133.0540  210.8590  213.4910 C.2       1 LUT620      0.0000 
     34 C33       132.9170  212.3180  213.3780 C.2       1 LUT620      0.0000 
     35 C34       133.4010  213.0960  214.3560 C.2       1 LUT620      0.0000 
     36 C35       133.3560  214.5510  214.2740 C.2       1 LUT620      0.0000 
     37 C36       130.9310  202.9030  210.8270 C.3       1 LUT620      0.0000 
     38 C37       133.3010  203.4190  210.4190 C.3       1 LUT620      0.0000 
     39 C38       130.9320  203.9460  214.8700 C.3       1 LUT620      0.0000 
     40 C39       130.8090  207.8590  211.5130 C.3       1 LUT620      0.0000 
     41 C40       132.2790  212.9020  212.1580 C.3       1 LUT620      0.0000 
     42 O23       132.7730  199.7300  213.4390 O.3       1 LUT620      0.0000 
@<TRIPOS>BOND
     1    1    2 1    
     2    1    6 1    
     3    1   16 1    
     4    1   17 1    
     5    2    3 1    
     6    3    4 1    
     7    3   21 1    
     8    4    5 1    
     9    5    6 2    
    10    5   18 1    
    11    6    7 1    
    12    7    8 2    
    13    8    9 1    
    14    9   10 2    
    15    9   19 1    
    16   10   11 1    
    17   11   12 2    
    18   12   13 1    
    19   13   14 2    
    20   13   20 1    
    21   14   15 1    
    22   15   36 2    
    23   22   23 1    
    24   22   27 1    
    25   22   37 1    
    26   22   38 1    
    27   23   24 1    
    28   24   25 1    
    29   24   42 1    
    30   25   26 2    
    31   26   27 1    
    32   26   39 1    
    33   27   28 1    
    34   28   29 2    
    35   29   30 1    
    36   30   31 2    
    37   30   40 1    
    38   31   32 1    
    39   32   33 2    
    40   33   34 1    
    41   34   35 2    
    42   34   41 1    
    43   35   36 1    
@<TRIPOS>SUBSTRUCTURE
     1 LUT620      1 GROUP   
@<TRIPOS>SET

