#    Name: 6de4_1_NDP
#    Modification time : Fri May 22 19:25:58 2020

@<TRIPOS>MOLECULE
6de4_1_NDP
   48    52     1     0     1
SMALL
NO_CHARGES


@<TRIPOS>ATOM
      1 PA         25.8980   19.3450  164.5320 P.3       1 NDP201      0.0000 
      2 O1A        25.9510   18.2980  165.5910 O.co2     1 NDP201      0.0000 
      3 O2A        25.3890   19.0610  163.1490 O.co2     1 NDP201      0.0000 
      4 O5B        25.0250   20.6120  165.0660 O.3       1 NDP201      0.0000 
      5 C5B        25.7090   21.0700  166.1730 C.3       1 NDP201      0.0000 
      6 C4B        24.8350   22.1250  166.7650 C.3       1 NDP201      0.0000 
      7 O4B        23.4640   21.8040  166.4500 O.3       1 NDP201      0.0000 
      8 C3B        25.0280   22.1580  168.3050 C.3       1 NDP201      0.0000 
      9 O3B        25.9320   23.1630  168.6510 O.3       1 NDP201      0.0000 
     10 C2B        23.6030   22.5650  168.7540 C.3       1 NDP201      0.0000 
     11 O2B        23.3570   23.8520  168.6000 O.3       1 NDP201      0.0000 
     12 C1B        22.7500   21.7530  167.6830 C.3       1 NDP201      0.0000 
     13 N9A        22.6070   20.3540  168.0700 N.pl3     1 NDP201      0.0000 
     14 C8A        23.4070   19.2310  167.7180 C.2       1 NDP201      0.0000 
     15 N7A        22.9750   18.0810  168.2840 N.2       1 NDP201      0.0000 
     16 C5A        21.8440   18.4870  169.0350 C.ar      1 NDP201      0.0000 
     17 C6A        20.9450   17.7830  169.8490 C.ar      1 NDP201      0.0000 
     18 N6A        21.0900   16.4360  170.0160 N.pl3     1 NDP201      0.0000 
     19 N1A        19.8980   18.4060  170.4920 N.ar      1 NDP201      0.0000 
     20 C2A        19.8190   19.7610  170.2700 C.ar      1 NDP201      0.0000 
     21 N3A        20.5830   20.5760  169.5350 N.ar      1 NDP201      0.0000 
     22 C4A        21.6150   19.8970  168.9110 C.ar      1 NDP201      0.0000 
     23 O3         27.4850   19.9000  164.4220 O.3       1 NDP201      0.0000 
     24 PN         28.6180   18.7460  164.2990 P.3       1 NDP201      0.0000 
     25 O1N        29.9210   19.4420  164.3320 O.co2     1 NDP201      0.0000 
     26 O2N        28.4130   17.4450  165.0460 O.co2     1 NDP201      0.0000 
     27 O5D        28.6680   18.1790  162.6140 O.3       1 NDP201      0.0000 
     28 C5D        29.1470   19.2420  161.8780 C.3       1 NDP201      0.0000 
     29 C4D        30.3180   18.7610  161.0360 C.3       1 NDP201      0.0000 
     30 O4D        30.1350   17.3720  160.6510 O.3       1 NDP201      0.0000 
     31 C3D        30.3710   19.6170  159.7330 C.3       1 NDP201      0.0000 
     32 O3D        31.7070   19.9240  159.4800 O.3       1 NDP201      0.0000 
     33 C2D        29.7810   18.6720  158.6600 C.3       1 NDP201      0.0000 
     34 O2D        30.3590   18.8420  157.3940 O.3       1 NDP201      0.0000 
     35 C1D        30.1980   17.2640  159.2270 C.3       1 NDP201      0.0000 
     36 N1N        29.2430   16.1960  158.8030 N.pl3     1 NDP201      0.0000 
     37 C2N        29.7060   15.0780  158.1250 C.2       1 NDP201      0.0000 
     38 C3N        29.0250   13.9010  158.2420 C.2       1 NDP201      0.0000 
     39 C7N        29.5600   12.7590  157.5170 C.2       1 NDP201      0.0000 
     40 O7N        28.9800   11.6610  157.4210 O.2       1 NDP201      0.0000 
     41 N7N        30.8150   12.9400  156.9270 N.am      1 NDP201      0.0000 
     42 C4N        27.7910   13.7930  159.0810 C.3       1 NDP201      0.0000 
     43 C5N        27.1570   15.1350  159.2530 C.2       1 NDP201      0.0000 
     44 C6N        27.8620   16.2680  159.1160 C.2       1 NDP201      0.0000 
     45 P2B        22.1680   24.5270  169.7780 P.3       1 NDP201      0.0000 
     46 O1X        21.4920   23.2670  170.2150 O.co2     1 NDP201      0.0000 
     47 O2X        23.0730   25.2290  170.7960 O.co2     1 NDP201      0.0000 
     48 O3X        21.4590   25.3850  168.7760 O.co2     1 NDP201      0.0000 
@<TRIPOS>BOND
     1    1    2 ar   
     2    1    3 ar   
     3    1    4 1    
     4    1   23 1    
     5    4    5 1    
     6    5    6 1    
     7    6    7 1    
     8    6    8 1    
     9    7   12 1    
    10    8    9 1    
    11    8   10 1    
    12   10   11 1    
    13   10   12 1    
    14   11   45 1    
    15   12   13 1    
    16   13   14 1    
    17   13   22 1    
    18   14   15 2    
    19   15   16 1    
    20   16   17 ar   
    21   16   22 ar   
    22   17   18 1    
    23   17   19 ar   
    24   19   20 ar   
    25   20   21 ar   
    26   21   22 ar   
    27   23   24 1    
    28   24   25 ar   
    29   24   26 ar   
    30   24   27 1    
    31   27   28 1    
    32   28   29 1    
    33   29   30 1    
    34   29   31 1    
    35   30   35 1    
    36   31   32 1    
    37   31   33 1    
    38   33   34 1    
    39   33   35 1    
    40   35   36 1    
    41   36   37 1    
    42   36   44 1    
    43   37   38 2    
    44   38   39 1    
    45   38   42 1    
    46   39   40 2    
    47   39   41 am   
    48   42   43 1    
    49   43   44 2    
    50   45   46 ar   
    51   45   47 ar   
    52   45   48 ar   
@<TRIPOS>SUBSTRUCTURE
     1 NDP201      1 GROUP   
@<TRIPOS>SET
ATOM$ORANGE STATIC     ATOMS   COLORGROUP SYSTEM 
42 5 5 6 6 8 8 10 10 12 12 14 14 16 16 17 17 20 \
20 22 22 28 28 29 29 31 31 33 33 35 35 37 37 38 38 39 \
39 42 42 43 43 44 44 

