#    Name: 6de4_2_NDP_CAVITY_N1_4
#    Modification time : Fri May 22 19:26:06 2020

@<TRIPOS>MOLECULE
6de4_2_NDP_CAVITY_N1_4
   64     0     5     0     0
SMALL
NO_CHARGES


@<TRIPOS>ATOM
      1 OG         31.4100  -32.4200  159.4800 O.3       1 SER1        0.0000 
      2 OG         31.2400  -32.6100  160.9600 O.3       1 SER1        0.0000 
      3 OG         31.0800  -32.8000  162.4400 O.3       1 SER1        0.0000 
      4 OG         31.8900  -31.2800  161.2000 O.3       1 SER1        0.0000 
      5 OG         31.7300  -31.4700  162.6800 O.3       1 SER1        0.0000 
      6 OG         32.5400  -29.9500  161.4400 O.3       1 SER1        0.0000 
      7 OG         32.3700  -30.1400  162.9200 O.3       1 SER1        0.0000 
      8 OG         33.8800  -30.6100  161.5100 O.3       1 SER1        0.0000 
      9 OG         33.7200  -30.8000  162.9800 O.3       1 SER1        0.0000 
     10 OG         33.0200  -28.8000  163.1600 O.3       1 SER1        0.0000 
     11 OG         32.8600  -28.9900  164.6400 O.3       1 SER1        0.0000 
     12 OG         32.6900  -29.1800  166.1200 O.3       1 SER1        0.0000 
     13 OG         34.3600  -29.4700  163.2300 O.3       1 SER1        0.0000 
     14 OG         34.0300  -29.8400  166.1800 O.3       1 SER1        0.0000 
     15 OG         33.8700  -30.0300  167.6600 O.3       1 SER1        0.0000 
     16 OG         33.8300  -27.2900  161.9200 O.3       1 SER1        0.0000 
     17 OG         35.0100  -28.1400  163.4700 O.3       1 SER1        0.0000 
     18 OG         34.8500  -28.3200  164.9400 O.3       1 SER1        0.0000 
     19 OG         34.6800  -28.5100  166.4200 O.3       1 SER1        0.0000 
     20 OG         36.8400  -27.6600  165.2500 O.3       1 SER1        0.0000 
     21 OG         38.1800  -28.3200  165.3200 O.3       1 SER1        0.0000 
     22 N          29.5200  -28.9900  164.2700 N.am      2 ALA2        0.0000 
     23 N          30.8700  -29.6600  164.3300 N.am      2 ALA2        0.0000 
     24 N          33.2200  -31.3600  167.4200 N.am      2 ALA2        0.0000 
     25 N          31.5100  -28.3300  164.5700 N.am      2 ALA2        0.0000 
     26 O          34.6900  -29.1000  160.2700 O.2       2 ALA2        0.0000 
     27 N          35.5400  -30.3200  164.7700 N.am      2 ALA2        0.0000 
     28 N          35.3800  -30.5100  166.2500 N.am      2 ALA2        0.0000 
     29 N          36.1900  -28.9900  165.0100 N.am      2 ALA2        0.0000 
     30 N          36.0200  -29.1800  166.4900 N.am      2 ALA2        0.0000 
     31 N          37.5300  -29.6600  165.0800 N.am      2 ALA2        0.0000 
     32 N          37.3700  -29.8400  166.5600 N.am      2 ALA2        0.0000 
     33 N          38.7100  -30.5100  166.6200 N.am      2 ALA2        0.0000 
     34 N          36.6700  -27.8500  166.7300 N.am      2 ALA2        0.0000 
     35 OD1        29.9000  -31.9500  160.8900 O.co2     3 ASP3        0.0000 
     36 CA         28.8700  -30.3200  164.0300 C.3       4 GLY6        0.0000 
     37 CA         30.5500  -30.6100  161.1300 C.3       4 GLY6        0.0000 
     38 CA         30.3800  -30.8000  162.6100 C.3       4 GLY6        0.0000 
     39 CA         30.2200  -30.9900  164.0900 C.3       4 GLY6        0.0000 
     40 CA         31.5600  -31.6500  164.1600 C.3       4 GLY6        0.0000 
     41 CA         32.9000  -32.3200  164.2200 C.3       4 GLY6        0.0000 
     42 CA         31.2000  -29.2800  161.3700 C.3       4 GLY6        0.0000 
     43 CA         31.0300  -29.4700  162.8500 C.3       4 GLY6        0.0000 
     44 CA         32.7000  -29.7600  159.9600 C.3       4 GLY6        0.0000 
     45 CA         32.0400  -30.5100  165.8800 C.3       4 GLY6        0.0000 
     46 CA         33.5500  -30.9900  164.4600 C.3       4 GLY6        0.0000 
     47 CA         33.3900  -31.1700  165.9400 C.3       4 GLY6        0.0000 
     48 CA         35.0600  -31.4700  163.0500 C.3       4 GLY6        0.0000 
     49 CA         34.8900  -31.6500  164.5300 C.3       4 GLY6        0.0000 
     50 CA         31.6800  -28.1400  163.0900 C.3       4 GLY6        0.0000 
     51 CA         33.3500  -28.4300  160.2000 C.3       4 GLY6        0.0000 
     52 CA         33.1900  -28.6200  161.6800 C.3       4 GLY6        0.0000 
     53 CA         34.5300  -29.2800  161.7500 C.3       4 GLY6        0.0000 
     54 CA         35.8700  -29.9500  161.8100 C.3       4 GLY6        0.0000 
     55 CA         35.7100  -30.1300  163.2900 C.3       4 GLY6        0.0000 
     56 CA         36.3500  -28.8000  163.5300 C.3       4 GLY6        0.0000 
     57 CA         35.8600  -29.3600  167.9700 C.3       4 GLY6        0.0000 
     58 CA         38.5400  -30.6900  168.1000 C.3       4 GLY6        0.0000 
     59 CA         37.8500  -28.7000  168.2800 C.3       4 GLY6        0.0000 
     60 CA         39.3600  -29.1800  166.8600 C.3       4 GLY6        0.0000 
     61 CA         39.1900  -29.3600  168.3400 C.3       4 GLY6        0.0000 
     62 DU         32.2100  -30.3200  164.4000 H         5 CUB7        0.0000 
     63 DU         34.2000  -29.6600  164.7000 H         5 CUB7        0.0000 
     64 DU         38.0100  -28.5100  166.8000 H         5 CUB7        0.0000 
@<TRIPOS>BOND
@<TRIPOS>SUBSTRUCTURE
     1 SER1        1 GROUP   
     2 ALA2       22 GROUP   
     3 ASP3       35 GROUP   
     4 GLY6       36 GROUP   
     5 CUB7       62 GROUP   
@<TRIPOS>SET

