#    Name: 6de4_2_NDP
#    Modification time : Fri May 22 19:26:03 2020

@<TRIPOS>MOLECULE
6de4_2_NDP
   48    52     1     0     1
SMALL
NO_CHARGES


@<TRIPOS>ATOM
      1 PA         32.9530  -25.9060  160.2660 P.3       1 NDP201      0.0000 
      2 O1A        34.0190  -25.9150  159.2240 O.co2     1 NDP201      0.0000 
      3 O2A        33.2210  -25.4500  161.6710 O.co2     1 NDP201      0.0000 
      4 O5B        31.6840  -25.0190  159.7610 O.3       1 NDP201      0.0000 
      5 C5B        31.3690  -25.5380  158.5240 C.3       1 NDP201      0.0000 
      6 C4B        30.4170  -24.5690  157.8850 C.3       1 NDP201      0.0000 
      7 O4B        30.8310  -23.2010  158.1580 O.3       1 NDP201      0.0000 
      8 C3B        30.4020  -24.8010  156.3500 C.3       1 NDP201      0.0000 
      9 O3B        29.3970  -25.7180  156.0200 O.3       1 NDP201      0.0000 
     10 C2B        30.0030  -23.3800  155.8900 C.3       1 NDP201      0.0000 
     11 O2B        28.7410  -23.0920  156.1680 O.3       1 NDP201      0.0000 
     12 C1B        30.9210  -22.5440  156.8920 C.3       1 NDP201      0.0000 
     13 N9A        32.3370  -22.5380  156.5040 N.pl3     1 NDP201      0.0000 
     14 C8A        33.3590  -23.4430  156.8810 C.2       1 NDP201      0.0000 
     15 N7A        34.5610  -23.1460  156.3400 N.2       1 NDP201      0.0000 
     16 C5A        34.3110  -21.9820  155.5800 C.ar      1 NDP201      0.0000 
     17 C6A        35.1480  -21.1740  154.7780 C.ar      1 NDP201      0.0000 
     18 N6A        36.5110  -21.4650  154.6250 N.pl3     1 NDP201      0.0000 
     19 N1A        34.6410  -20.0730  154.1240 N.ar      1 NDP201      0.0000 
     20 C2A        33.2950  -19.8280  154.3180 C.ar      1 NDP201      0.0000 
     21 N3A        32.3680  -20.4820  155.0290 N.ar      1 NDP201      0.0000 
     22 C4A        32.9210  -21.5910  155.6730 C.ar      1 NDP201      0.0000 
     23 O3         32.4160  -27.5040  160.2970 O.3       1 NDP201      0.0000 
     24 PN         33.5790  -28.6240  160.4700 P.3       1 NDP201      0.0000 
     25 O1N        32.9020  -29.9370  160.4310 O.co2     1 NDP201      0.0000 
     26 O2N        34.8920  -28.4020  159.7510 O.co2     1 NDP201      0.0000 
     27 O5D        34.1150  -28.6500  162.1680 O.3       1 NDP201      0.0000 
     28 C5D        33.0510  -29.1340  162.8980 C.3       1 NDP201      0.0000 
     29 C4D        33.5240  -30.3320  163.7070 C.3       1 NDP201      0.0000 
     30 O4D        34.9240  -30.1770  164.0820 O.3       1 NDP201      0.0000 
     31 C3D        32.6860  -30.4010  165.0210 C.3       1 NDP201      0.0000 
     32 O3D        32.4520  -31.7460  165.3240 O.3       1 NDP201      0.0000 
     33 C2D        33.6230  -29.7380  166.0470 C.3       1 NDP201      0.0000 
     34 O2D        33.4480  -30.2290  167.3470 O.3       1 NDP201      0.0000 
     35 C1D        35.0270  -30.2000  165.5070 C.3       1 NDP201      0.0000 
     36 N1N        36.1180  -29.2630  165.9110 N.pl3     1 NDP201      0.0000 
     37 C2N        37.2190  -29.7490  166.5890 C.2       1 NDP201      0.0000 
     38 C3N        38.4110  -29.0980  166.4830 C.2       1 NDP201      0.0000 
     39 C7N        39.5330  -29.6760  167.2090 C.2       1 NDP201      0.0000 
     40 O7N        40.6380  -29.1170  167.3400 O.2       1 NDP201      0.0000 
     41 N7N        39.3280  -30.9580  167.7500 N.am      1 NDP201      0.0000 
     42 C4N        38.5590  -27.8580  165.6560 C.3       1 NDP201      0.0000 
     43 C5N        37.2340  -27.2050  165.4560 C.2       1 NDP201      0.0000 
     44 C6N        36.0840  -27.8880  165.5810 C.2       1 NDP201      0.0000 
     45 P2B        27.8570  -22.1200  154.9530 P.3       1 NDP201      0.0000 
     46 O1X        28.9990  -21.3290  154.3940 O.co2     1 NDP201      0.0000 
     47 O2X        27.2200  -23.1780  154.0460 O.co2     1 NDP201      0.0000 
     48 O3X        26.9610  -21.4470  155.9500 O.co2     1 NDP201      0.0000 
@<TRIPOS>BOND
     1    1    2 ar   
     2    1    3 ar   
     3    1    4 1    
     4    1   23 1    
     5    4    5 1    
     6    5    6 1    
     7    6    7 1    
     8    6    8 1    
     9    7   12 1    
    10    8    9 1    
    11    8   10 1    
    12   10   11 1    
    13   10   12 1    
    14   11   45 1    
    15   12   13 1    
    16   13   14 1    
    17   13   22 1    
    18   14   15 2    
    19   15   16 1    
    20   16   17 ar   
    21   16   22 ar   
    22   17   18 1    
    23   17   19 ar   
    24   19   20 ar   
    25   20   21 ar   
    26   21   22 ar   
    27   23   24 1    
    28   24   25 ar   
    29   24   26 ar   
    30   24   27 1    
    31   27   28 1    
    32   28   29 1    
    33   29   30 1    
    34   29   31 1    
    35   30   35 1    
    36   31   32 1    
    37   31   33 1    
    38   33   35 1    
    39   33   34 1    
    40   35   36 1    
    41   36   37 1    
    42   36   44 1    
    43   37   38 2    
    44   38   39 1    
    45   38   42 1    
    46   39   40 2    
    47   39   41 am   
    48   42   43 1    
    49   43   44 2    
    50   45   46 ar   
    51   45   47 ar   
    52   45   48 ar   
@<TRIPOS>SUBSTRUCTURE
     1 NDP201      1 GROUP   
@<TRIPOS>SET
ATOM$ORANGE STATIC     ATOMS   COLORGROUP SYSTEM 
42 5 5 6 6 8 8 10 10 12 12 14 14 16 16 17 17 20 \
20 22 22 28 28 29 29 31 31 33 33 35 35 37 37 38 38 39 \
39 42 42 43 43 44 44 

