#    Name: 6ezb_1_FMN
#    Modification time : Fri May 22 19:26:27 2020

@<TRIPOS>MOLECULE
6ezb_1_FMN
   31    33     1     0     1
SMALL
NO_CHARGES


@<TRIPOS>ATOM
      1 N1        -25.7250  -26.5220  -21.6840 N.2       1 FMN401      0.0000 
      2 C2        -24.8550  -27.5620  -21.6160 C.2       1 FMN401      0.0000 
      3 O2        -24.6650  -28.1610  -20.5510 O.2       1 FMN401      0.0000 
      4 N3        -24.1410  -27.9410  -22.7430 N.am      1 FMN401      0.0000 
      5 C4        -24.2390  -27.3630  -24.0000 C.2       1 FMN401      0.0000 
      6 O4        -23.4360  -27.6720  -24.8820 O.2       1 FMN401      0.0000 
      7 C4A       -25.2300  -26.2770  -24.0730 C.2       1 FMN401      0.0000 
      8 N5        -25.3610  -25.6320  -25.2090 N.2       1 FMN401      0.0000 
      9 C5A       -26.0490  -24.4250  -25.1940 C.ar      1 FMN401      0.0000 
     10 C6        -26.0280  -23.6320  -26.3410 C.ar      1 FMN401      0.0000 
     11 C7        -26.5530  -22.3440  -26.3460 C.ar      1 FMN401      0.0000 
     12 C7M       -26.4920  -21.5320  -27.6140 C.3       1 FMN401      0.0000 
     13 C8        -27.1450  -21.8340  -25.1650 C.ar      1 FMN401      0.0000 
     14 C8M       -27.7590  -20.4570  -25.1180 C.3       1 FMN401      0.0000 
     15 C9        -27.1920  -22.6340  -24.0270 C.ar      1 FMN401      0.0000 
     16 C9A       -26.6480  -23.9200  -24.0230 C.ar      1 FMN401      0.0000 
     17 N10       -26.5660  -24.7010  -22.8440 N.pl3     1 FMN401      0.0000 
     18 C10       -25.8820  -25.8880  -22.8350 C.2       1 FMN401      0.0000 
     19 C1'       -27.1410  -24.1630  -21.5980 C.3       1 FMN401      0.0000 
     20 C2'       -26.2070  -23.2030  -20.8660 C.3       1 FMN401      0.0000 
     21 O2'       -24.9730  -23.8400  -20.5330 O.3       1 FMN401      0.0000 
     22 C3'       -26.8670  -22.6590  -19.5970 C.3       1 FMN401      0.0000 
     23 O3'       -27.1200  -23.7540  -18.7260 O.3       1 FMN401      0.0000 
     24 C4'       -28.1470  -21.8340  -19.7520 C.3       1 FMN401      0.0000 
     25 O4'       -28.1370  -21.0090  -20.9220 O.3       1 FMN401      0.0000 
     26 C5'       -28.4620  -21.0220  -18.5150 C.3       1 FMN401      0.0000 
     27 O5'       -27.3490  -20.1650  -18.1920 O.3       1 FMN401      0.0000 
     28 P         -27.4020  -18.5940  -18.6190 P.3       1 FMN401      0.0000 
     29 O1P       -27.5360  -18.4930  -20.0850 O.co2     1 FMN401      0.0000 
     30 O2P       -28.6370  -17.9340  -17.9300 O.co2     1 FMN401      0.0000 
     31 O3P       -26.1530  -17.9280  -18.0100 O.co2     1 FMN401      0.0000 
@<TRIPOS>BOND
     1    1    2 1    
     2    1   18 2    
     3    2    3 2    
     4    2    4 am   
     5    4    5 am   
     6    5    6 2    
     7    5    7 1    
     8    7    8 2    
     9    7   18 1    
    10    8    9 1    
    11    9   10 ar   
    12    9   16 ar   
    13   10   11 ar   
    14   11   12 1    
    15   11   13 ar   
    16   13   14 1    
    17   13   15 ar   
    18   15   16 ar   
    19   16   17 1    
    20   17   18 1    
    21   17   19 1    
    22   19   20 1    
    23   20   21 1    
    24   20   22 1    
    25   22   23 1    
    26   22   24 1    
    27   24   25 1    
    28   24   26 1    
    29   26   27 1    
    30   27   28 1    
    31   28   29 ar   
    32   28   30 ar   
    33   28   31 ar   
@<TRIPOS>SUBSTRUCTURE
     1 FMN401      1 GROUP   
@<TRIPOS>SET
ATOM$ORANGE STATIC     ATOMS   COLORGROUP SYSTEM 
34 2 2 5 5 7 7 9 9 10 10 11 11 12 12 13 13 14 \
14 15 15 16 16 18 18 19 19 20 20 22 22 24 24 26 26 

