#    Name: 6f2y_1_B4P_CAVITY_N1_ALL
#    Modification time : Fri May 22 19:31:29 2020

@<TRIPOS>MOLECULE
6f2y_1_B4P_CAVITY_N1_ALL
   89     0     7     0     0
SMALL
NO_CHARGES


@<TRIPOS>ATOM
      1 OG        -14.5100   13.2400   22.3100 O.3       1 SER1        0.0000 
      2 OG         -8.5700   17.0000   26.5600 O.3       1 SER1        0.0000 
      3 OG         -9.8400   16.9200   27.3500 O.3       1 SER1        0.0000 
      4 OG         -7.1600   20.3900   26.3500 O.3       1 SER1        0.0000 
      5 OG         -8.1300   18.8700   27.4700 O.3       1 SER1        0.0000 
      6 OG         -8.4300   20.3000   27.1500 O.3       1 SER1        0.0000 
      7 OG         -9.4000   18.7800   28.2600 O.3       1 SER1        0.0000 
      8 OG         -8.6500   19.2100   29.5000 O.3       1 SER1        0.0000 
      9 OG         -9.6200   17.6900   30.6100 O.3       1 SER1        0.0000 
     10 N         -15.6400   16.4600   23.7000 N.am      2 ALA2        0.0000 
     11 N         -14.6000   15.4500   25.2500 N.am      2 ALA2        0.0000 
     12 N         -14.9000   16.8900   24.9300 N.am      2 ALA2        0.0000 
     13 O         -13.5600   14.4500   26.8000 O.2       2 ALA2        0.0000 
     14 O         -13.8600   15.8800   26.4800 O.2       2 ALA2        0.0000 
     15 O         -14.1600   17.3200   26.1600 O.2       2 ALA2        0.0000 
     16 O         -13.4200   17.7500   27.3900 O.2       2 ALA2        0.0000 
     17 N         -11.1200   24.8600   29.0100 N.am      2 ALA2        0.0000 
     18 N         -12.3900   24.7800   29.8000 N.am      2 ALA2        0.0000 
     19 OD1       -14.8100   14.6800   21.9900 O.co2     3 ASP3        0.0000 
     20 OD1       -12.5000   13.7600   22.7500 O.co2     3 ASP3        0.0000 
     21 OD1       -15.0400   13.5900   24.3400 O.co2     3 ASP3        0.0000 
     22 OD1       -15.3400   15.0200   24.0200 O.co2     3 ASP3        0.0000 
     23 OD1       -10.7900   15.7100   22.8700 O.co2     3 ASP3        0.0000 
     24 OD1       -12.0600   15.6300   23.6600 O.co2     3 ASP3        0.0000 
     25 OD1       -11.3200   16.0600   24.8900 O.co2     3 ASP3        0.0000 
     26 OD1       -10.2800   15.0500   26.4400 O.co2     3 ASP3        0.0000 
     27 OD1        -9.4100   26.8100   29.1200 O.co2     3 ASP3        0.0000 
     28 OD1       -10.6800   26.7300   29.9200 O.co2     3 ASP3        0.0000 
     29 OD1        -9.9400   27.1600   31.1500 O.co2     3 ASP3        0.0000 
     30 NZ        -10.0500   16.1400   24.1000 N.4       4 LYS4        0.0000 
     31 NZ         -9.3100   16.5700   25.3300 N.4       4 LYS4        0.0000 
     32 NZ        -10.9100   25.6400   32.2600 N.4       4 LYS4        0.0000 
     33 NZ        -11.8800   24.1100   33.3800 N.4       4 LYS4        0.0000 
     34 CZ        -13.7700   13.6700   23.5500 C.ar      5 PHE5        0.0000 
     35 CZ        -13.0300   14.1000   24.7800 C.ar      5 PHE5        0.0000 
     36 CZ        -14.3000   14.0200   25.5700 C.ar      5 PHE5        0.0000 
     37 CZ        -12.2900   14.5400   26.0100 C.ar      5 PHE5        0.0000 
     38 CZ        -12.6700   18.1800   28.6200 C.ar      5 PHE5        0.0000 
     39 CZ         -8.7200   21.7400   26.8300 C.ar      5 PHE5        0.0000 
     40 CZ         -9.6900   20.2200   27.9400 C.ar      5 PHE5        0.0000 
     41 CZ        -10.6600   18.6900   29.0600 C.ar      5 PHE5        0.0000 
     42 CZ         -8.5800   25.0400   27.4200 C.ar      5 PHE5        0.0000 
     43 CZ         -8.9500   20.6500   29.1700 C.ar      5 PHE5        0.0000 
     44 CZ         -9.5500   23.5100   28.5300 C.ar      5 PHE5        0.0000 
     45 CZ         -9.9200   19.1200   30.2900 C.ar      5 PHE5        0.0000 
     46 CZ        -10.2200   20.5600   29.9700 C.ar      5 PHE5        0.0000 
     47 CZ        -10.5200   21.9900   29.6500 C.ar      5 PHE5        0.0000 
     48 CZ        -10.8200   23.4300   29.3300 C.ar      5 PHE5        0.0000 
     49 CZ        -11.7900   21.9100   30.4400 C.ar      5 PHE5        0.0000 
     50 CZ         -9.1100   25.3800   29.4400 C.ar      5 PHE5        0.0000 
     51 CZ         -9.1800   19.5600   31.5200 C.ar      5 PHE5        0.0000 
     52 CZ         -9.4800   20.9900   31.2000 C.ar      5 PHE5        0.0000 
     53 CZ         -9.7800   22.4200   30.8800 C.ar      5 PHE5        0.0000 
     54 CZ        -10.0800   23.8600   30.5600 C.ar      5 PHE5        0.0000 
     55 CZ        -10.3800   25.2900   30.2400 C.ar      5 PHE5        0.0000 
     56 CZ        -10.7500   20.9000   31.9900 C.ar      5 PHE5        0.0000 
     57 CZ        -11.0500   22.3400   31.6700 C.ar      5 PHE5        0.0000 
     58 CZ        -12.6200   23.6800   32.1500 C.ar      5 PHE5        0.0000 
     59 CA        -13.1900   18.8400   25.0400 C.3       6 GLY6        0.0000 
     60 CA        -11.1800   19.3600   25.4800 C.3       6 GLY6        0.0000 
     61 CA        -11.8500   16.4000   26.9200 C.3       6 GLY6        0.0000 
     62 CA        -12.1500   17.8300   26.6000 C.3       6 GLY6        0.0000 
     63 CA        -13.1200   16.3100   27.7100 C.3       6 GLY6        0.0000 
     64 CA        -10.4400   19.7900   26.7100 C.3       6 GLY6        0.0000 
     65 CA        -11.1100   16.8300   28.1500 C.3       6 GLY6        0.0000 
     66 CA        -11.4100   18.2600   27.8300 C.3       6 GLY6        0.0000 
     67 CA        -10.3700   17.2600   29.3800 C.3       6 GLY6        0.0000 
     68 CA        -10.9600   20.1300   28.7400 C.3       6 GLY6        0.0000 
     69 CA        -11.2600   21.5600   28.4200 C.3       6 GLY6        0.0000 
     70 CA        -12.0900   23.3400   30.1200 C.3       6 GLY6        0.0000 
     71 CA        -13.3600   23.2500   30.9200 C.3       6 GLY6        0.0000 
     72 CA        -11.3500   23.7700   31.3500 C.3       6 GLY6        0.0000 
     73 CA        -11.6500   25.2100   31.0300 C.3       6 GLY6        0.0000 
     74 CA        -10.3100   22.7700   32.9000 C.3       6 GLY6        0.0000 
     75 CA        -10.6100   24.2000   32.5800 C.3       6 GLY6        0.0000 
     76 DU        -14.0700   15.1100   23.2200 H         7 CUB7        0.0000 
     77 DU        -13.3300   15.5400   24.4600 H         7 CUB7        0.0000 
     78 DU        -13.6300   16.9700   24.1300 H         7 CUB7        0.0000 
     79 DU        -10.3500   17.5800   23.7800 H         7 CUB7        0.0000 
     80 DU        -11.6200   17.4900   24.5700 H         7 CUB7        0.0000 
     81 DU        -12.5900   15.9700   25.6900 H         7 CUB7        0.0000 
     82 DU        -12.8900   17.4000   25.3700 H         7 CUB7        0.0000 
     83 DU         -9.6100   18.0100   25.0100 H         7 CUB7        0.0000 
     84 DU        -10.5800   16.4900   26.1200 H         7 CUB7        0.0000 
     85 DU        -10.8800   17.9200   25.8000 H         7 CUB7        0.0000 
     86 DU         -7.6000   18.5300   25.4400 H         7 CUB7        0.0000 
     87 DU         -8.8700   18.4400   26.2400 H         7 CUB7        0.0000 
     88 DU         -9.1700   19.8700   25.9200 H         7 CUB7        0.0000 
     89 DU        -10.1400   18.3500   27.0300 H         7 CUB7        0.0000 
@<TRIPOS>BOND
@<TRIPOS>SUBSTRUCTURE
     1 SER1        1 GROUP   
     2 ALA2       10 GROUP   
     3 ASP3       19 GROUP   
     4 LYS4       30 GROUP   
     5 PHE5       34 GROUP   
     6 GLY6       59 GROUP   
     7 CUB7       76 GROUP   
@<TRIPOS>SET

