#    Name: 6f2y_2_B4P
#    Modification time : Fri May 22 19:31:35 2020

@<TRIPOS>MOLECULE
6f2y_2_B4P
   53    58     1     0     0
SMALL
NO_CHARGES


@<TRIPOS>ATOM
      1 PA         13.1080  -16.6140    8.9310 P.3       1 B4P1001     0.0000 
      2 O1A        12.5800  -15.3090    8.4860 O.co2     1 B4P1001     0.0000 
      3 O2A        12.5820  -16.9490   10.3200 O.co2     1 B4P1001     0.0000 
      4 O3A        12.5860  -17.7370    7.9340 O.3       1 B4P1001     0.0000 
      5 PB         12.8460  -19.3050    7.9120 P.3       1 B4P1001     0.0000 
      6 O1B        11.7330  -19.9760    7.2050 O.co2     1 B4P1001     0.0000 
      7 O2B        14.1890  -19.5290    7.2320 O.co2     1 B4P1001     0.0000 
      8 O3B        12.9560  -19.8050    9.4210 O.3       1 B4P1001     0.0000 
      9 PG         12.5090  -21.1280   10.1880 P.3       1 B4P1001     0.0000 
     10 O1G        13.5150  -21.4910   11.2120 O.co2     1 B4P1001     0.0000 
     11 O2G        12.3400  -22.2700    9.1890 O.co2     1 B4P1001     0.0000 
     12 O3G        11.0970  -20.8190   10.8600 O.3       1 B4P1001     0.0000 
     13 PD         10.2750  -21.4830   12.0540 P.3       1 B4P1001     0.0000 
     14 O1D         8.8270  -21.4390   11.7430 O.co2     1 B4P1001     0.0000 
     15 O2D        10.7200  -22.9410   12.1820 O.co2     1 B4P1001     0.0000 
     16 O5E        14.6750  -16.6860    8.9490 O.3       1 B4P1001     0.0000 
     17 C5E        15.6870  -16.2600    9.8820 C.3       1 B4P1001     0.0000 
     18 C4E        16.4590  -17.4800   10.3180 C.3       1 B4P1001     0.0000 
     19 O4E        17.3820  -17.8770    9.2790 O.3       1 B4P1001     0.0000 
     20 C3E        17.2780  -17.3270   11.6010 C.3       1 B4P1001     0.0000 
     21 O3E        17.1040  -18.4540   12.4550 O.3       1 B4P1001     0.0000 
     22 C2E        18.7120  -17.1730   11.0840 C.3       1 B4P1001     0.0000 
     23 O2E        19.6800  -17.6330   12.0220 O.3       1 B4P1001     0.0000 
     24 C1E        18.6760  -18.0390    9.8250 C.3       1 B4P1001     0.0000 
     25 N9A        19.6590  -17.6830    8.8030 N.pl3     1 B4P1001     0.0000 
     26 C8A        19.7540  -16.4950    8.1240 C.2       1 B4P1001     0.0000 
     27 N7A        20.7090  -16.4650    7.2250 N.2       1 B4P1001     0.0000 
     28 C5A        21.2860  -17.7210    7.3180 C.ar      1 B4P1001     0.0000 
     29 C6A        22.3560  -18.3280    6.6300 C.ar      1 B4P1001     0.0000 
     30 N6A        23.0470  -17.7290    5.6560 N.pl3     1 B4P1001     0.0000 
     31 N1A        22.6900  -19.5930    6.9740 N.ar      1 B4P1001     0.0000 
     32 C2A        21.9920  -20.2040    7.9400 C.ar      1 B4P1001     0.0000 
     33 N3A        20.9610  -19.7370    8.6530 N.ar      1 B4P1001     0.0000 
     34 C4A        20.6540  -18.4820    8.2910 C.ar      1 B4P1001     0.0000 
     35 O5F        10.6440  -20.7240   13.4040 O.3       1 B4P1001     0.0000 
     36 C5F        11.9000  -20.1130   13.7770 C.3       1 B4P1001     0.0000 
     37 C4F        11.8520  -19.6390   15.2120 C.3       1 B4P1001     0.0000 
     38 O4F        10.6580  -18.8580   15.4390 O.3       1 B4P1001     0.0000 
     39 C3F        11.8780  -20.7200   16.2920 C.3       1 B4P1001     0.0000 
     40 O3F        12.7350  -20.3540   17.3690 O.3       1 B4P1001     0.0000 
     41 C2F        10.4050  -20.8490   16.6980 C.3       1 B4P1001     0.0000 
     42 O2F        10.2390  -21.2470   18.0550 O.3       1 B4P1001     0.0000 
     43 C1F         9.8780  -19.4290   16.4730 C.3       1 B4P1001     0.0000 
     44 N9B         8.4730  -19.3740   16.0710 N.pl3     1 B4P1001     0.0000 
     45 C8B         7.9640  -19.6310   14.8250 C.2       1 B4P1001     0.0000 
     46 N7B         6.6630  -19.4920   14.7370 N.2       1 B4P1001     0.0000 
     47 C5B         6.2850  -19.1230   16.0180 C.ar      1 B4P1001     0.0000 
     48 C6B         5.0300  -18.8430   16.5940 C.ar      1 B4P1001     0.0000 
     49 N6B         3.8790  -18.8730   15.9160 N.pl3     1 B4P1001     0.0000 
     50 N1B         4.9970  -18.5300   17.9100 N.ar      1 B4P1001     0.0000 
     51 C2B         6.1480  -18.4980   18.5950 C.ar      1 B4P1001     0.0000 
     52 N3B         7.3900  -18.7360   18.1590 N.ar      1 B4P1001     0.0000 
     53 C4B         7.3910  -19.0470   16.8540 C.ar      1 B4P1001     0.0000 
@<TRIPOS>BOND
     1    1    2 ar   
     2    1    3 ar   
     3    1    4 1    
     4    1   16 1    
     5    4    5 1    
     6    5    6 ar   
     7    5    7 ar   
     8    5    8 1    
     9    8    9 1    
    10    9   10 ar   
    11    9   11 ar   
    12    9   12 1    
    13   12   13 1    
    14   13   14 ar   
    15   13   15 ar   
    16   13   35 1    
    17   16   17 1    
    18   17   18 1    
    19   18   19 1    
    20   18   20 1    
    21   19   24 1    
    22   20   21 1    
    23   20   22 1    
    24   22   23 1    
    25   22   24 1    
    26   24   25 1    
    27   25   26 1    
    28   25   34 1    
    29   26   27 2    
    30   27   28 1    
    31   28   29 ar   
    32   28   34 ar   
    33   29   30 1    
    34   29   31 ar   
    35   31   32 ar   
    36   32   33 ar   
    37   33   34 ar   
    38   35   36 1    
    39   36   37 1    
    40   37   38 1    
    41   37   39 1    
    42   38   43 1    
    43   39   40 1    
    44   39   41 1    
    45   41   42 1    
    46   41   43 1    
    47   43   44 1    
    48   44   45 1    
    49   44   53 1    
    50   45   46 2    
    51   46   47 1    
    52   47   48 ar   
    53   47   53 ar   
    54   48   49 1    
    55   48   50 ar   
    56   50   51 ar   
    57   51   52 ar   
    58   52   53 ar   
@<TRIPOS>SUBSTRUCTURE
     1 B4P1001     1 GROUP   
@<TRIPOS>SET

