#    Name: 6f2y_1_B4P
#    Modification time : Fri May 22 19:31:27 2020

@<TRIPOS>MOLECULE
6f2y_1_B4P
   53    58     1     0     0
SMALL
NO_CHARGES


@<TRIPOS>ATOM
      1 PA        -10.9900   14.3480   25.7920 P.3       1 B4P1001     0.0000 
      2 O1A       -10.4550   13.0730   26.3110 O.co2     1 B4P1001     0.0000 
      3 O2A       -10.5260   14.5790   24.3610 O.co2     1 B4P1001     0.0000 
      4 O3A       -12.5770   14.2540   25.7520 O.3       1 B4P1001     0.0000 
      5 PB        -13.7910   15.2210   26.0980 P.3       1 B4P1001     0.0000 
      6 O1B       -13.3400   16.4300   26.8270 O.co2     1 B4P1001     0.0000 
      7 O2B       -14.7500   14.4030   26.9370 O.co2     1 B4P1001     0.0000 
      8 O3B       -14.4790   15.6170   24.7160 O.3       1 B4P1001     0.0000 
      9 PG        -14.0660   16.6320   23.5580 P.3       1 B4P1001     0.0000 
     10 O1G       -12.9450   17.4960   23.9960 O.co2     1 B4P1001     0.0000 
     11 O2G       -15.2840   17.4880   23.2070 O.co2     1 B4P1001     0.0000 
     12 O3G       -13.6360   15.7740   22.2860 O.3       1 B4P1001     0.0000 
     13 PD        -13.9950   15.8910   20.7380 P.3       1 B4P1001     0.0000 
     14 O1D       -15.0710   16.8920   20.5480 O.co2     1 B4P1001     0.0000 
     15 O2D       -14.4940   14.5250   20.2720 O.co2     1 B4P1001     0.0000 
     16 O5E       -10.5630   15.5580   26.6710 O.3       1 B4P1001     0.0000 
     17 C5E        -9.3590   16.3390   26.7470 C.3       1 B4P1001     0.0000 
     18 C4E        -9.7140   17.7660   26.4200 C.3       1 B4P1001     0.0000 
     19 O4E       -10.2750   18.4100   27.5870 O.3       1 B4P1001     0.0000 
     20 C3E        -8.5510   18.6410   25.9550 C.3       1 B4P1001     0.0000 
     21 O3E        -8.9410   19.4690   24.8620 O.3       1 B4P1001     0.0000 
     22 C2E        -8.1890   19.4270   27.2170 C.3       1 B4P1001     0.0000 
     23 O2E        -7.5740   20.6730   26.9160 O.3       1 B4P1001     0.0000 
     24 C1E        -9.5630   19.6000   27.8640 C.3       1 B4P1001     0.0000 
     25 N9A        -9.5390   19.7990   29.3120 N.pl3     1 B4P1001     0.0000 
     26 C8A        -9.0680   18.9250   30.2570 C.2       1 B4P1001     0.0000 
     27 N7A        -9.1930   19.3500   31.4920 N.2       1 B4P1001     0.0000 
     28 C5A        -9.7900   20.5930   31.3520 C.ar      1 B4P1001     0.0000 
     29 C6A       -10.2040   21.5590   32.2910 C.ar      1 B4P1001     0.0000 
     30 N6A       -10.0610   21.4200   33.6130 N.pl3     1 B4P1001     0.0000 
     31 N1A       -10.7800   22.6890   31.8200 N.ar      1 B4P1001     0.0000 
     32 C2A       -10.9280   22.8340   30.4970 C.ar      1 B4P1001     0.0000 
     33 N3A       -10.5740   21.9950   29.5160 N.ar      1 B4P1001     0.0000 
     34 C4A       -10.0080   20.8840   30.0130 C.ar      1 B4P1001     0.0000 
     35 O5F       -12.6800   16.2180   19.9130 O.3       1 B4P1001     0.0000 
     36 C5F       -11.4210   16.7730   20.3600 C.3       1 B4P1001     0.0000 
     37 C4F       -10.4230   16.7480   19.2230 C.3       1 B4P1001     0.0000 
     38 O4F       -10.3020   15.4080   18.6980 O.3       1 B4P1001     0.0000 
     39 C3F       -10.7180   17.6570   18.0280 C.3       1 B4P1001     0.0000 
     40 O3F        -9.5380   18.3100   17.5690 O.3       1 B4P1001     0.0000 
     41 C2F       -11.3250   16.6970   16.9970 C.3       1 B4P1001     0.0000 
     42 O2F       -11.0960   17.0990   15.6510 O.3       1 B4P1001     0.0000 
     43 C1F       -10.6050   15.3840   17.3150 C.3       1 B4P1001     0.0000 
     44 N9B       -11.4020   14.1880   17.0410 N.pl3     1 B4P1001     0.0000 
     45 C8B       -12.5060   13.7650   17.7340 C.2       1 B4P1001     0.0000 
     46 N7B       -13.0400   12.6610   17.2710 N.2       1 B4P1001     0.0000 
     47 C5B       -12.2300   12.3310   16.1950 C.ar      1 B4P1001     0.0000 
     48 C6B       -12.2670   11.2680   15.2710 C.ar      1 B4P1001     0.0000 
     49 N6B       -13.2060   10.3190   15.2710 N.pl3     1 B4P1001     0.0000 
     50 N1B       -11.3100   11.2320   14.3140 N.ar      1 B4P1001     0.0000 
     51 C2B       -10.3890   12.2040   14.2870 C.ar      1 B4P1001     0.0000 
     52 N3B       -10.2560   13.2560   15.1030 N.ar      1 B4P1001     0.0000 
     53 C4B       -11.2140   13.2630   16.0420 C.ar      1 B4P1001     0.0000 
@<TRIPOS>BOND
     1    1    2 ar   
     2    1    3 ar   
     3    1    4 1    
     4    1   16 1    
     5    4    5 1    
     6    5    6 ar   
     7    5    7 ar   
     8    5    8 1    
     9    8    9 1    
    10    9   10 ar   
    11    9   11 ar   
    12    9   12 1    
    13   12   13 1    
    14   13   14 ar   
    15   13   15 ar   
    16   13   35 1    
    17   16   17 1    
    18   17   18 1    
    19   18   19 1    
    20   18   20 1    
    21   19   24 1    
    22   20   21 1    
    23   20   22 1    
    24   22   23 1    
    25   22   24 1    
    26   24   25 1    
    27   25   26 1    
    28   25   34 1    
    29   26   27 2    
    30   27   28 1    
    31   28   29 ar   
    32   28   34 ar   
    33   29   30 1    
    34   29   31 ar   
    35   31   32 ar   
    36   32   33 ar   
    37   33   34 ar   
    38   35   36 1    
    39   36   37 1    
    40   37   38 1    
    41   37   39 1    
    42   38   43 1    
    43   39   40 1    
    44   39   41 1    
    45   41   42 1    
    46   41   43 1    
    47   43   44 1    
    48   44   45 1    
    49   44   53 1    
    50   45   46 2    
    51   46   47 1    
    52   47   48 ar   
    53   47   53 ar   
    54   48   49 1    
    55   48   50 ar   
    56   50   51 ar   
    57   51   52 ar   
    58   52   53 ar   
@<TRIPOS>SUBSTRUCTURE
     1 B4P1001     1 GROUP   
@<TRIPOS>SET

