#    Name: 6f2y_2_B4P_CAVITY_N1_8
#    Modification time : Fri May 22 19:31:37 2020

@<TRIPOS>MOLECULE
6f2y_2_B4P_CAVITY_N1_8
   84     0     7     0     0
SMALL
NO_CHARGES


@<TRIPOS>ATOM
      1 OG         18.7400  -16.1700    7.0900 O.3       1 SER1        0.0000 
      2 OG         17.4800  -16.2500    7.8900 O.3       1 SER1        0.0000 
      3 OG         18.5200  -17.2600    9.4400 O.3       1 SER1        0.0000 
      4 OG         17.2500  -17.3400   10.2300 O.3       1 SER1        0.0000 
      5 OG         16.9500  -15.9100    9.9100 O.3       1 SER1        0.0000 
      6 OG         19.2600  -16.8300   10.6700 O.3       1 SER1        0.0000 
      7 OG         17.9900  -16.9100   11.4600 O.3       1 SER1        0.0000 
      8 OG         17.6900  -15.4800   11.1400 O.3       1 SER1        0.0000 
      9 OG         16.4200  -15.5700   11.9400 O.3       1 SER1        0.0000 
     10 OG         18.7300  -16.4800   12.6900 O.3       1 SER1        0.0000 
     11 OG         17.1600  -15.1400   13.1700 O.3       1 SER1        0.0000 
     12 OG         15.8900  -15.2200   13.9600 O.3       1 SER1        0.0000 
     13 OG         17.9000  -14.7100   14.4000 O.3       1 SER1        0.0000 
     14 O          15.3200  -20.0700    6.8600 O.2       2 ALA2        0.0000 
     15 N          14.3500  -21.5900    7.9800 N.am      2 ALA2        0.0000 
     16 O          14.0500  -20.1600    7.6500 O.2       2 ALA2        0.0000 
     17 N          13.3800  -23.1100    9.0900 N.am      2 ALA2        0.0000 
     18 N          13.0800  -21.6800    8.7700 N.am      2 ALA2        0.0000 
     19 N          12.7800  -20.2400    8.4500 N.am      2 ALA2        0.0000 
     20 N          11.8100  -21.7600    9.5600 N.am      2 ALA2        0.0000 
     21 N          16.1200  -14.1300   11.6200 N.am      2 ALA2        0.0000 
     22 OD1        11.5100  -20.3300    9.2400 O.co2     3 ASP3        0.0000 
     23 OD1        13.2300  -18.3800    9.3600 O.co2     3 ASP3        0.0000 
     24 OD1        12.9300  -16.9400    9.0400 O.co2     3 ASP3        0.0000 
     25 OD1        11.9600  -18.4700   10.1500 O.co2     3 ASP3        0.0000 
     26 OD1        13.9700  -17.9500   10.5900 O.co2     3 ASP3        0.0000 
     27 OD1        22.9200  -19.8600    7.7000 O.co2     3 ASP3        0.0000 
     28 NZ         16.2100  -16.3400    8.6800 N.4       4 LYS4        0.0000 
     29 NZ         14.9400  -16.4300    9.4700 N.4       4 LYS4        0.0000 
     30 NZ         13.6700  -16.5100   10.2700 N.4       4 LYS4        0.0000 
     31 NZ         15.6800  -16.0000   10.7100 N.4       4 LYS4        0.0000 
     32 NZ         15.3800  -14.5600   10.3800 N.4       4 LYS4        0.0000 
     33 NZ         15.1500  -15.6500   12.7300 N.4       4 LYS4        0.0000 
     34 CZ         12.4800  -18.8100    8.1300 C.ar      5 PHE5        0.0000 
     35 CZ         11.2100  -18.9000    8.9200 C.ar      5 PHE5        0.0000 
     36 CZ         18.0000  -16.6000    5.8600 C.ar      5 PHE5        0.0000 
     37 CZ         17.0300  -18.1200    6.9800 C.ar      5 PHE5        0.0000 
     38 CZ         10.9900  -19.9900   11.2700 C.ar      5 PHE5        0.0000 
     39 CZ         21.8800  -18.8600    6.1400 C.ar      5 PHE5        0.0000 
     40 CZ         21.5800  -17.4300    5.8200 C.ar      5 PHE5        0.0000 
     41 CZ         20.9100  -20.3800    7.2600 C.ar      5 PHE5        0.0000 
     42 CZ         20.3100  -17.5100    6.6200 C.ar      5 PHE5        0.0000 
     43 CZ         19.3400  -19.0300    7.7300 C.ar      5 PHE5        0.0000 
     44 CZ         19.0400  -17.6000    7.4100 C.ar      5 PHE5        0.0000 
     45 CZ         17.7700  -17.6900    8.2100 C.ar      5 PHE5        0.0000 
     46 CZ         22.6200  -18.4300    7.3800 C.ar      5 PHE5        0.0000 
     47 CZ         22.3200  -17.0000    7.0500 C.ar      5 PHE5        0.0000 
     48 CZ         22.0200  -15.5600    6.7300 C.ar      5 PHE5        0.0000 
     49 CZ         21.6500  -19.9500    8.4900 C.ar      5 PHE5        0.0000 
     50 CZ         21.3500  -18.5200    8.1700 C.ar      5 PHE5        0.0000 
     51 CZ         21.0500  -17.0800    7.8500 C.ar      5 PHE5        0.0000 
     52 CZ         20.7500  -15.6500    7.5300 C.ar      5 PHE5        0.0000 
     53 CZ         20.0800  -18.6000    8.9600 C.ar      5 PHE5        0.0000 
     54 CZ         19.7800  -17.1700    8.6400 C.ar      5 PHE5        0.0000 
     55 CZ         19.5600  -18.2600   10.9900 C.ar      5 PHE5        0.0000 
     56 CZ         20.3000  -17.8300   12.2200 C.ar      5 PHE5        0.0000 
     57 CA         14.6500  -23.0200    8.3000 C.3       6 GLY6        0.0000 
     58 CA         13.7500  -18.7200    7.3300 C.3       6 GLY6        0.0000 
     59 CA         17.3300  -19.5500    7.3000 C.3       6 GLY6        0.0000 
     60 CA         16.0600  -19.6400    8.0900 C.3       6 GLY6        0.0000 
     61 CA         15.7600  -18.2000    7.7700 C.3       6 GLY6        0.0000 
     62 CA         15.3900  -22.5900    9.5300 C.3       6 GLY6        0.0000 
     63 CA         15.0900  -21.1600    9.2100 C.3       6 GLY6        0.0000 
     64 CA         14.7900  -19.7300    8.8900 C.3       6 GLY6        0.0000 
     65 CA         14.4900  -18.2900    8.5600 C.3       6 GLY6        0.0000 
     66 CA         14.2000  -16.8600    8.2400 C.3       6 GLY6        0.0000 
     67 CA         21.2800  -15.9900    5.5000 C.3       6 GLY6        0.0000 
     68 CA         20.0100  -16.0800    6.3000 C.3       6 GLY6        0.0000 
     69 CA         18.0700  -19.1200    8.5300 C.3       6 GLY6        0.0000 
     70 CA         16.8000  -19.2100    9.3200 C.3       6 GLY6        0.0000 
     71 CA         15.5400  -19.3000   10.1200 C.3       6 GLY6        0.0000 
     72 CA         18.8100  -18.6900    9.7600 C.3       6 GLY6        0.0000 
     73 CA         17.5500  -18.7800   10.5500 C.3       6 GLY6        0.0000 
     74 CA         18.4300  -15.0500   12.3700 C.3       6 GLY6        0.0000 
     75 DU         13.8200  -21.2500   10.0000 H         7 CUB7        0.0000 
     76 DU         13.5200  -19.8100    9.6800 H         7 CUB7        0.0000 
     77 DU         12.2600  -19.9000   10.4700 H         7 CUB7        0.0000 
     78 DU         16.5100  -17.7700    9.0000 H         7 CUB7        0.0000 
     79 DU         15.2400  -17.8600    9.8000 H         7 CUB7        0.0000 
     80 DU         14.2700  -19.3800   10.9100 H         7 CUB7        0.0000 
     81 DU         15.9800  -17.4300   11.0300 H         7 CUB7        0.0000 
     82 DU         18.2900  -18.3500   11.7800 H         7 CUB7        0.0000 
     83 DU         16.7200  -17.0000   12.2600 H         7 CUB7        0.0000 
     84 DU         17.4600  -16.5700   13.4900 H         7 CUB7        0.0000 
@<TRIPOS>BOND
@<TRIPOS>SUBSTRUCTURE
     1 SER1        1 GROUP   
     2 ALA2       14 GROUP   
     3 ASP3       22 GROUP   
     4 LYS4       28 GROUP   
     5 PHE5       34 GROUP   
     6 GLY6       57 GROUP   
     7 CUB7       75 GROUP   
@<TRIPOS>SET

