#    Name: 6rkc_15_SAM
#    Modification time : Fri May 22 19:28:23 2020

@<TRIPOS>MOLECULE
6rkc_15_SAM
   27    29     1     0     0
SMALL
NO_CHARGES


@<TRIPOS>ATOM
      1 N          49.3120   30.2950  -40.5030 N.4       1 SAM402      0.0000 
      2 CA         50.0700   31.3780  -41.1160 C.3       1 SAM402      0.0000 
      3 C          50.3920   32.4750  -40.0750 C.2       1 SAM402      0.0000 
      4 O          50.1770   33.7100  -40.3150 O.co2     1 SAM402      0.0000 
      5 OXT        50.9050   32.1050  -38.9620 O.co2     1 SAM402      0.0000 
      6 CB         49.2480   31.8530  -42.3260 C.3       1 SAM402      0.0000 
      7 CG         49.9620   32.6790  -43.4240 C.3       1 SAM402      0.0000 
      8 SD         51.1460   31.9150  -44.3680 S.3       1 SAM402      0.0000 
      9 CE         52.2480   33.1310  -44.7050 C.3       1 SAM402      0.0000 
     10 C5'        50.4210   31.2220  -45.7160 C.3       1 SAM402      0.0000 
     11 C4'        51.3060   30.3700  -46.6530 C.3       1 SAM402      0.0000 
     12 O4'        52.2740   31.2890  -47.1640 O.3       1 SAM402      0.0000 
     13 C3'        52.1390   29.2050  -46.1460 C.3       1 SAM402      0.0000 
     14 O3'        51.5800   27.8990  -46.0880 O.3       1 SAM402      0.0000 
     15 C2'        53.2860   29.2130  -47.1350 C.3       1 SAM402      0.0000 
     16 O2'        52.9980   28.6690  -48.3890 O.3       1 SAM402      0.0000 
     17 C1'        53.5480   30.6880  -47.3190 C.3       1 SAM402      0.0000 
     18 N9         54.6160   31.1690  -46.3620 N.pl3     1 SAM402      0.0000 
     19 C8         55.0760   30.5780  -45.2240 C.2       1 SAM402      0.0000 
     20 N7         56.0370   31.3100  -44.7150 N.2       1 SAM402      0.0000 
     21 C5         56.2330   32.3620  -45.4890 C.ar      1 SAM402      0.0000 
     22 C6         57.1440   33.5130  -45.4790 C.ar      1 SAM402      0.0000 
     23 N6         58.0670   33.6810  -44.4730 N.pl3     1 SAM402      0.0000 
     24 N1         56.9950   34.3780  -46.5150 N.ar      1 SAM402      0.0000 
     25 C2         56.0820   34.2430  -47.5060 C.ar      1 SAM402      0.0000 
     26 N3         55.2460   33.2040  -47.5390 N.ar      1 SAM402      0.0000 
     27 C4         55.3000   32.2650  -46.5800 C.ar      1 SAM402      0.0000 
@<TRIPOS>BOND
     1    1    2 1    
     2    2    3 1    
     3    2    6 1    
     4    3    4 ar   
     5    3    5 ar   
     6    6    7 1    
     7    7    8 1    
     8    8    9 1    
     9    8   10 1    
    10   10   11 1    
    11   11   12 1    
    12   11   13 1    
    13   12   17 1    
    14   13   14 1    
    15   13   15 1    
    16   15   16 1    
    17   15   17 1    
    18   17   18 1    
    19   18   19 1    
    20   18   27 1    
    21   19   20 2    
    22   20   21 1    
    23   21   22 ar   
    24   21   27 ar   
    25   22   23 1    
    26   22   24 ar   
    27   24   25 ar   
    28   25   26 ar   
    29   26   27 ar   
@<TRIPOS>SUBSTRUCTURE
     1 SAM402      1 GROUP   
@<TRIPOS>SET

