#    Name: 6rkc_16_SAM
#    Modification time : Fri May 22 19:28:30 2020

@<TRIPOS>MOLECULE
6rkc_16_SAM
   27    29     1     0     0
SMALL
NO_CHARGES


@<TRIPOS>ATOM
      1 N          37.7570   -5.0150  -50.2600 N.4       1 SAM403      0.0000 
      2 CA         36.6910   -5.6110  -49.4600 C.3       1 SAM403      0.0000 
      3 C          35.8540   -6.5930  -50.3100 C.2       1 SAM403      0.0000 
      4 O          36.3520   -6.9410  -51.3830 O.co2     1 SAM403      0.0000 
      5 OXT        34.7720   -7.0820  -49.9300 O.co2     1 SAM403      0.0000 
      6 CB         35.9720   -4.3960  -48.8300 C.3       1 SAM403      0.0000 
      7 CG         36.4920   -3.9940  -47.4160 C.3       1 SAM403      0.0000 
      8 SD         37.0160   -2.3590  -47.3300 S.3       1 SAM403      0.0000 
      9 CE         38.0280   -2.0840  -46.0640 C.3       1 SAM403      0.0000 
     10 C5'        35.6500   -1.4040  -47.3640 C.3       1 SAM403      0.0000 
     11 C4'        35.0090   -0.7760  -46.1220 C.3       1 SAM403      0.0000 
     12 O4'        35.9110   -0.4510  -45.0860 O.3       1 SAM403      0.0000 
     13 C3'        34.3670    0.5680  -46.5290 C.3       1 SAM403      0.0000 
     14 O3'        32.9680    0.6480  -46.2610 O.3       1 SAM403      0.0000 
     15 C2'        35.0370    1.6410  -45.7020 C.3       1 SAM403      0.0000 
     16 O2'        34.1010    2.5300  -45.1380 O.3       1 SAM403      0.0000 
     17 C1'        35.7310    0.8740  -44.6130 C.3       1 SAM403      0.0000 
     18 N9         37.0370    1.4950  -44.4130 N.pl3     1 SAM403      0.0000 
     19 C8         37.4970    1.9260  -43.2640 C.2       1 SAM403      0.0000 
     20 N7         38.7520    2.3680  -43.4430 N.2       1 SAM403      0.0000 
     21 C5         39.0830    2.2500  -44.7000 C.ar      1 SAM403      0.0000 
     22 C6         40.2360    2.5550  -45.5180 C.ar      1 SAM403      0.0000 
     23 N6         41.2990    3.1300  -45.0340 N.pl3     1 SAM403      0.0000 
     24 N1         40.2400    2.2760  -46.7950 N.ar      1 SAM403      0.0000 
     25 C2         39.1620    1.7110  -47.3430 C.ar      1 SAM403      0.0000 
     26 N3         38.0620    1.3970  -46.6230 N.ar      1 SAM403      0.0000 
     27 C4         37.9570    1.6620  -45.3260 C.ar      1 SAM403      0.0000 
@<TRIPOS>BOND
     1    1    2 1    
     2    2    3 1    
     3    2    6 1    
     4    3    4 ar   
     5    3    5 ar   
     6    6    7 1    
     7    7    8 1    
     8    8    9 1    
     9    8   10 1    
    10   10   11 1    
    11   11   12 1    
    12   11   13 1    
    13   12   17 1    
    14   13   14 1    
    15   13   15 1    
    16   15   16 1    
    17   15   17 1    
    18   17   18 1    
    19   18   19 1    
    20   18   27 1    
    21   19   20 2    
    22   20   21 1    
    23   21   22 ar   
    24   21   27 ar   
    25   22   23 1    
    26   22   24 ar   
    27   24   25 ar   
    28   25   26 ar   
    29   26   27 ar   
@<TRIPOS>SUBSTRUCTURE
     1 SAM403      1 GROUP   
@<TRIPOS>SET

