#    Name: 6rkc_14_SAM_CAVITY_N1_4
#    Modification time : Fri May 22 19:28:17 2020

@<TRIPOS>MOLECULE
6rkc_14_SAM_CAVITY_N1_4
   70     0     5     0     0
SMALL
NO_CHARGES


@<TRIPOS>ATOM
      1 N          50.9800   25.7300  -28.1900 N.am      1 ALA2        0.0000 
      2 O          51.5200   27.0200  -28.7100 O.2       1 ALA2        0.0000 
      3 N          52.0700   28.3200  -29.2300 N.am      1 ALA2        0.0000 
      4 N          53.4200   27.7000  -29.3700 N.am      1 ALA2        0.0000 
      5 O          51.8600   27.4500  -27.3100 O.2       1 ALA2        0.0000 
      6 O          53.2200   26.8200  -27.4500 O.2       1 ALA2        0.0000 
      7 N          51.0500   29.3700  -27.7000 N.am      1 ALA2        0.0000 
      8 N          52.4000   28.7400  -27.8300 N.am      1 ALA2        0.0000 
      9 N          53.7600   28.1200  -27.9700 N.am      1 ALA2        0.0000 
     10 N          52.9500   30.0400  -28.3600 N.am      1 ALA2        0.0000 
     11 N          54.3000   29.4200  -28.4900 N.am      1 ALA2        0.0000 
     12 N          49.4800   29.1200  -25.6400 N.am      1 ALA2        0.0000 
     13 N          51.3800   29.7900  -26.3000 N.am      1 ALA2        0.0000 
     14 N          55.4500   27.9200  -26.7100 N.am      1 ALA2        0.0000 
     15 N          53.2800   30.4600  -26.9600 N.am      1 ALA2        0.0000 
     16 N          56.0000   29.2200  -27.2300 N.am      1 ALA2        0.0000 
     17 N          51.1800   28.9200  -24.3700 N.am      1 ALA2        0.0000 
     18 N          51.7200   30.2200  -24.9000 N.am      1 ALA2        0.0000 
     19 N          53.6200   30.8900  -25.5600 N.am      1 ALA2        0.0000 
     20 N          55.5200   31.5600  -26.2200 N.am      1 ALA2        0.0000 
     21 N          51.5100   29.3400  -22.9800 N.am      1 ALA2        0.0000 
     22 N          52.0600   30.6400  -23.5000 N.am      1 ALA2        0.0000 
     23 N          53.9600   31.3100  -24.1600 N.am      1 ALA2        0.0000 
     24 N          50.4900   30.3900  -21.4400 N.am      1 ALA2        0.0000 
     25 NZ         54.4300   28.9700  -25.1700 N.4       2 LYS4        0.0000 
     26 NZ         54.9800   30.2600  -25.7000 N.4       2 LYS4        0.0000 
     27 NZ         53.4100   30.0200  -23.6400 N.4       2 LYS4        0.0000 
     28 CZ         49.4200   25.4800  -26.1300 C.ar      3 PHE5        0.0000 
     29 CZ         50.7700   24.8500  -26.2600 C.ar      3 PHE5        0.0000 
     30 CZ         48.4000   26.5300  -24.5900 C.ar      3 PHE5        0.0000 
     31 CZ         48.9400   27.8200  -25.1100 C.ar      3 PHE5        0.0000 
     32 CZ         50.3000   27.2000  -25.2500 C.ar      3 PHE5        0.0000 
     33 CZ         49.2800   28.2500  -23.7100 C.ar      3 PHE5        0.0000 
     34 CZ         50.6300   27.6200  -23.8500 C.ar      3 PHE5        0.0000 
     35 CZ         50.9700   28.0500  -22.4500 C.ar      3 PHE5        0.0000 
     36 CZ         52.3300   27.4200  -22.5900 C.ar      3 PHE5        0.0000 
     37 CZ         51.3100   28.4700  -21.0500 C.ar      3 PHE5        0.0000 
     38 CZ         52.6600   27.8500  -21.1900 C.ar      3 PHE5        0.0000 
     39 CA         47.7200   25.6800  -27.3900 C.3       4 GLY6        0.0000 
     40 CA         49.0800   25.0500  -27.5200 C.3       4 GLY6        0.0000 
     41 CA         50.4400   24.4300  -27.6600 C.3       4 GLY6        0.0000 
     42 CA         46.9100   27.6000  -27.7700 C.3       4 GLY6        0.0000 
     43 CA         48.2700   26.9800  -27.9100 C.3       4 GLY6        0.0000 
     44 CA         49.6200   26.3500  -28.0500 C.3       4 GLY6        0.0000 
     45 CA         48.8100   28.2700  -28.4300 C.3       4 GLY6        0.0000 
     46 CA         50.1700   27.6500  -28.5700 C.3       4 GLY6        0.0000 
     47 CA         46.7000   26.7300  -25.8500 C.3       4 GLY6        0.0000 
     48 CA         47.2500   28.0200  -26.3700 C.3       4 GLY6        0.0000 
     49 CA         51.3200   26.1500  -26.7900 C.3       4 GLY6        0.0000 
     50 CA         52.6700   25.5300  -26.9200 C.3       4 GLY6        0.0000 
     51 CA         49.1500   28.7000  -27.0400 C.3       4 GLY6        0.0000 
     52 CA         56.2000   30.0900  -29.1600 C.3       4 GLY6        0.0000 
     53 CA         51.6500   26.5700  -25.3900 C.3       4 GLY6        0.0000 
     54 CA         52.2000   27.8700  -25.9100 C.3       4 GLY6        0.0000 
     55 CA         52.7400   29.1700  -26.4300 C.3       4 GLY6        0.0000 
     56 CA         54.1000   28.5400  -26.5700 C.3       4 GLY6        0.0000 
     57 CA         55.7300   32.4300  -28.1400 C.3       4 GLY6        0.0000 
     58 CA         51.9900   27.0000  -23.9900 C.3       4 GLY6        0.0000 
     59 CA         52.5300   28.3000  -24.5100 C.3       4 GLY6        0.0000 
     60 CA         53.0800   29.5900  -25.0400 C.3       4 GLY6        0.0000 
     61 CA         49.6100   28.6700  -22.3100 C.3       4 GLY6        0.0000 
     62 CA         52.8700   28.7200  -23.1100 C.3       4 GLY6        0.0000 
     63 DU         48.0600   26.1000  -25.9900 H         5 CUB7        0.0000 
     64 DU         48.6000   27.4000  -26.5100 H         5 CUB7        0.0000 
     65 DU         49.9600   26.7700  -26.6500 H         5 CUB7        0.0000 
     66 DU         50.5000   28.0700  -27.1700 H         5 CUB7        0.0000 
     67 DU         50.8400   28.5000  -25.7700 H         5 CUB7        0.0000 
     68 DU         54.6400   29.8400  -27.1000 H         5 CUB7        0.0000 
     69 DU         55.1800   31.1400  -27.6200 H         5 CUB7        0.0000 
     70 DU         51.6400   28.9000  -19.6500 H         5 CUB7        0.0000 
@<TRIPOS>BOND
@<TRIPOS>SUBSTRUCTURE
     1 ALA2        1 GROUP   
     2 LYS4       25 GROUP   
     3 PHE5       28 GROUP   
     4 GLY6       39 GROUP   
     5 CUB7       63 GROUP   
@<TRIPOS>SET

