#    Name: 6rkc_9_SAM
#    Modification time : Fri May 22 19:27:55 2020

@<TRIPOS>MOLECULE
6rkc_9_SAM
   27    29     1     0     0
SMALL
NO_CHARGES


@<TRIPOS>ATOM
      1 N          39.5360    0.6230  -16.7600 N.4       1 SAM404      0.0000 
      2 CA         38.4540   -0.0410  -16.0160 C.3       1 SAM404      0.0000 
      3 C          37.9560    0.9070  -14.8010 C.2       1 SAM404      0.0000 
      4 O          37.6450    0.2860  -13.6950 O.co2     1 SAM404      0.0000 
      5 OXT        37.7870    2.2850  -14.9270 O.co2     1 SAM404      0.0000 
      6 CB         39.0250   -1.3490  -15.3700 C.3       1 SAM404      0.0000 
      7 CG         39.4830   -2.4630  -16.3550 C.3       1 SAM404      0.0000 
      8 SD         38.8140   -4.0180  -16.3740 S.3       1 SAM404      0.0000 
      9 CE         38.2510   -4.5100  -14.8880 C.3       1 SAM404      0.0000 
     10 C5'        39.9500   -5.1340  -16.9150 C.3       1 SAM404      0.0000 
     11 C4'        39.4270   -6.2470  -17.8420 C.3       1 SAM404      0.0000 
     12 O4'        38.3580   -7.0620  -17.2910 O.3       1 SAM404      0.0000 
     13 C3'        38.9760   -5.7800  -19.2170 C.3       1 SAM404      0.0000 
     14 O3'        40.0620   -5.4680  -20.1010 O.3       1 SAM404      0.0000 
     15 C2'        38.1130   -6.9740  -19.6100 C.3       1 SAM404      0.0000 
     16 O2'        38.9090   -8.0550  -20.0790 O.3       1 SAM404      0.0000 
     17 C1'        37.4610   -7.4600  -18.3270 C.3       1 SAM404      0.0000 
     18 N9         36.1700   -6.8370  -18.0030 N.pl3     1 SAM404      0.0000 
     19 C8         35.6890   -5.6480  -18.4200 C.2       1 SAM404      0.0000 
     20 N7         34.4650   -5.4380  -17.8910 N.2       1 SAM404      0.0000 
     21 C5         34.1530   -6.4720  -17.1210 C.ar      1 SAM404      0.0000 
     22 C6         33.0220   -6.8740  -16.2760 C.ar      1 SAM404      0.0000 
     23 N6         31.9490   -6.1050  -16.1430 N.pl3     1 SAM404      0.0000 
     24 N1         33.0490   -8.0490  -15.6590 N.ar      1 SAM404      0.0000 
     25 C2         34.1010   -8.8300  -15.8010 C.ar      1 SAM404      0.0000 
     26 N3         35.1820   -8.5170  -16.5320 N.ar      1 SAM404      0.0000 
     27 C4         35.2740   -7.3810  -17.2100 C.ar      1 SAM404      0.0000 
@<TRIPOS>BOND
     1    1    2 1    
     2    2    3 1    
     3    2    6 1    
     4    3    4 ar   
     5    3    5 ar   
     6    6    7 1    
     7    7    8 1    
     8    8    9 1    
     9    8   10 1    
    10   10   11 1    
    11   11   12 1    
    12   11   13 1    
    13   12   17 1    
    14   13   14 1    
    15   13   15 1    
    16   15   16 1    
    17   15   17 1    
    18   17   18 1    
    19   18   19 1    
    20   18   27 1    
    21   19   20 2    
    22   20   21 1    
    23   21   22 ar   
    24   21   27 ar   
    25   22   23 1    
    26   22   24 ar   
    27   24   25 ar   
    28   25   26 ar   
    29   26   27 ar   
@<TRIPOS>SUBSTRUCTURE
     1 SAM404      1 GROUP   
@<TRIPOS>SET

