#    Name: 6rkc_3_SAM
#    Modification time : Fri May 22 19:27:09 2020

@<TRIPOS>MOLECULE
6rkc_3_SAM
   27    29     1     0     0
SMALL
NO_CHARGES


@<TRIPOS>ATOM
      1 N          44.4540   -1.8310   41.0930 N.4       1 SAM402      0.0000 
      2 CA         45.8700   -2.1650   41.2610 C.3       1 SAM402      0.0000 
      3 C          46.6000   -2.6200   39.9830 C.2       1 SAM402      0.0000 
      4 O          47.5880   -3.4150   39.9680 O.co2     1 SAM402      0.0000 
      5 OXT        46.2470   -2.1620   38.8690 O.co2     1 SAM402      0.0000 
      6 CB         45.9050   -3.2560   42.3490 C.3       1 SAM402      0.0000 
      7 CG         46.6750   -2.9350   43.6710 C.3       1 SAM402      0.0000 
      8 SD         47.1610   -1.3790   44.2530 S.3       1 SAM402      0.0000 
      9 CE         48.8130   -1.4260   44.0810 C.3       1 SAM402      0.0000 
     10 C5'        46.7970   -1.3030   45.8930 C.3       1 SAM402      0.0000 
     11 C4'        47.3100   -0.1310   46.8020 C.3       1 SAM402      0.0000 
     12 O4'        48.7180    0.0170   46.8130 O.3       1 SAM402      0.0000 
     13 C3'        46.7770    1.2610   46.5430 C.3       1 SAM402      0.0000 
     14 O3'        45.6360    1.5290   47.3760 O.3       1 SAM402      0.0000 
     15 C2'        47.8750    2.1130   47.0410 C.3       1 SAM402      0.0000 
     16 O2'        47.6210    2.1840   48.4320 O.3       1 SAM402      0.0000 
     17 C1'        49.1400    1.3260   46.8780 C.3       1 SAM402      0.0000 
     18 N9         49.8500    1.6870   45.6730 N.pl3     1 SAM402      0.0000 
     19 C8         49.3910    2.3370   44.6590 C.2       1 SAM402      0.0000 
     20 N7         50.3740    2.5410   43.7480 N.2       1 SAM402      0.0000 
     21 C5         51.4670    2.0480   44.2030 C.ar      1 SAM402      0.0000 
     22 C6         52.8250    1.9830   43.7360 C.ar      1 SAM402      0.0000 
     23 N6         53.2240    2.4470   42.5820 N.pl3     1 SAM402      0.0000 
     24 N1         53.7150    1.3900   44.4460 N.ar      1 SAM402      0.0000 
     25 C2         53.3350    0.8890   45.6240 C.ar      1 SAM402      0.0000 
     26 N3         52.0790    0.9280   46.1390 N.ar      1 SAM402      0.0000 
     27 C4         51.1160    1.4860   45.4650 C.ar      1 SAM402      0.0000 
@<TRIPOS>BOND
     1    1    2 1    
     2    2    3 1    
     3    2    6 1    
     4    3    4 ar   
     5    3    5 ar   
     6    6    7 1    
     7    7    8 1    
     8    8    9 1    
     9    8   10 1    
    10   10   11 1    
    11   11   12 1    
    12   11   13 1    
    13   12   17 1    
    14   13   14 1    
    15   13   15 1    
    16   15   16 1    
    17   15   17 1    
    18   17   18 1    
    19   18   19 1    
    20   18   27 1    
    21   19   20 2    
    22   20   21 1    
    23   21   22 ar   
    24   21   27 ar   
    25   22   23 1    
    26   22   24 ar   
    27   24   25 ar   
    28   25   26 ar   
    29   26   27 ar   
@<TRIPOS>SUBSTRUCTURE
     1 SAM402      1 GROUP   
@<TRIPOS>SET

