#    Name: 6rkc_2_SAM
#    Modification time : Fri May 22 19:27:01 2020

@<TRIPOS>MOLECULE
6rkc_2_SAM
   27    29     1     0     0
SMALL
NO_CHARGES


@<TRIPOS>ATOM
      1 N          41.8340   -0.9820   20.0460 N.4       1 SAM406      0.0000 
      2 CA         40.8210   -1.8740   20.5630 C.3       1 SAM406      0.0000 
      3 C          39.5120   -1.5770   19.8290 C.2       1 SAM406      0.0000 
      4 O          39.5390   -1.3040   18.5980 O.co2     1 SAM406      0.0000 
      5 OXT        38.4090   -1.6170   20.4400 O.co2     1 SAM406      0.0000 
      6 CB         40.6920   -1.6950   22.0780 C.3       1 SAM406      0.0000 
      7 CG         42.0330   -1.7210   22.8560 C.3       1 SAM406      0.0000 
      8 SD         41.9000   -1.5090   24.5380 S.3       1 SAM406      0.0000 
      9 CE         40.4650   -0.7210   24.8910 C.3       1 SAM406      0.0000 
     10 C5'        43.2540   -0.6510   25.0820 C.3       1 SAM406      0.0000 
     11 C4'        43.1670    0.1510   26.3970 C.3       1 SAM406      0.0000 
     12 O4'        41.9980    0.9520   26.5830 O.3       1 SAM406      0.0000 
     13 C3'        43.2440   -0.7610   27.6160 C.3       1 SAM406      0.0000 
     14 O3'        44.5650   -0.7200   28.1500 O.3       1 SAM406      0.0000 
     15 C2'        42.2460   -0.1620   28.5990 C.3       1 SAM406      0.0000 
     16 O2'        42.8240    0.4650   29.7410 O.3       1 SAM406      0.0000 
     17 C1'        41.4550    0.9140   27.8910 C.3       1 SAM406      0.0000 
     18 N9         40.0050    0.6000   27.9360 N.pl3     1 SAM406      0.0000 
     19 C8         39.0260    1.4370   28.2020 C.2       1 SAM406      0.0000 
     20 N7         37.7980    0.8640   28.1660 N.2       1 SAM406      0.0000 
     21 C5         37.9870   -0.4090   27.8360 C.ar      1 SAM406      0.0000 
     22 C6         37.1400   -1.6070   27.5740 C.ar      1 SAM406      0.0000 
     23 N6         35.8080   -1.6410   27.6770 N.pl3     1 SAM406      0.0000 
     24 N1         37.7520   -2.7610   27.2780 N.ar      1 SAM406      0.0000 
     25 C2         39.0870   -2.8340   27.1550 C.ar      1 SAM406      0.0000 
     26 N3         39.9090   -1.7770   27.3530 N.ar      1 SAM406      0.0000 
     27 C4         39.4340   -0.5590   27.7020 C.ar      1 SAM406      0.0000 
@<TRIPOS>BOND
     1    1    2 1    
     2    2    3 1    
     3    2    6 1    
     4    3    4 ar   
     5    3    5 ar   
     6    6    7 1    
     7    7    8 1    
     8    8    9 1    
     9    8   10 1    
    10   10   11 1    
    11   11   12 1    
    12   11   13 1    
    13   12   17 1    
    14   13   14 1    
    15   13   15 1    
    16   15   16 1    
    17   15   17 1    
    18   17   18 1    
    19   18   19 1    
    20   18   27 1    
    21   19   20 2    
    22   20   21 1    
    23   21   22 ar   
    24   21   27 ar   
    25   22   23 1    
    26   22   24 ar   
    27   24   25 ar   
    28   25   26 ar   
    29   26   27 ar   
@<TRIPOS>SUBSTRUCTURE
     1 SAM406      1 GROUP   
@<TRIPOS>SET

