#    Name: 6rkc_10_SAM
#    Modification time : Fri May 22 19:28:02 2020

@<TRIPOS>MOLECULE
6rkc_10_SAM
   27    29     1     0     0
SMALL
NO_CHARGES


@<TRIPOS>ATOM
      1 N          64.8960    1.4000  -47.4290 N.4       1 SAM406      0.0000 
      2 CA         63.6160    1.1400  -48.1120 C.3       1 SAM406      0.0000 
      3 C          63.9690    0.8870  -49.5590 C.2       1 SAM406      0.0000 
      4 O          64.5630    1.7480  -50.1910 O.co2     1 SAM406      0.0000 
      5 OXT        63.7400   -0.2010  -50.0950 O.co2     1 SAM406      0.0000 
      6 CB         62.5960    2.2800  -47.7830 C.3       1 SAM406      0.0000 
      7 CG         61.2940    1.9030  -46.9920 C.3       1 SAM406      0.0000 
      8 SD         61.0620    2.1900  -45.2860 S.3       1 SAM406      0.0000 
      9 CE         59.4150    2.5390  -45.2130 C.3       1 SAM406      0.0000 
     10 C5'        62.0710    3.3270  -44.4780 C.3       1 SAM406      0.0000 
     11 C4'        61.7830    3.9520  -43.0460 C.3       1 SAM406      0.0000 
     12 O4'        60.4220    4.3600  -42.8640 O.3       1 SAM406      0.0000 
     13 C3'        62.1560    3.2450  -41.6860 C.3       1 SAM406      0.0000 
     14 O3'        63.4090    3.6560  -41.1000 O.3       1 SAM406      0.0000 
     15 C2'        61.0420    3.5840  -40.6760 C.3       1 SAM406      0.0000 
     16 O2'        61.3590    4.3750  -39.5390 O.3       1 SAM406      0.0000 
     17 C1'        60.0800    4.4270  -41.4840 C.3       1 SAM406      0.0000 
     18 N9         58.7190    3.8920  -41.3530 N.pl3     1 SAM406      0.0000 
     19 C8         57.6910    4.6570  -40.9650 C.2       1 SAM406      0.0000 
     20 N7         56.5340    3.9660  -40.9120 N.2       1 SAM406      0.0000 
     21 C5         56.8350    2.7280  -41.2660 C.ar      1 SAM406      0.0000 
     22 C6         56.0260    1.5220  -41.4120 C.ar      1 SAM406      0.0000 
     23 N6         54.7140    1.6560  -41.1210 N.pl3     1 SAM406      0.0000 
     24 N1         56.6530    0.3700  -41.8190 N.ar      1 SAM406      0.0000 
     25 C2         57.9940    0.3620  -42.0890 C.ar      1 SAM406      0.0000 
     26 N3         58.8060    1.4450  -41.9690 N.ar      1 SAM406      0.0000 
     27 C4         58.2770    2.6450  -41.5810 C.ar      1 SAM406      0.0000 
@<TRIPOS>BOND
     1    1    2 1    
     2    2    3 1    
     3    2    6 1    
     4    3    4 ar   
     5    3    5 ar   
     6    6    7 1    
     7    7    8 1    
     8    8    9 1    
     9    8   10 1    
    10   10   11 1    
    11   11   12 1    
    12   11   13 1    
    13   12   17 1    
    14   13   14 1    
    15   13   15 1    
    16   15   16 1    
    17   15   17 1    
    18   17   18 1    
    19   18   19 1    
    20   18   27 1    
    21   19   20 2    
    22   20   21 1    
    23   21   22 ar   
    24   21   27 ar   
    25   22   23 1    
    26   22   24 ar   
    27   24   25 ar   
    28   25   26 ar   
    29   26   27 ar   
@<TRIPOS>SUBSTRUCTURE
     1 SAM406      1 GROUP   
@<TRIPOS>SET

