#    Name: 6rkc_4_SAM
#    Modification time : Fri May 22 19:27:17 2020

@<TRIPOS>MOLECULE
6rkc_4_SAM
   27    29     1     0     0
SMALL
NO_CHARGES


@<TRIPOS>ATOM
      1 N          12.0780   16.2970   54.4520 N.4       1 SAM403      0.0000 
      2 CA         12.0030   14.8430   54.3810 C.3       1 SAM403      0.0000 
      3 C          11.5310   14.3150   55.7100 C.2       1 SAM403      0.0000 
      4 O          11.8200   14.9810   56.7170 O.co2     1 SAM403      0.0000 
      5 OXT        10.9060   13.2620   55.8030 O.co2     1 SAM403      0.0000 
      6 CB         13.3930   14.3560   53.9930 C.3       1 SAM403      0.0000 
      7 CG         13.5680   12.8640   54.2540 C.3       1 SAM403      0.0000 
      8 SD         14.6560   12.1210   53.2160 S.3       1 SAM403      0.0000 
      9 CE         15.5210   13.2430   52.2810 C.3       1 SAM403      0.0000 
     10 C5'        13.6000   11.1310   52.3520 C.3       1 SAM403      0.0000 
     11 C4'        14.3040   10.0420   51.6250 C.3       1 SAM403      0.0000 
     12 O4'        15.1670   10.5390   50.6510 O.3       1 SAM403      0.0000 
     13 C3'        15.1910    9.2260   52.4960 C.3       1 SAM403      0.0000 
     14 O3'        14.3820    8.2600   53.0990 O.3       1 SAM403      0.0000 
     15 C2'        16.1490    8.6580   51.4940 C.3       1 SAM403      0.0000 
     16 O2'        15.7100    7.3910   51.0600 O.3       1 SAM403      0.0000 
     17 C1'        16.1170    9.6060   50.2940 C.3       1 SAM403      0.0000 
     18 N9         17.3620   10.3350   50.0340 N.pl3     1 SAM403      0.0000 
     19 C8         18.0000   10.4870   48.8730 C.2       1 SAM403      0.0000 
     20 N7         19.1350   11.2000   48.9840 N.2       1 SAM403      0.0000 
     21 C5         19.2390   11.4910   50.2720 C.ar      1 SAM403      0.0000 
     22 C6         20.2000   12.1570   51.1910 C.ar      1 SAM403      0.0000 
     23 N6         21.3130   12.7430   50.7640 N.pl3     1 SAM403      0.0000 
     24 N1         19.9230   12.2000   52.5100 N.ar      1 SAM403      0.0000 
     25 C2         18.8380   11.6190   53.0470 C.ar      1 SAM403      0.0000 
     26 N3         17.9470   11.0000   52.2980 N.ar      1 SAM403      0.0000 
     27 C4         18.0690   10.9090   50.9490 C.ar      1 SAM403      0.0000 
@<TRIPOS>BOND
     1    1    2 1    
     2    2    3 1    
     3    2    6 1    
     4    3    4 ar   
     5    3    5 ar   
     6    6    7 1    
     7    7    8 1    
     8    8    9 1    
     9    8   10 1    
    10   10   11 1    
    11   11   12 1    
    12   11   13 1    
    13   12   17 1    
    14   13   14 1    
    15   13   15 1    
    16   15   16 1    
    17   15   17 1    
    18   17   18 1    
    19   18   19 1    
    20   18   27 1    
    21   19   20 2    
    22   20   21 1    
    23   21   22 ar   
    24   21   27 ar   
    25   22   23 1    
    26   22   24 ar   
    27   24   25 ar   
    28   25   26 ar   
    29   26   27 ar   
@<TRIPOS>SUBSTRUCTURE
     1 SAM403      1 GROUP   
@<TRIPOS>SET

