#    Name: 6rkc_6_SAM
#    Modification time : Fri May 22 19:27:33 2020

@<TRIPOS>MOLECULE
6rkc_6_SAM
   27    29     1     0     0
SMALL
NO_CHARGES


@<TRIPOS>ATOM
      1 N          32.9870   28.6760   49.2610 N.4       1 SAM406      0.0000 
      2 CA         34.2590   28.4020   48.5850 C.3       1 SAM406      0.0000 
      3 C          34.9900   29.6520   47.9970 C.2       1 SAM406      0.0000 
      4 O          35.8030   29.6610   47.0160 O.co2     1 SAM406      0.0000 
      5 OXT        34.7720   30.7510   48.5440 O.co2     1 SAM406      0.0000 
      6 CB         33.7080   27.4240   47.6050 C.3       1 SAM406      0.0000 
      7 CG         33.9900   27.7340   46.1290 C.3       1 SAM406      0.0000 
      8 SD         33.4700   26.5460   45.0660 S.3       1 SAM406      0.0000 
      9 CE         32.7270   25.2870   45.9090 C.3       1 SAM406      0.0000 
     10 C5'        34.9280   26.2240   44.2490 C.3       1 SAM406      0.0000 
     11 C4'        34.6820   25.5200   42.9440 C.3       1 SAM406      0.0000 
     12 O4'        33.7820   24.4090   43.1020 O.3       1 SAM406      0.0000 
     13 C3'        33.9900   26.3390   41.8640 C.3       1 SAM406      0.0000 
     14 O3'        35.0210   27.1040   41.1890 O.3       1 SAM406      0.0000 
     15 C2'        33.2420   25.2360   41.0740 C.3       1 SAM406      0.0000 
     16 O2'        33.9160   24.8630   39.9050 O.3       1 SAM406      0.0000 
     17 C1'        33.2940   23.9710   41.8600 C.3       1 SAM406      0.0000 
     18 N9         32.0330   23.2970   42.1800 N.pl3     1 SAM406      0.0000 
     19 C8         31.7670   21.9620   42.0650 C.2       1 SAM406      0.0000 
     20 N7         30.5080   21.7100   42.5020 N.2       1 SAM406      0.0000 
     21 C5         29.9660   22.8700   42.9080 C.ar      1 SAM406      0.0000 
     22 C6         28.6690   23.3510   43.4520 C.ar      1 SAM406      0.0000 
     23 N6         27.6690   22.5090   43.6890 N.pl3     1 SAM406      0.0000 
     24 N1         28.4940   24.6680   43.6830 N.ar      1 SAM406      0.0000 
     25 C2         29.5250   25.4880   43.4640 C.ar      1 SAM406      0.0000 
     26 N3         30.7400   25.1380   42.9750 N.ar      1 SAM406      0.0000 
     27 C4         30.9890   23.8990   42.6710 C.ar      1 SAM406      0.0000 
@<TRIPOS>BOND
     1    1    2 1    
     2    2    3 1    
     3    2    6 1    
     4    3    4 ar   
     5    3    5 ar   
     6    6    7 1    
     7    7    8 1    
     8    8    9 1    
     9    8   10 1    
    10   10   11 1    
    11   11   12 1    
    12   11   13 1    
    13   12   17 1    
    14   13   14 1    
    15   13   15 1    
    16   15   16 1    
    17   15   17 1    
    18   17   18 1    
    19   18   19 1    
    20   18   27 1    
    21   19   20 2    
    22   20   21 1    
    23   21   22 ar   
    24   21   27 ar   
    25   22   23 1    
    26   22   24 ar   
    27   24   25 ar   
    28   25   26 ar   
    29   26   27 ar   
@<TRIPOS>SUBSTRUCTURE
     1 SAM406      1 GROUP   
@<TRIPOS>SET

