#    Name: 6rkc_14_SAM
#    Modification time : Fri May 22 19:28:16 2020

@<TRIPOS>MOLECULE
6rkc_14_SAM
   27    29     1     0     0
SMALL
NO_CHARGES


@<TRIPOS>ATOM
      1 N          53.8070   31.4030  -20.5340 N.4       1 SAM405      0.0000 
      2 CA         52.5010   31.5340  -21.0300 C.3       1 SAM405      0.0000 
      3 C          51.6050   30.5680  -20.2470 C.2       1 SAM405      0.0000 
      4 O          51.5510   29.3190  -20.4200 O.co2     1 SAM405      0.0000 
      5 OXT        50.8470   31.0530  -19.3850 O.co2     1 SAM405      0.0000 
      6 CB         52.8630   31.2430  -22.4750 C.3       1 SAM405      0.0000 
      7 CG         51.6810   31.3150  -23.4990 C.3       1 SAM405      0.0000 
      8 SD         51.5420   29.9010  -24.4140 S.3       1 SAM405      0.0000 
      9 CE         51.2910   28.6800  -23.2990 C.3       1 SAM405      0.0000 
     10 C5'        53.0780   29.7590  -25.0350 C.3       1 SAM405      0.0000 
     11 C4'        53.1360   29.0060  -26.3310 C.3       1 SAM405      0.0000 
     12 O4'        52.6550   27.6610  -26.3100 O.3       1 SAM405      0.0000 
     13 C3'        52.3700   29.7250  -27.3860 C.3       1 SAM405      0.0000 
     14 O3'        53.4300   30.2510  -28.1450 O.3       1 SAM405      0.0000 
     15 C2'        51.6270   28.6570  -28.1320 C.3       1 SAM405      0.0000 
     16 O2'        52.0740   28.6850  -29.4710 O.3       1 SAM405      0.0000 
     17 C1'        52.0340   27.3290  -27.5200 C.3       1 SAM405      0.0000 
     18 N9         50.9370   26.4560  -27.1100 N.pl3     1 SAM405      0.0000 
     19 C8         50.9050   25.1110  -27.2420 C.2       1 SAM405      0.0000 
     20 N7         49.7280   24.5800  -26.7960 N.2       1 SAM405      0.0000 
     21 C5         49.0470   25.6170  -26.3120 C.ar      1 SAM405      0.0000 
     22 C6         47.7490   25.7960  -25.6270 C.ar      1 SAM405      0.0000 
     23 N6         46.9500   24.7350  -25.3780 N.pl3     1 SAM405      0.0000 
     24 N1         47.3960   27.0520  -25.2710 N.ar      1 SAM405      0.0000 
     25 C2         48.1670   28.1220  -25.5260 C.ar      1 SAM405      0.0000 
     26 N3         49.3520   28.0280  -26.1250 N.ar      1 SAM405      0.0000 
     27 C4         49.8370   26.8500  -26.5200 C.ar      1 SAM405      0.0000 
@<TRIPOS>BOND
     1    1    2 1    
     2    2    3 1    
     3    2    6 1    
     4    3    4 ar   
     5    3    5 ar   
     6    6    7 1    
     7    7    8 1    
     8    8    9 1    
     9    8   10 1    
    10   10   11 1    
    11   11   12 1    
    12   11   13 1    
    13   12   17 1    
    14   13   14 1    
    15   13   15 1    
    16   15   16 1    
    17   15   17 1    
    18   17   18 1    
    19   18   19 1    
    20   18   27 1    
    21   19   20 2    
    22   20   21 1    
    23   21   22 ar   
    24   21   27 ar   
    25   22   23 1    
    26   22   24 ar   
    27   24   25 ar   
    28   25   26 ar   
    29   26   27 ar   
@<TRIPOS>SUBSTRUCTURE
     1 SAM405      1 GROUP   
@<TRIPOS>SET

