#    Name: 6rkc_7_SAM
#    Modification time : Fri May 22 19:27:40 2020

@<TRIPOS>MOLECULE
6rkc_7_SAM
   27    29     1     0     0
SMALL
NO_CHARGES


@<TRIPOS>ATOM
      1 N          30.7990   26.9390   28.7620 N.4       1 SAM402      0.0000 
      2 CA         31.6600   28.0740   28.3930 C.3       1 SAM402      0.0000 
      3 C          32.1740   28.9250   29.6040 C.2       1 SAM402      0.0000 
      4 O          32.3830   30.1400   29.4710 O.co2     1 SAM402      0.0000 
      5 OXT        32.4290   28.4050   30.7640 O.co2     1 SAM402      0.0000 
      6 CB         30.8530   28.9490   27.4450 C.3       1 SAM402      0.0000 
      7 CG         30.8300   28.5500   25.9630 C.3       1 SAM402      0.0000 
      8 SD         32.2910   28.3530   25.0850 S.3       1 SAM402      0.0000 
      9 CE         33.0170   29.8520   24.7840 C.3       1 SAM402      0.0000 
     10 C5'        31.8050   27.7550   23.6710 C.3       1 SAM402      0.0000 
     11 C4'        32.8560   27.4160   22.6390 C.3       1 SAM402      0.0000 
     12 O4'        33.9090   28.3570   22.5240 O.3       1 SAM402      0.0000 
     13 C3'        33.3640   26.0020   22.7580 C.3       1 SAM402      0.0000 
     14 O3'        32.3560   25.0390   22.3650 O.3       1 SAM402      0.0000 
     15 C2'        34.5520   26.1870   21.8130 C.3       1 SAM402      0.0000 
     16 O2'        34.2250   25.7330   20.5190 O.3       1 SAM402      0.0000 
     17 C1'        34.9150   27.6590   21.8180 C.3       1 SAM402      0.0000 
     18 N9         35.9670   28.0510   22.7860 N.pl3     1 SAM402      0.0000 
     19 C8         36.2260   27.4680   23.9890 C.2       1 SAM402      0.0000 
     20 N7         37.2230   28.0930   24.5710 N.2       1 SAM402      0.0000 
     21 C5         37.5910   29.1070   23.8200 C.ar      1 SAM402      0.0000 
     22 C6         38.5750   30.1520   23.9420 C.ar      1 SAM402      0.0000 
     23 N6         39.3620   30.1580   25.0640 N.pl3     1 SAM402      0.0000 
     24 N1         38.6320   31.0530   22.8990 N.ar      1 SAM402      0.0000 
     25 C2         37.8750   31.0080   21.8370 C.ar      1 SAM402      0.0000 
     26 N3         36.9360   30.0580   21.6970 N.ar      1 SAM402      0.0000 
     27 C4         36.7670   29.1030   22.6360 C.ar      1 SAM402      0.0000 
@<TRIPOS>BOND
     1    1    2 1    
     2    2    3 1    
     3    2    6 1    
     4    3    4 ar   
     5    3    5 ar   
     6    6    7 1    
     7    7    8 1    
     8    8    9 1    
     9    8   10 1    
    10   10   11 1    
    11   11   12 1    
    12   11   13 1    
    13   12   17 1    
    14   13   14 1    
    15   13   15 1    
    16   15   16 1    
    17   15   17 1    
    18   17   18 1    
    19   18   19 1    
    20   18   27 1    
    21   19   20 2    
    22   20   21 1    
    23   21   22 ar   
    24   21   27 ar   
    25   22   23 1    
    26   22   24 ar   
    27   24   25 ar   
    28   25   26 ar   
    29   26   27 ar   
@<TRIPOS>SUBSTRUCTURE
     1 SAM402      1 GROUP   
@<TRIPOS>SET

