#    Name: 6rkc_12_SAM_CAVITY_N1_6
#    Modification time : Fri May 22 19:28:10 2020

@<TRIPOS>MOLECULE
6rkc_12_SAM_CAVITY_N1_6
   81     0     5     0     0
SMALL
NO_CHARGES


@<TRIPOS>ATOM
      1 N          30.0700   10.6000  -18.5700 N.am      1 ALA2        0.0000 
      2 N          30.6200   11.9000  -19.0900 N.am      1 ALA2        0.0000 
      3 N          32.5200   12.5700  -19.7500 N.am      1 ALA2        0.0000 
      4 O          35.7800   12.6200  -20.5500 O.2       1 ALA2        0.0000 
      5 N          36.3200   13.9200  -21.0800 N.am      1 ALA2        0.0000 
      6 N          30.4100   11.0300  -17.1700 N.am      1 ALA2        0.0000 
      7 N          30.9500   12.3200  -17.6900 N.am      1 ALA2        0.0000 
      8 N          32.3100   11.7000  -17.8300 N.am      1 ALA2        0.0000 
      9 N          33.6700   11.0800  -17.9700 N.am      1 ALA2        0.0000 
     10 O          34.2100   12.3700  -18.4900 O.2       1 ALA2        0.0000 
     11 N          31.2900   12.7500  -16.2900 N.am      1 ALA2        0.0000 
     12 N          32.6500   12.1200  -16.4300 N.am      1 ALA2        0.0000 
     13 N          34.0100   11.5000  -16.5700 N.am      1 ALA2        0.0000 
     14 N          31.8300   14.0400  -16.8200 N.am      1 ALA2        0.0000 
     15 N          33.1900   13.4200  -16.9600 N.am      1 ALA2        0.0000 
     16 N          35.9100   12.1700  -17.2300 N.am      1 ALA2        0.0000 
     17 N          38.8900   15.4400  -18.9400 N.am      1 ALA2        0.0000 
     18 N          30.2700   13.8000  -14.7600 N.am      1 ALA2        0.0000 
     19 N          30.8100   15.0900  -15.2800 N.am      1 ALA2        0.0000 
     20 N          32.1700   14.4700  -15.4200 N.am      1 ALA2        0.0000 
     21 N          32.7100   15.7600  -15.9400 N.am      1 ALA2        0.0000 
     22 N          34.0700   15.1400  -16.0800 N.am      1 ALA2        0.0000 
     23 N          35.4300   14.5200  -16.2200 N.am      1 ALA2        0.0000 
     24 N          33.2600   17.0600  -16.4700 N.am      1 ALA2        0.0000 
     25 N          34.6100   16.4400  -16.6000 N.am      1 ALA2        0.0000 
     26 N          35.9700   15.8100  -16.7400 N.am      1 ALA2        0.0000 
     27 N          37.3300   15.1900  -16.8800 N.am      1 ALA2        0.0000 
     28 N          31.1500   15.5200  -13.8800 N.am      1 ALA2        0.0000 
     29 N          33.0500   16.1900  -14.5400 N.am      1 ALA2        0.0000 
     30 N          39.8400   13.0700  -15.2300 N.am      1 ALA2        0.0000 
     31 N          33.5900   17.4900  -15.0700 N.am      1 ALA2        0.0000 
     32 N          37.6700   15.6100  -15.4800 N.am      1 ALA2        0.0000 
     33 NZ         31.1600   13.2000  -19.6200 N.4       2 LYS4        0.0000 
     34 NZ         30.1400   14.2400  -18.0800 N.4       2 LYS4        0.0000 
     35 NZ         31.5000   13.6200  -18.2200 N.4       2 LYS4        0.0000 
     36 NZ         30.4800   14.6700  -16.6800 N.4       2 LYS4        0.0000 
     37 NZ         32.3800   15.3400  -17.3400 N.4       2 LYS4        0.0000 
     38 NZ         32.9200   16.6400  -17.8700 N.4       2 LYS4        0.0000 
     39 NZ         31.3600   16.3900  -15.8100 N.4       2 LYS4        0.0000 
     40 NZ         31.9000   17.6900  -16.3300 N.4       2 LYS4        0.0000 
     41 NZ         32.4400   18.9800  -16.8500 N.4       2 LYS4        0.0000 
     42 CZ         35.3000   14.9600  -19.5400 C.ar      3 PHE5        0.0000 
     43 CZ         36.6600   14.3400  -19.6800 C.ar      3 PHE5        0.0000 
     44 CZ         38.5600   15.0100  -20.3400 C.ar      3 PHE5        0.0000 
     45 CZ         34.2800   16.0100  -18.0000 C.ar      3 PHE5        0.0000 
     46 CZ         35.6400   15.3900  -18.1400 C.ar      3 PHE5        0.0000 
     47 CZ         36.9900   14.7600  -18.2800 C.ar      3 PHE5        0.0000 
     48 CZ         37.5400   16.0600  -18.8000 C.ar      3 PHE5        0.0000 
     49 CZ         33.8000   18.3600  -16.9900 C.ar      3 PHE5        0.0000 
     50 CZ         35.1600   17.7300  -17.1300 C.ar      3 PHE5        0.0000 
     51 CZ         37.8700   16.4800  -17.4000 C.ar      3 PHE5        0.0000 
     52 CA         34.4200   13.2400  -20.4100 C.3       4 GLY6        0.0000 
     53 CA         29.8700    9.7300  -16.6500 C.3       4 GLY6        0.0000 
     54 CA         31.7700   10.4000  -17.3100 C.3       4 GLY6        0.0000 
     55 CA         32.8500   13.0000  -18.3500 C.3       4 GLY6        0.0000 
     56 CA         35.5700   11.7500  -18.6300 C.3       4 GLY6        0.0000 
     57 CA         33.4000   14.2900  -18.8800 C.3       4 GLY6        0.0000 
     58 CA         34.7600   13.6700  -19.0200 C.3       4 GLY6        0.0000 
     59 CA         36.1100   13.0400  -19.1500 C.3       4 GLY6        0.0000 
     60 CA         38.0100   13.7200  -19.8100 C.3       4 GLY6        0.0000 
     61 CA         30.2000   10.1600  -15.2500 C.3       4 GLY6        0.0000 
     62 CA         30.7500   11.4500  -15.7700 C.3       4 GLY6        0.0000 
     63 CA         32.1000   10.8300  -15.9100 C.3       4 GLY6        0.0000 
     64 CA         37.2600   11.5500  -17.3700 C.3       4 GLY6        0.0000 
     65 CA         33.7300   14.7200  -17.4800 C.3       4 GLY6        0.0000 
     66 CA         36.4500   13.4700  -17.7500 C.3       4 GLY6        0.0000 
     67 CA         37.8100   12.8400  -17.8900 C.3       4 GLY6        0.0000 
     68 CA         38.3500   14.1400  -18.4200 C.3       4 GLY6        0.0000 
     69 CA         39.7100   13.5200  -18.5500 C.3       4 GLY6        0.0000 
     70 CA         34.8900   13.2200  -15.6900 C.3       4 GLY6        0.0000 
     71 CA         36.7900   13.8900  -16.3600 C.3       4 GLY6        0.0000 
     72 CA         38.1400   13.2700  -16.4900 C.3       4 GLY6        0.0000 
     73 CA         39.5000   12.6400  -16.6300 C.3       4 GLY6        0.0000 
     74 CA         38.6900   14.5600  -17.0200 C.3       4 GLY6        0.0000 
     75 CA         40.0400   13.9400  -17.1500 C.3       4 GLY6        0.0000 
     76 CA         39.2300   15.8600  -17.5400 C.3       4 GLY6        0.0000 
     77 CA         38.4800   13.6900  -15.0900 C.3       4 GLY6        0.0000 
     78 CA         39.0200   14.9900  -15.6200 C.3       4 GLY6        0.0000 
     79 CA         34.1400   18.7800  -15.5900 C.3       4 GLY6        0.0000 
     80 DU         34.5500   12.8000  -17.0900 H         5 CUB7        0.0000 
     81 DU         35.0900   14.0900  -17.6200 H         5 CUB7        0.0000 
@<TRIPOS>BOND
@<TRIPOS>SUBSTRUCTURE
     1 ALA2        1 GROUP   
     2 LYS4       33 GROUP   
     3 PHE5       42 GROUP   
     4 GLY6       52 GROUP   
     5 CUB7       80 GROUP   
@<TRIPOS>SET

