#    Name: 6rkc_8_SAM
#    Modification time : Fri May 22 19:27:47 2020

@<TRIPOS>MOLECULE
6rkc_8_SAM
   27    29     1     0     0
SMALL
NO_CHARGES


@<TRIPOS>ATOM
      1 N          15.7740   -8.0470   19.7940 N.4       1 SAM403      0.0000 
      2 CA         17.2040   -8.6220   19.8920 C.3       1 SAM403      0.0000 
      3 C          17.0930  -10.1280   19.2390 C.2       1 SAM403      0.0000 
      4 O          16.3110  -10.9020   19.7630 O.co2     1 SAM403      0.0000 
      5 OXT        17.7280  -10.6350   18.2140 O.co2     1 SAM403      0.0000 
      6 CB         17.6390   -8.1590   21.3040 C.3       1 SAM403      0.0000 
      7 CG         18.4870   -6.7940   21.7410 C.3       1 SAM403      0.0000 
      8 SD         17.8290   -5.1480   21.8220 S.3       1 SAM403      0.0000 
      9 CE         19.0250   -4.1000   22.0120 C.3       1 SAM403      0.0000 
     10 C5'        16.7840   -5.0280   23.1630 C.3       1 SAM403      0.0000 
     11 C4'        16.2140   -3.6930   23.7360 C.3       1 SAM403      0.0000 
     12 O4'        17.1980   -3.1930   24.6490 O.3       1 SAM403      0.0000 
     13 C3'        15.8150   -2.5240   22.8060 C.3       1 SAM403      0.0000 
     14 O3'        14.4030   -2.4580   22.5960 O.3       1 SAM403      0.0000 
     15 C2'        16.4350   -1.2690   23.5240 C.3       1 SAM403      0.0000 
     16 O2'        15.4720   -0.4000   24.1650 O.3       1 SAM403      0.0000 
     17 C1'        17.3900   -1.7960   24.6140 C.3       1 SAM403      0.0000 
     18 N9         18.8340   -1.4900   24.4410 N.pl3     1 SAM403      0.0000 
     19 C8         19.5160   -1.0800   25.4860 C.2       1 SAM403      0.0000 
     20 N7         20.7950   -0.7460   25.1660 N.2       1 SAM403      0.0000 
     21 C5         20.9670   -0.9760   23.8740 C.ar      1 SAM403      0.0000 
     22 C6         22.0930   -0.8830   22.9110 C.ar      1 SAM403      0.0000 
     23 N6         23.3110   -0.5070   23.2910 N.pl3     1 SAM403      0.0000 
     24 N1         21.8810   -1.1710   21.6260 N.ar      1 SAM403      0.0000 
     25 C2         20.6960   -1.5290   21.2930 C.ar      1 SAM403      0.0000 
     26 N3         19.6400   -1.6300   22.1180 N.ar      1 SAM403      0.0000 
     27 C4         19.6650   -1.4130   23.4020 C.ar      1 SAM403      0.0000 
@<TRIPOS>BOND
     1    1    2 1    
     2    2    3 1    
     3    2    6 1    
     4    3    4 ar   
     5    3    5 ar   
     6    6    7 1    
     7    7    8 1    
     8    8    9 1    
     9    8   10 1    
    10   10   11 1    
    11   11   12 1    
    12   11   13 1    
    13   12   17 1    
    14   13   14 1    
    15   13   15 1    
    16   15   16 1    
    17   15   17 1    
    18   17   18 1    
    19   18   19 1    
    20   18   27 1    
    21   19   20 2    
    22   20   21 1    
    23   21   22 ar   
    24   21   27 ar   
    25   22   23 1    
    26   22   24 ar   
    27   24   25 ar   
    28   25   26 ar   
    29   26   27 ar   
@<TRIPOS>SUBSTRUCTURE
     1 SAM403      1 GROUP   
@<TRIPOS>SET

