#    Name: 6rkc_12_SAM
#    Modification time : Fri May 22 19:28:09 2020

@<TRIPOS>MOLECULE
6rkc_12_SAM
   27    29     1     0     0
SMALL
NO_CHARGES


@<TRIPOS>ATOM
      1 N          31.8390   19.5530  -13.6700 N.4       1 SAM403      0.0000 
      2 CA         31.1950   18.3770  -14.2140 C.3       1 SAM403      0.0000 
      3 C          30.2310   17.7720  -13.2300 C.2       1 SAM403      0.0000 
      4 O          29.9890   18.3490  -12.1760 O.co2     1 SAM403      0.0000 
      5 OXT        29.6790   16.6970  -13.4650 O.co2     1 SAM403      0.0000 
      6 CB         32.3420   17.4570  -14.5570 C.3       1 SAM403      0.0000 
      7 CG         31.8800   16.1090  -15.0930 C.3       1 SAM403      0.0000 
      8 SD         33.1030   15.3630  -15.9270 S.3       1 SAM403      0.0000 
      9 CE         34.1050   16.4530  -16.7210 C.3       1 SAM403      0.0000 
     10 C5'        32.1880   14.4680  -16.9850 C.3       1 SAM403      0.0000 
     11 C4'        32.9750   13.3770  -17.6650 C.3       1 SAM403      0.0000 
     12 O4'        33.9250   13.8990  -18.5820 O.3       1 SAM403      0.0000 
     13 C3'        33.7480   12.4890  -16.7220 C.3       1 SAM403      0.0000 
     14 O3'        32.9270   11.4190  -16.3810 O.3       1 SAM403      0.0000 
     15 C2'        34.8390   11.9890  -17.6010 C.3       1 SAM403      0.0000 
     16 O2'        34.4600   10.6960  -18.0650 O.3       1 SAM403      0.0000 
     17 C1'        34.8940   12.8860  -18.8120 C.3       1 SAM403      0.0000 
     18 N9         36.1190   13.6460  -19.1190 N.pl3     1 SAM403      0.0000 
     19 C8         36.6250   13.8700  -20.3430 C.2       1 SAM403      0.0000 
     20 N7         37.7500   14.6280  -20.2780 N.2       1 SAM403      0.0000 
     21 C5         37.9170   14.9420  -19.0000 C.ar      1 SAM403      0.0000 
     22 C6         38.8440   15.7410  -18.1960 C.ar      1 SAM403      0.0000 
     23 N6         39.8690   16.4060  -18.7560 N.pl3     1 SAM403      0.0000 
     24 N1         38.6260   15.7680  -16.8660 N.ar      1 SAM403      0.0000 
     25 C2         37.6470   15.1180  -16.2420 C.ar      1 SAM403      0.0000 
     26 N3         36.7560   14.4120  -16.9280 N.ar      1 SAM403      0.0000 
     27 C4         36.8410   14.2900  -18.2550 C.ar      1 SAM403      0.0000 
@<TRIPOS>BOND
     1    1    2 1    
     2    2    3 1    
     3    2    6 1    
     4    3    4 ar   
     5    3    5 ar   
     6    6    7 1    
     7    7    8 1    
     8    8    9 1    
     9    8   10 1    
    10   10   11 1    
    11   11   12 1    
    12   11   13 1    
    13   12   17 1    
    14   13   14 1    
    15   13   15 1    
    16   15   16 1    
    17   15   17 1    
    18   17   18 1    
    19   18   19 1    
    20   18   27 1    
    21   19   20 2    
    22   20   21 1    
    23   21   22 ar   
    24   21   27 ar   
    25   22   23 1    
    26   22   24 ar   
    27   24   25 ar   
    28   25   26 ar   
    29   26   27 ar   
@<TRIPOS>SUBSTRUCTURE
     1 SAM403      1 GROUP   
@<TRIPOS>SET

