#    Name: 6rkc_5_SAM
#    Modification time : Fri May 22 19:27:25 2020

@<TRIPOS>MOLECULE
6rkc_5_SAM
   27    29     1     0     0
SMALL
NO_CHARGES


@<TRIPOS>ATOM
      1 N          11.4620   10.7280   22.7360 N.4       1 SAM404      0.0000 
      2 CA         10.1970   10.3290   22.2580 C.3       1 SAM404      0.0000 
      3 C          10.2070    8.9050   21.5730 C.2       1 SAM404      0.0000 
      4 O           9.5990    8.7300   20.4170 O.co2     1 SAM404      0.0000 
      5 OXT        10.7700    7.9210   22.1770 O.co2     1 SAM404      0.0000 
      6 CB          9.8950   11.4730   21.2940 C.3       1 SAM404      0.0000 
      7 CG          8.9220   12.6320   21.5930 C.3       1 SAM404      0.0000 
      8 SD          7.7260   12.6760   22.7750 S.3       1 SAM404      0.0000 
      9 CE          6.2220   12.4430   21.9810 C.3       1 SAM404      0.0000 
     10 C5'         7.8350   14.2940   23.2110 C.3       1 SAM404      0.0000 
     11 C4'         6.8120   14.7840   24.2010 C.3       1 SAM404      0.0000 
     12 O4'         5.5630   14.1890   24.1510 O.3       1 SAM404      0.0000 
     13 C3'         7.2030   14.5960   25.6580 C.3       1 SAM404      0.0000 
     14 O3'         8.0390   15.7030   25.8620 O.3       1 SAM404      0.0000 
     15 C2'         5.8990   14.6300   26.4150 C.3       1 SAM404      0.0000 
     16 O2'         5.7700   15.9530   26.9380 O.3       1 SAM404      0.0000 
     17 C1'         4.8390   14.3380   25.3430 C.3       1 SAM404      0.0000 
     18 N9          4.2700   13.0050   25.3010 N.pl3     1 SAM404      0.0000 
     19 C8          4.8770   11.9050   25.7170 C.2       1 SAM404      0.0000 
     20 N7          4.1270   10.8280   25.5250 N.2       1 SAM404      0.0000 
     21 C5          3.0410   11.2110   24.9540 C.ar      1 SAM404      0.0000 
     22 C6          1.8760   10.4990   24.5120 C.ar      1 SAM404      0.0000 
     23 N6          1.7940    9.1890   24.6770 N.pl3     1 SAM404      0.0000 
     24 N1          0.9260   11.2660   23.9370 N.ar      1 SAM404      0.0000 
     25 C2          1.0640   12.5790   23.7880 C.ar      1 SAM404      0.0000 
     26 N3          2.1280   13.2480   24.2190 N.ar      1 SAM404      0.0000 
     27 C4          3.1410   12.6340   24.7770 C.ar      1 SAM404      0.0000 
@<TRIPOS>BOND
     1    1    2 1    
     2    2    3 1    
     3    2    6 1    
     4    3    4 ar   
     5    3    5 ar   
     6    6    7 1    
     7    7    8 1    
     8    8    9 1    
     9    8   10 1    
    10   10   11 1    
    11   11   12 1    
    12   11   13 1    
    13   12   17 1    
    14   13   14 1    
    15   13   15 1    
    16   15   16 1    
    17   15   17 1    
    18   17   18 1    
    19   18   19 1    
    20   18   27 1    
    21   19   20 2    
    22   20   21 1    
    23   21   22 ar   
    24   21   27 ar   
    25   22   23 1    
    26   22   24 ar   
    27   24   25 ar   
    28   25   26 ar   
    29   26   27 ar   
@<TRIPOS>SUBSTRUCTURE
     1 SAM404      1 GROUP   
@<TRIPOS>SET

