#    Name: 6rkc_2_SAM_CAVITY_N1_ALL
#    Modification time : Fri May 22 19:27:02 2020

@<TRIPOS>MOLECULE
6rkc_2_SAM_CAVITY_N1_ALL
   74     0     6     0     0
SMALL
NO_CHARGES


@<TRIPOS>ATOM
      1 OG         35.4200    1.1600   28.0400 O.3       1 SER1        0.0000 
      2 N          41.7400   -1.9400   22.6400 N.am      2 ALA2        0.0000 
      3 N          42.0800   -1.5100   24.0400 N.am      2 ALA2        0.0000 
      4 O          38.0700   -3.7300   27.2800 O.2       2 ALA2        0.0000 
      5 N          35.9000   -1.1800   27.0300 N.am      2 ALA2        0.0000 
      6 O          38.6100   -2.4300   26.7600 O.2       2 ALA2        0.0000 
      7 N          39.9700   -3.0600   26.6200 N.am      2 ALA2        0.0000 
      8 N          40.5200   -1.7600   26.1000 N.am      2 ALA2        0.0000 
      9 N          37.0500   -2.6800   28.8200 N.am      2 ALA2        0.0000 
     10 N          42.7500   -0.6700   26.8300 N.am      2 ALA2        0.0000 
     11 N          44.6500    0.0100   26.1700 N.am      2 ALA2        0.0000 
     12 N          46.0100   -0.6200   26.0300 N.am      2 ALA2        0.0000 
     13 N          37.6600    2.2600   28.7800 N.am      2 ALA2        0.0000 
     14 N          39.0200    1.6300   28.6400 N.am      2 ALA2        0.0000 
     15 O          40.3700    1.0100   28.5100 O.2       2 ALA2        0.0000 
     16 O          41.7300    0.3800   28.3700 O.2       2 ALA2        0.0000 
     17 N          43.0900   -0.2400   28.2300 N.am      2 ALA2        0.0000 
     18 O          44.4500   -0.8700   28.0900 O.2       2 ALA2        0.0000 
     19 O          40.9200    2.3000   27.9800 O.2       2 ALA2        0.0000 
     20 O          42.2800    1.6800   27.8500 O.2       2 ALA2        0.0000 
     21 N          43.6300    1.0600   27.7100 N.am      2 ALA2        0.0000 
     22 N          44.1800    2.3500   27.1800 N.am      2 ALA2        0.0000 
     23 N          45.5300    1.7300   27.0500 N.am      2 ALA2        0.0000 
     24 O          40.7100    1.4300   29.9100 O.2       2 ALA2        0.0000 
     25 N          43.9700    1.4800   29.1100 N.am      2 ALA2        0.0000 
     26 N          45.3300    0.8600   28.9700 N.am      2 ALA2        0.0000 
     27 N          45.8700    2.1500   28.4500 N.am      2 ALA2        0.0000 
     28 N          46.4100    3.4500   27.9200 N.am      2 ALA2        0.0000 
     29 NZ         40.7200   -0.8900   24.1700 N.4       3 LYS4        0.0000 
     30 NZ         41.0600   -0.4600   25.5700 N.4       3 LYS4        0.0000 
     31 NZ         42.4200   -1.0900   25.4300 N.4       3 LYS4        0.0000 
     32 NZ         44.3200   -0.4200   24.7700 N.4       3 LYS4        0.0000 
     33 NZ         41.4000   -0.0400   26.9700 N.4       3 LYS4        0.0000 
     34 CZ         38.8200   -1.5600   24.8300 C.ar      4 PHE5        0.0000 
     35 CZ         39.3600   -0.2600   24.3100 C.ar      4 PHE5        0.0000 
     36 CZ         37.2600   -1.8100   26.8900 C.ar      4 PHE5        0.0000 
     37 CZ         36.4400    0.1100   26.5100 C.ar      4 PHE5        0.0000 
     38 CZ         37.8000   -0.5100   26.3700 C.ar      4 PHE5        0.0000 
     39 CZ         39.1600   -1.1400   26.2300 C.ar      4 PHE5        0.0000 
     40 CZ         39.7000    0.1600   25.7100 C.ar      4 PHE5        0.0000 
     41 CZ         36.7800    0.5400   27.9100 C.ar      4 PHE5        0.0000 
     42 CZ         38.1400   -0.0900   27.7700 C.ar      4 PHE5        0.0000 
     43 CZ         35.9700    2.4600   27.5200 C.ar      4 PHE5        0.0000 
     44 CZ         37.3200    1.8300   27.3800 C.ar      4 PHE5        0.0000 
     45 CZ         38.6800    1.2100   27.2500 C.ar      4 PHE5        0.0000 
     46 CA         40.3800   -1.3100   22.7700 C.3       5 GLY6        0.0000 
     47 CA         35.0900    0.7400   26.6500 C.3       5 GLY6        0.0000 
     48 CA         37.8600   -4.6000   29.2000 C.3       5 GLY6        0.0000 
     49 CA         35.6900   -2.0600   28.9500 C.3       5 GLY6        0.0000 
     50 CA         38.4100   -3.3100   28.6800 C.3       5 GLY6        0.0000 
     51 CA         36.2400   -0.7600   28.4300 C.3       5 GLY6        0.0000 
     52 CA         40.3100   -2.6300   28.0200 C.3       5 GLY6        0.0000 
     53 CA         40.8500   -1.3400   27.4900 C.3       5 GLY6        0.0000 
     54 CA         42.2100   -1.9600   27.3600 C.3       5 GLY6        0.0000 
     55 CA         40.0400    0.5800   27.1100 C.3       5 GLY6        0.0000 
     56 CA         36.8400   -3.5500   30.7400 C.3       5 GLY6        0.0000 
     57 CA         38.2000   -4.1800   30.6000 C.3       5 GLY6        0.0000 
     58 CA         37.3900   -2.2600   30.2200 C.3       5 GLY6        0.0000 
     59 CA         38.7400   -2.8800   30.0800 C.3       5 GLY6        0.0000 
     60 CA         40.1000   -3.5100   29.9400 C.3       5 GLY6        0.0000 
     61 CA         37.9300   -0.9600   29.6900 C.3       5 GLY6        0.0000 
     62 CA         39.2900   -1.5900   29.5500 C.3       5 GLY6        0.0000 
     63 CA         40.6500   -2.2100   29.4200 C.3       5 GLY6        0.0000 
     64 CA         37.1200    0.9600   29.3100 C.3       5 GLY6        0.0000 
     65 CA         38.4700    0.3400   29.1700 C.3       5 GLY6        0.0000 
     66 CA         39.8300   -0.2900   29.0300 C.3       5 GLY6        0.0000 
     67 CA         41.1900   -0.9100   28.8900 C.3       5 GLY6        0.0000 
     68 CA         42.5500   -1.5400   28.7600 C.3       5 GLY6        0.0000 
     69 CA         46.3500   -0.1900   27.4300 C.3       5 GLY6        0.0000 
     70 CA         47.2300    1.5300   28.3100 C.3       5 GLY6        0.0000 
     71 DU         37.5900   -1.3800   28.2900 H         6 CUB7        0.0000 
     72 DU         38.9500   -2.0100   28.1600 H         6 CUB7        0.0000 
     73 DU         39.4900   -0.7100   27.6300 H         6 CUB7        0.0000 
     74 DU         44.9900    0.4300   27.5700 H         6 CUB7        0.0000 
@<TRIPOS>BOND
@<TRIPOS>SUBSTRUCTURE
     1 SER1        1 GROUP   
     2 ALA2        2 GROUP   
     3 LYS4       29 GROUP   
     4 PHE5       34 GROUP   
     5 GLY6       46 GROUP   
     6 CUB7       71 GROUP   
@<TRIPOS>SET

