#    Name: 5zvw_1_SER_ALA_ILE_ARG_GLY_ALA
#    Modification time : Fri May 22 19:26:12 2020

@<TRIPOS>MOLECULE
5zvw_1_SER_ALA_ILE_ARG_GLY_ALA
   40    39     6     0     0
SMALL
NO_CHARGES


@<TRIPOS>ATOM
      1 N          14.3670    3.6300    4.5280 N.4       1 SER1        0.0000 
      2 CA         13.0900    3.8710    3.8630 C.3       1 SER1        0.0000 
      3 C          12.0320    4.3450    4.8520 C.2       1 SER1        0.0000 
      4 O          11.9050    3.7960    5.9480 O.2       1 SER1        0.0000 
      5 CB         12.6090    2.6020    3.1520 C.3       1 SER1        0.0000 
      6 OG         11.3130    2.7720    2.6070 O.3       1 SER1        0.0000 
      7 N          11.2770    5.3720    4.4670 N.am      2 ALA2        0.0000 
      8 CA         10.1680    5.8160    5.2930 C.3       2 ALA2        0.0000 
      9 C           9.0670    4.7600    5.3010 C.2       2 ALA2        0.0000 
     10 O           8.9850    3.9060    4.4140 O.2       2 ALA2        0.0000 
     11 CB          9.6190    7.1500    4.7950 C.3       2 ALA2        0.0000 
     12 N           8.2140    4.8220    6.3190 N.am      3 ILE3        0.0000 
     13 CA          7.1800    3.8160    6.5340 C.3       3 ILE3        0.0000 
     14 C           5.8240    4.4400    6.2220 C.2       3 ILE3        0.0000 
     15 O           5.3600    5.3370    6.9370 O.2       3 ILE3        0.0000 
     16 CB          7.2150    3.2550    7.9600 C.3       3 ILE3        0.0000 
     17 CG1         8.6460    2.8800    8.3550 C.3       3 ILE3        0.0000 
     18 CG2         6.3150    2.0330    8.0500 C.3       3 ILE3        0.0000 
     19 CD1         9.2480    1.7960    7.4840 C.3       3 ILE3        0.0000 
     20 N           5.1520    3.9060    5.2210 N.am      4 ARG4        0.0000 
     21 CA          3.8370    4.3280    4.7970 C.3       4 ARG4        0.0000 
     22 C           2.8790    3.2440    5.1010 C.2       4 ARG4        0.0000 
     23 O           3.2760    2.1600    5.1670 O.2       4 ARG4        0.0000 
     24 CB          3.7920    4.4250    3.2960 C.3       4 ARG4        0.0000 
     25 CG          4.3910    5.6220    2.6490 C.3       4 ARG4        0.0000 
     26 CD          4.3330    5.4610    1.1510 C.3       4 ARG4        0.0000 
     27 NE          5.3780    6.1870    0.4930 N.pl3     4 ARG4        0.0000 
     28 CZ          6.5970    5.7340    0.3590 C.cat     4 ARG4        0.0000 
     29 NH1         6.9150    4.5880    0.8510 N.pl3     4 ARG4        0.0000 
     30 NH2         7.4960    6.4250   -0.2200 N.pl3     4 ARG4        0.0000 
     31 N           1.6040    3.5380    5.2510 N.am      5 GLY5        0.0000 
     32 CA          0.6000    2.5230    5.4940 C.3       5 GLY5        0.0000 
     33 C          -0.8250    3.0250    5.3950 C.2       5 GLY5        0.0000 
     34 O          -1.0940    4.2150    5.5980 O.2       5 GLY5        0.0000 
     35 N          -1.7440    2.1130    5.0890 N.am      6 ALA6        0.0000 
     36 CA         -3.1580    2.4350    4.9630 C.3       6 ALA6        0.0000 
     37 C          -3.9960    1.2850    5.5070 C.2       6 ALA6        0.0000 
     38 O          -3.5540    0.1330    5.4880 O.2       6 ALA6        0.0000 
     39 CB         -3.5180    2.7210    3.5170 C.3       6 ALA6        0.0000 
     40 OXT        -5.1180    1.4750    5.9840 O.2       6 ALA6        0.0000 
@<TRIPOS>BOND
     1    1    2 1    
     2    2    3 1    
     3    2    5 1    
     4    3    4 2    
     5    3    7 am   
     6    5    6 1    
     7    7    8 1    
     8    8    9 1    
     9    8   11 1    
    10    9   10 2    
    11    9   12 am   
    12   12   13 1    
    13   13   14 1    
    14   13   16 1    
    15   14   15 2    
    16   14   20 am   
    17   16   17 1    
    18   16   18 1    
    19   17   19 1    
    20   20   21 1    
    21   21   22 1    
    22   21   24 1    
    23   22   23 2    
    24   22   31 am   
    25   24   25 1    
    26   25   26 1    
    27   26   27 1    
    28   27   28 ar   
    29   28   29 ar   
    30   28   30 ar   
    31   31   32 1    
    32   32   33 1    
    33   33   34 2    
    34   33   35 am   
    35   35   36 1    
    36   36   37 1    
    37   36   39 1    
    38   37   38 2    
    39   37   40 2    
@<TRIPOS>SUBSTRUCTURE
     1 SER1        1 RESIDUE 
     2 ALA2        7 RESIDUE 
     3 ILE3       12 RESIDUE 
     4 ARG4       20 RESIDUE 
     5 GLY5       31 RESIDUE 
     6 ALA6       35 RESIDUE 
@<TRIPOS>SET

