#    Name: 6hq7_2_PCG
#    Modification time : Fri May 22 19:28:34 2020

@<TRIPOS>MOLECULE
6hq7_2_PCG
   23    26     1     0     0
SMALL
NO_CHARGES


@<TRIPOS>ATOM
      1 PA         35.4670   25.8480   11.8140 P.3       1 PCG901      0.0000 
      2 O1A        35.3790   24.3610   12.0240 O.co2     1 PCG901      0.0000 
      3 O2A        35.2660   26.3400   10.4100 O.co2     1 PCG901      0.0000 
      4 O5'        36.8890   26.4280   12.3250 O.3       1 PCG901      0.0000 
      5 C5'        37.0350   27.8230   12.6360 C.3       1 PCG901      0.0000 
      6 C4'        35.9580   28.1650   13.6570 C.3       1 PCG901      0.0000 
      7 O4'        35.9170   29.5000   14.1590 O.3       1 PCG901      0.0000 
      8 C3'        34.5940   27.9690   13.0350 C.3       1 PCG901      0.0000 
      9 O3'        34.4220   26.5730   12.8150 O.3       1 PCG901      0.0000 
     10 C2'        33.7110   28.6400   14.0610 C.3       1 PCG901      0.0000 
     11 O2'        33.3960   27.7220   15.1010 O.3       1 PCG901      0.0000 
     12 C1'        34.5810   29.7570   14.6340 C.3       1 PCG901      0.0000 
     13 N9         34.1400   31.1250   14.2270 N.pl3     1 PCG901      0.0000 
     14 C8         33.9400   32.1590   15.0790 C.2       1 PCG901      0.0000 
     15 N7         33.5720   33.2850   14.4020 N.2       1 PCG901      0.0000 
     16 C5         33.5340   32.9720   13.0910 C.2       1 PCG901      0.0000 
     17 C6         33.2130   33.6770   11.8310 C.2       1 PCG901      0.0000 
     18 O6         32.8770   34.8760   11.8520 O.2       1 PCG901      0.0000 
     19 N1         33.2920   33.0000   10.6680 N.am      1 PCG901      0.0000 
     20 C2         33.6570   31.6900   10.6310 C.2       1 PCG901      0.0000 
     21 N2         33.7320   31.0420    9.4380 N.pl3     1 PCG901      0.0000 
     22 N3         33.9510   30.9870   11.7570 N.2       1 PCG901      0.0000 
     23 C4         33.9130   31.5550   12.9820 C.2       1 PCG901      0.0000 
@<TRIPOS>BOND
     1    1    2 ar   
     2    1    3 ar   
     3    1    4 1    
     4    1    9 1    
     5    4    5 1    
     6    5    6 1    
     7    6    7 1    
     8    6    8 1    
     9    7   12 1    
    10    8    9 1    
    11    8   10 1    
    12   10   11 1    
    13   10   12 1    
    14   12   13 1    
    15   13   14 1    
    16   13   23 1    
    17   14   15 2    
    18   15   16 1    
    19   16   17 1    
    20   16   23 2    
    21   17   18 2    
    22   17   19 am   
    23   19   20 1    
    24   20   21 1    
    25   20   22 2    
    26   22   23 1    
@<TRIPOS>SUBSTRUCTURE
     1 PCG901      1 GROUP   
@<TRIPOS>SET

