#    Name: 6hq7_1_PCG
#    Modification time : Fri May 22 19:28:25 2020

@<TRIPOS>MOLECULE
6hq7_1_PCG
   23    26     1     0     0
SMALL
NO_CHARGES


@<TRIPOS>ATOM
      1 PA         16.7900   39.4080    9.7940 P.3       1 PCG901      0.0000 
      2 O1A        18.0180   39.7020   10.6260 O.co2     1 PCG901      0.0000 
      3 O2A        15.4930   39.2390   10.5370 O.co2     1 PCG901      0.0000 
      4 O5'        16.6570   40.6030    8.6950 O.3       1 PCG901      0.0000 
      5 C5'        17.5670   40.7020    7.5800 C.3       1 PCG901      0.0000 
      6 C4'        17.5980   39.3490    6.8820 C.3       1 PCG901      0.0000 
      7 O4'        18.4640   39.1880    5.7510 O.3       1 PCG901      0.0000 
      8 C3'        18.0730   38.3010    7.8600 C.3       1 PCG901      0.0000 
      9 O3'        17.0600   38.1320    8.8460 O.3       1 PCG901      0.0000 
     10 C2'        18.3720   37.1400    6.9490 C.3       1 PCG901      0.0000 
     11 O2'        17.1840   36.3780    6.7790 O.3       1 PCG901      0.0000 
     12 C1'        18.7490   37.7810    5.6200 C.3       1 PCG901      0.0000 
     13 N9         20.1780   37.6750    5.2320 N.pl3     1 PCG901      0.0000 
     14 C8         20.6330   37.1880    4.0610 C.2       1 PCG901      0.0000 
     15 N7         21.9840   37.2790    3.9950 N.2       1 PCG901      0.0000 
     16 C5         22.3900   37.8450    5.1440 C.2       1 PCG901      0.0000 
     17 C6         23.6880   38.2500    5.7280 C.2       1 PCG901      0.0000 
     18 O6         24.7320   38.0520    5.0890 O.2       1 PCG901      0.0000 
     19 N1         23.7060   38.8240    6.9320 N.am      1 PCG901      0.0000 
     20 C2         22.5680   39.0450    7.6270 C.2       1 PCG901      0.0000 
     21 N2         22.6430   39.6120    8.8450 N.pl3     1 PCG901      0.0000 
     22 N3         21.3450   38.7080    7.1560 N.2       1 PCG901      0.0000 
     23 C4         21.2050   38.1100    5.9490 C.2       1 PCG901      0.0000 
@<TRIPOS>BOND
     1    1    2 ar   
     2    1    3 ar   
     3    1    4 1    
     4    1    9 1    
     5    4    5 1    
     6    5    6 1    
     7    6    7 1    
     8    6    8 1    
     9    7   12 1    
    10    8    9 1    
    11    8   10 1    
    12   10   11 1    
    13   10   12 1    
    14   12   13 1    
    15   13   14 1    
    16   13   23 1    
    17   14   15 2    
    18   15   16 1    
    19   16   17 1    
    20   16   23 2    
    21   17   18 2    
    22   17   19 am   
    23   19   20 1    
    24   20   21 1    
    25   20   22 2    
    26   22   23 1    
@<TRIPOS>SUBSTRUCTURE
     1 PCG901      1 GROUP   
@<TRIPOS>SET

