#    Name: 6oay_9_ADP
#    Modification time : Fri May 22 19:33:45 2020

@<TRIPOS>MOLECULE
6oay_9_ADP
   27    29     1     0     1
SMALL
NO_CHARGES


@<TRIPOS>ATOM
      1 PB        146.7640  163.0540   89.5500 P.3       1 ADP902      0.0000 
      2 O1B       146.8750  162.6930   88.0890 O.co2     1 ADP902      0.0000 
      3 O2B       146.2860  161.9400   90.4490 O.co2     1 ADP902      0.0000 
      4 O3B       146.1010  164.3840   89.8180 O.co2     1 ADP902      0.0000 
      5 PA        149.4060  162.1380   89.7830 P.3       1 ADP902      0.0000 
      6 O1A       149.7100  162.0240   88.3100 O.co2     1 ADP902      0.0000 
      7 O2A       149.0040  160.9150   90.5710 O.co2     1 ADP902      0.0000 
      8 O3A       148.2910  163.2800   89.9910 O.3       1 ADP902      0.0000 
      9 O5'       150.6600  162.8150   90.5270 O.3       1 ADP902      0.0000 
     10 C5'       151.8520  162.0930   90.8080 C.3       1 ADP902      0.0000 
     11 C4'       152.6310  162.8410   91.8850 C.3       1 ADP902      0.0000 
     12 O4'       152.7370  164.2250   91.5540 O.3       1 ADP902      0.0000 
     13 C3'       151.9450  162.7680   93.2400 C.3       1 ADP902      0.0000 
     14 O3'       152.6300  161.8490   94.0910 O.3       1 ADP902      0.0000 
     15 C2'       152.0180  164.1640   93.8220 C.3       1 ADP902      0.0000 
     16 O2'       152.8860  164.1780   94.9580 O.3       1 ADP902      0.0000 
     17 C1'       152.6030  165.0360   92.7260 C.3       1 ADP902      0.0000 
     18 N9        151.6950  166.1730   92.4330 N.pl3     1 ADP902      0.0000 
     19 C8        150.9330  166.2840   91.3310 C.2       1 ADP902      0.0000 
     20 N7        150.2170  167.4320   91.3350 N.2       1 ADP902      0.0000 
     21 C5        150.5270  168.0810   92.4650 C.ar      1 ADP902      0.0000 
     22 C6        150.1240  169.3570   93.0840 C.ar      1 ADP902      0.0000 
     23 N6        149.2280  170.1560   92.4590 N.pl3     1 ADP902      0.0000 
     24 N1        150.6720  169.6840   94.2770 N.ar      1 ADP902      0.0000 
     25 C2        151.5610  168.8760   94.8870 C.ar      1 ADP902      0.0000 
     26 N3        151.9730  167.7000   94.3760 N.ar      1 ADP902      0.0000 
     27 C4        151.5020  167.2540   93.1880 C.ar      1 ADP902      0.0000 
@<TRIPOS>BOND
     1    1    2 ar   
     2    1    3 ar   
     3    1    4 ar   
     4    1    8 1    
     5    5    6 ar   
     6    5    7 ar   
     7    5    8 1    
     8    5    9 1    
     9    9   10 1    
    10   10   11 1    
    11   11   12 1    
    12   11   13 1    
    13   12   17 1    
    14   13   14 1    
    15   13   15 1    
    16   15   16 1    
    17   15   17 1    
    18   17   18 1    
    19   18   19 1    
    20   18   27 1    
    21   19   20 2    
    22   20   21 1    
    23   21   22 ar   
    24   21   27 ar   
    25   22   23 1    
    26   22   24 ar   
    27   24   25 ar   
    28   25   26 ar   
    29   26   27 ar   
@<TRIPOS>SUBSTRUCTURE
     1 ADP902      1 GROUP   
@<TRIPOS>SET
ATOM$ORANGE STATIC     ATOMS   COLORGROUP SYSTEM 
20 10 10 11 11 13 13 15 15 17 17 19 19 21 21 22 22 25 \
25 27 27 

