#    Name: 6oay_2_AGS
#    Modification time : Fri May 22 19:32:21 2020

@<TRIPOS>MOLECULE
6oay_2_AGS
   31    33     1     0     0
SMALL
NO_CHARGES


@<TRIPOS>ATOM
      1 PG        114.0670  113.0120  138.2850 P.3       1 AGS901      0.0000 
      2 S1G       114.5820  113.6670  140.0450 S.2       1 AGS901      0.0000 
      3 O2G       113.0290  113.9060  137.5700 O.3       1 AGS901      0.0000 
      4 O3G       115.2130  112.9530  137.2560 O.3       1 AGS901      0.0000 
      5 PB        113.0080  110.7930  137.3950 P.3       1 AGS901      0.0000 
      6 O1B       113.6770  109.5080  137.2560 O.co2     1 AGS901      0.0000 
      7 O2B       113.3120  111.7550  136.2510 O.co2     1 AGS901      0.0000 
      8 O3B       113.5270  111.5930  138.5830 O.3       1 AGS901      0.0000 
      9 PA        110.9110  109.8610  138.7800 P.3       1 AGS901      0.0000 
     10 O1A       111.7620  108.7900  139.1990 O.co2     1 AGS901      0.0000 
     11 O2A       110.5780  110.9080  139.8330 O.co2     1 AGS901      0.0000 
     12 O3A       111.4790  110.6150  137.5540 O.3       1 AGS901      0.0000 
     13 O5'       109.6020  109.2440  138.2750 O.3       1 AGS901      0.0000 
     14 C5'       108.4990  110.1130  138.1350 C.3       1 AGS901      0.0000 
     15 C4'       107.2460  109.3470  138.4270 C.3       1 AGS901      0.0000 
     16 O4'       107.3300  108.0600  137.7930 O.3       1 AGS901      0.0000 
     17 C3'       106.9710  109.0890  139.9040 C.3       1 AGS901      0.0000 
     18 O3'       105.5930  109.2530  140.2030 O.3       1 AGS901      0.0000 
     19 C2'       107.3790  107.6300  140.0910 C.3       1 AGS901      0.0000 
     20 O2'       106.6000  107.0360  141.1190 O.3       1 AGS901      0.0000 
     21 C1'       107.0510  107.0460  138.7270 C.3       1 AGS901      0.0000 
     22 N9        107.8450  105.8920  138.3500 N.pl3     1 AGS901      0.0000 
     23 C8        108.8700  105.8860  137.4530 C.2       1 AGS901      0.0000 
     24 N7        109.4110  104.7080  137.2730 N.2       1 AGS901      0.0000 
     25 C5        108.6840  103.8850  138.1080 C.ar      1 AGS901      0.0000 
     26 C6        108.7550  102.5070  138.3730 C.ar      1 AGS901      0.0000 
     27 N6        109.6480  101.6910  137.8150 N.pl3     1 AGS901      0.0000 
     28 N1        107.8800  101.9960  139.2550 N.ar      1 AGS901      0.0000 
     29 C2        106.9950  102.8100  139.8280 C.ar      1 AGS901      0.0000 
     30 N3        106.8270  104.1190  139.6520 N.ar      1 AGS901      0.0000 
     31 C4        107.7080  104.5970  138.7760 C.ar      1 AGS901      0.0000 
@<TRIPOS>BOND
     1    1    2 2    
     2    1    3 1    
     3    1    4 1    
     4    1    8 1    
     5    5    6 ar   
     6    5    7 ar   
     7    5    8 1    
     8    5   12 1    
     9    9   10 ar   
    10    9   11 ar   
    11    9   12 1    
    12    9   13 1    
    13   13   14 1    
    14   14   15 1    
    15   15   16 1    
    16   15   17 1    
    17   16   21 1    
    18   17   18 1    
    19   17   19 1    
    20   19   20 1    
    21   19   21 1    
    22   21   22 1    
    23   22   23 1    
    24   22   31 1    
    25   23   24 2    
    26   24   25 1    
    27   25   26 ar   
    28   25   31 ar   
    29   26   27 1    
    30   26   28 ar   
    31   28   29 ar   
    32   29   30 ar   
    33   30   31 ar   
@<TRIPOS>SUBSTRUCTURE
     1 AGS901      1 GROUP   
@<TRIPOS>SET

