#    Name: 6oay_11_ADP
#    Modification time : Fri May 22 19:34:11 2020

@<TRIPOS>MOLECULE
6oay_11_ADP
   27    29     1     0     1
SMALL
NO_CHARGES


@<TRIPOS>ATOM
      1 PB        150.7230  163.1410  142.6650 P.3       1 ADP901      0.0000 
      2 O1B       151.1500  162.4240  141.4080 O.co2     1 ADP901      0.0000 
      3 O2B       149.6500  164.1790  142.4790 O.co2     1 ADP901      0.0000 
      4 O3B       150.5230  162.2480  143.8660 O.co2     1 ADP901      0.0000 
      5 PA        152.7560  164.9540  142.0110 P.3       1 ADP901      0.0000 
      6 O1A       153.6180  164.0980  141.1200 O.co2     1 ADP901      0.0000 
      7 O2A       151.7410  165.9010  141.4290 O.co2     1 ADP901      0.0000 
      8 O3A       152.0150  164.0030  143.0700 O.3       1 ADP901      0.0000 
      9 O5'       153.7250  165.7790  142.9880 O.3       1 ADP901      0.0000 
     10 C5'       154.0430  167.1410  142.7390 C.3       1 ADP901      0.0000 
     11 C4'       155.4670  167.3690  143.2170 C.3       1 ADP901      0.0000 
     12 O4'       156.3630  167.1270  142.1340 O.3       1 ADP901      0.0000 
     13 C3'       155.6760  168.7940  143.6810 C.3       1 ADP901      0.0000 
     14 O3'       155.8680  168.8110  145.0980 O.3       1 ADP901      0.0000 
     15 C2'       156.9240  169.2730  142.9780 C.3       1 ADP901      0.0000 
     16 O2'       157.9920  169.3500  143.9190 O.3       1 ADP901      0.0000 
     17 C1'       157.2650  168.2150  141.9500 C.3       1 ADP901      0.0000 
     18 N9        157.0650  168.7630  140.5850 N.pl3     1 ADP901      0.0000 
     19 C8        156.0990  168.3840  139.7270 C.2       1 ADP901      0.0000 
     20 N7        156.1820  169.0630  138.5570 N.2       1 ADP901      0.0000 
     21 C5        157.2270  169.9000  138.6580 C.ar      1 ADP901      0.0000 
     22 C6        157.8710  170.9020  137.7830 C.ar      1 ADP901      0.0000 
     23 N6        157.3970  171.1420  136.5370 N.pl3     1 ADP901      0.0000 
     24 N1        158.9460  171.5570  138.2710 N.ar      1 ADP901      0.0000 
     25 C2        159.4230  171.3260  139.5070 C.ar      1 ADP901      0.0000 
     26 N3        158.8880  170.4310  140.3510 N.ar      1 ADP901      0.0000 
     27 C4        157.8080  169.6980  139.9920 C.ar      1 ADP901      0.0000 
@<TRIPOS>BOND
     1    1    2 ar   
     2    1    3 ar   
     3    1    4 ar   
     4    1    8 1    
     5    5    6 ar   
     6    5    7 ar   
     7    5    8 1    
     8    5    9 1    
     9    9   10 1    
    10   10   11 1    
    11   11   12 1    
    12   11   13 1    
    13   12   17 1    
    14   13   14 1    
    15   13   15 1    
    16   15   16 1    
    17   15   17 1    
    18   17   18 1    
    19   18   19 1    
    20   18   27 1    
    21   19   20 2    
    22   20   21 1    
    23   21   22 ar   
    24   21   27 ar   
    25   22   23 1    
    26   22   24 ar   
    27   24   25 ar   
    28   25   26 ar   
    29   26   27 ar   
@<TRIPOS>SUBSTRUCTURE
     1 ADP901      1 GROUP   
@<TRIPOS>SET
ATOM$ORANGE STATIC     ATOMS   COLORGROUP SYSTEM 
20 10 10 11 11 13 13 15 15 17 17 19 19 21 21 22 22 25 \
25 27 27 

