#    Name: 6oay_6_AGS
#    Modification time : Fri May 22 19:33:07 2020

@<TRIPOS>MOLECULE
6oay_6_AGS
   31    33     1     0     0
SMALL
NO_CHARGES


@<TRIPOS>ATOM
      1 PG        160.4350  133.1050  142.8470 P.3       1 AGS901      0.0000 
      2 S1G       160.2920  134.9440  143.4530 S.2       1 AGS901      0.0000 
      3 O2G       161.4990  132.4090  143.7280 O.3       1 AGS901      0.0000 
      4 O3G       159.0460  132.4590  143.0220 O.3       1 AGS901      0.0000 
      5 PB        162.4160  132.7670  141.1740 P.3       1 AGS901      0.0000 
      6 O1B       162.8340  133.1830  139.8380 O.co2     1 AGS901      0.0000 
      7 O2B       163.0030  133.5570  142.3180 O.co2     1 AGS901      0.0000 
      8 O3B       160.8740  132.9260  141.3790 O.3       1 AGS901      0.0000 
      9 PA        164.2990  131.1950  142.1410 P.3       1 AGS901      0.0000 
     10 O1A       164.9540  132.4500  142.2700 O.co2     1 AGS901      0.0000 
     11 O2A       164.0820  130.4690  143.4630 O.co2     1 AGS901      0.0000 
     12 O3A       162.9070  131.3430  141.4790 O.3       1 AGS901      0.0000 
     13 O5'       165.1350  130.3670  141.1470 O.3       1 AGS901      0.0000 
     14 C5'       165.0820  128.9640  141.2090 C.3       1 AGS901      0.0000 
     15 C4'       166.4810  128.4380  141.2720 C.3       1 AGS901      0.0000 
     16 O4'       167.3110  129.1990  140.3730 O.3       1 AGS901      0.0000 
     17 C3'       167.1410  128.5210  142.6460 C.3       1 AGS901      0.0000 
     18 O3'       167.8990  127.3480  142.8980 O.3       1 AGS901      0.0000 
     19 C2'       168.0730  129.7190  142.5060 C.3       1 AGS901      0.0000 
     20 O2'       169.2110  129.6330  143.3530 O.3       1 AGS901      0.0000 
     21 C1'       168.4850  129.5630  141.0570 C.3       1 AGS901      0.0000 
     22 N9        169.0410  130.7570  140.4550 N.pl3     1 AGS901      0.0000 
     23 C8        168.4030  131.7160  139.7130 C.2       1 AGS901      0.0000 
     24 N7        169.1880  132.6790  139.3160 N.2       1 AGS901      0.0000 
     25 C5        170.4320  132.3330  139.8180 C.ar      1 AGS901      0.0000 
     26 C6        171.6860  132.9380  139.7430 C.ar      1 AGS901      0.0000 
     27 N6        171.9190  134.0790  139.0990 N.pl3     1 AGS901      0.0000 
     28 N1        172.7150  132.3290  140.3640 N.ar      1 AGS901      0.0000 
     29 C2        172.4890  131.1850  141.0120 C.ar      1 AGS901      0.0000 
     30 N3        171.3450  130.5220  141.1540 N.ar      1 AGS901      0.0000 
     31 C4        170.3440  131.1470  140.5230 C.ar      1 AGS901      0.0000 
@<TRIPOS>BOND
     1    1    2 2    
     2    1    3 1    
     3    1    4 1    
     4    1    8 1    
     5    5    6 ar   
     6    5    7 ar   
     7    5    8 1    
     8    5   12 1    
     9    9   10 ar   
    10    9   11 ar   
    11    9   12 1    
    12    9   13 1    
    13   13   14 1    
    14   14   15 1    
    15   15   16 1    
    16   15   17 1    
    17   16   21 1    
    18   17   18 1    
    19   17   19 1    
    20   19   20 1    
    21   19   21 1    
    22   21   22 1    
    23   22   23 1    
    24   22   31 1    
    25   23   24 2    
    26   24   25 1    
    27   25   26 ar   
    28   25   31 ar   
    29   26   27 1    
    30   26   28 ar   
    31   28   29 ar   
    32   29   30 ar   
    33   30   31 ar   
@<TRIPOS>SUBSTRUCTURE
     1 AGS901      1 GROUP   
@<TRIPOS>SET

