#    Name: 6oay_3_AGS
#    Modification time : Fri May 22 19:32:33 2020

@<TRIPOS>MOLECULE
6oay_3_AGS
   31    33     1     0     0
SMALL
NO_CHARGES


@<TRIPOS>ATOM
      1 PG         96.7600  130.9570   93.4350 P.3       1 AGS902      0.0000 
      2 S1G        98.2890  130.1530   92.5620 S.2       1 AGS902      0.0000 
      3 O2G        97.0640  131.2170   94.9260 O.3       1 AGS902      0.0000 
      4 O3G        96.4330  132.3050   92.7580 O.3       1 AGS902      0.0000 
      5 PB         94.6000  130.0510   94.6170 P.3       1 AGS902      0.0000 
      6 O1B        95.4160  130.0340   95.8330 O.co2     1 AGS902      0.0000 
      7 O2B        93.6320  128.8930   94.4370 O.co2     1 AGS902      0.0000 
      8 O3B        95.5230  130.0430   93.3640 O.3       1 AGS902      0.0000 
      9 PA         92.9290  131.4070   96.0310 P.3       1 AGS902      0.0000 
     10 O1A        93.7460  132.0410   97.0510 O.co2     1 AGS902      0.0000 
     11 O2A        92.5850  129.9530   96.2790 O.co2     1 AGS902      0.0000 
     12 O3A        93.6730  131.2920   94.6790 O.3       1 AGS902      0.0000 
     13 O5'        91.6690  132.2940   95.8530 O.3       1 AGS902      0.0000 
     14 C5'        91.6330  133.4970   96.6050 C.3       1 AGS902      0.0000 
     15 C4'        90.2570  134.0930   96.5530 C.3       1 AGS902      0.0000 
     16 O4'        89.4550  133.3370   95.6350 O.3       1 AGS902      0.0000 
     17 C3'        89.5380  134.0890   97.9000 C.3       1 AGS902      0.0000 
     18 O3'        89.2160  135.3960   98.3520 O.3       1 AGS902      0.0000 
     19 C2'        88.2950  133.2230   97.6750 C.3       1 AGS902      0.0000 
     20 O2'        87.1080  133.8400   98.1500 O.3       1 AGS902      0.0000 
     21 C1'        88.1670  133.1330   96.1620 C.3       1 AGS902      0.0000 
     22 N9         87.7300  131.8310   95.6960 N.pl3     1 AGS902      0.0000 
     23 C8         88.3780  131.0980   94.7460 C.2       1 AGS902      0.0000 
     24 N7         87.8130  129.9490   94.4810 N.2       1 AGS902      0.0000 
     25 C5         86.7260  129.9130   95.3320 C.ar      1 AGS902      0.0000 
     26 C6         85.7220  128.9560   95.5390 C.ar      1 AGS902      0.0000 
     27 N6         85.6580  127.8010   94.8800 N.pl3     1 AGS902      0.0000 
     28 N1         84.7750  129.2310   96.4530 N.ar      1 AGS902      0.0000 
     29 C2         84.8320  130.3890   97.1110 C.ar      1 AGS902      0.0000 
     30 N3         85.7260  131.3700   96.9980 N.ar      1 AGS902      0.0000 
     31 C4         86.6600  131.0660   96.0910 C.ar      1 AGS902      0.0000 
@<TRIPOS>BOND
     1    1    2 2    
     2    1    3 1    
     3    1    4 1    
     4    1    8 1    
     5    5    6 ar   
     6    5    7 ar   
     7    5    8 1    
     8    5   12 1    
     9    9   10 ar   
    10    9   11 ar   
    11    9   12 1    
    12    9   13 1    
    13   13   14 1    
    14   14   15 1    
    15   15   16 1    
    16   15   17 1    
    17   16   21 1    
    18   17   18 1    
    19   17   19 1    
    20   19   20 1    
    21   19   21 1    
    22   21   22 1    
    23   22   23 1    
    24   22   31 1    
    25   23   24 2    
    26   24   25 1    
    27   25   26 ar   
    28   25   31 ar   
    29   26   27 1    
    30   26   28 ar   
    31   28   29 ar   
    32   29   30 ar   
    33   30   31 ar   
@<TRIPOS>SUBSTRUCTURE
     1 AGS902      1 GROUP   
@<TRIPOS>SET

