#    Name: 6oay_8_ADP
#    Modification time : Fri May 22 19:33:31 2020

@<TRIPOS>MOLECULE
6oay_8_ADP
   27    29     1     0     1
SMALL
NO_CHARGES


@<TRIPOS>ATOM
      1 PB        121.8740  165.4550  134.1700 P.3       1 ADP901      0.0000 
      2 O1B       120.9890  165.0510  133.0220 O.co2     1 ADP901      0.0000 
      3 O2B       121.3730  165.0410  135.5280 O.co2     1 ADP901      0.0000 
      4 O3B       123.3420  165.1940  133.9500 O.co2     1 ADP901      0.0000 
      5 PA        120.3700  167.8110  134.0810 P.3       1 ADP901      0.0000 
      6 O1A       119.9920  168.0010  132.6370 O.co2     1 ADP901      0.0000 
      7 O2A       119.4090  167.1510  135.0300 O.co2     1 ADP901      0.0000 
      8 O3A       121.7850  167.0570  134.1670 O.3       1 ADP901      0.0000 
      9 O5'       120.7250  169.2690  134.6460 O.3       1 ADP901      0.0000 
     10 C5'       120.4040  170.3900  133.8310 C.3       1 ADP901      0.0000 
     11 C4'       121.2060  171.6230  134.2280 C.3       1 ADP901      0.0000 
     12 O4'       120.8750  172.6700  133.3200 O.3       1 ADP901      0.0000 
     13 C3'       120.8300  172.1100  135.6090 C.3       1 ADP901      0.0000 
     14 O3'       121.9620  172.7560  136.1910 O.3       1 ADP901      0.0000 
     15 C2'       119.7710  173.1490  135.3610 C.3       1 ADP901      0.0000 
     16 O2'       119.9090  174.2240  136.2900 O.3       1 ADP901      0.0000 
     17 C1'       120.0550  173.6460  133.9610 C.3       1 ADP901      0.0000 
     18 N9        118.7990  173.7560  133.1970 N.pl3     1 ADP901      0.0000 
     19 C8        118.5220  173.0750  132.0780 C.2       1 ADP901      0.0000 
     20 N7        117.3010  173.3960  131.5970 N.2       1 ADP901      0.0000 
     21 C5        116.7750  174.3140  132.4240 C.ar      1 ADP901      0.0000 
     22 C6        115.5060  175.0690  132.5060 C.ar      1 ADP901      0.0000 
     23 N6        114.5290  174.9210  131.5790 N.pl3     1 ADP901      0.0000 
     24 N1        115.3640  175.9290  133.5300 N.ar      1 ADP901      0.0000 
     25 C2        116.3180  176.0930  134.4590 C.ar      1 ADP901      0.0000 
     26 N3        117.4850  175.4400  134.4500 N.ar      1 ADP901      0.0000 
     27 C4        117.7690  174.5480  133.4770 C.ar      1 ADP901      0.0000 
@<TRIPOS>BOND
     1    1    2 ar   
     2    1    3 ar   
     3    1    4 ar   
     4    1    8 1    
     5    5    6 ar   
     6    5    7 ar   
     7    5    8 1    
     8    5    9 1    
     9    9   10 1    
    10   10   11 1    
    11   11   12 1    
    12   11   13 1    
    13   12   17 1    
    14   13   14 1    
    15   13   15 1    
    16   15   16 1    
    17   15   17 1    
    18   17   18 1    
    19   18   19 1    
    20   18   27 1    
    21   19   20 2    
    22   20   21 1    
    23   21   22 ar   
    24   21   27 ar   
    25   22   23 1    
    26   22   24 ar   
    27   24   25 ar   
    28   25   26 ar   
    29   26   27 ar   
@<TRIPOS>SUBSTRUCTURE
     1 ADP901      1 GROUP   
@<TRIPOS>SET
ATOM$ORANGE STATIC     ATOMS   COLORGROUP SYSTEM 
20 10 10 11 11 13 13 15 15 17 17 19 19 21 21 22 22 25 \
25 27 27 

