#    Name: 6oay_4_AGS
#    Modification time : Fri May 22 19:32:44 2020

@<TRIPOS>MOLECULE
6oay_4_AGS
   31    33     1     0     0
SMALL
NO_CHARGES


@<TRIPOS>ATOM
      1 PG        142.2490  109.5730  140.0430 P.3       1 AGS901      0.0000 
      2 S1G       142.9620  109.5780  141.8550 S.2       1 AGS901      0.0000 
      3 O2G       140.7240  109.3890  140.0820 O.3       1 AGS901      0.0000 
      4 O3G       142.5320  110.9100  139.3210 O.3       1 AGS901      0.0000 
      5 PB        143.8040  107.3550  139.7850 P.3       1 AGS901      0.0000 
      6 O1B       144.5140  106.6350  138.7400 O.co2     1 AGS901      0.0000 
      7 O2B       144.7380  108.1300  140.6840 O.co2     1 AGS901      0.0000 
      8 O3B       142.8420  108.4260  139.2010 O.3       1 AGS901      0.0000 
      9 PA        143.7940  105.1320  141.2540 P.3       1 AGS901      0.0000 
     10 O1A       145.1980  105.3190  141.1360 O.co2     1 AGS901      0.0000 
     11 O2A       143.2390  104.9600  142.6620 O.co2     1 AGS901      0.0000 
     12 O3A       143.0550  106.3750  140.7080 O.3       1 AGS901      0.0000 
     13 O5'       143.4480  103.9170  140.3510 O.3       1 AGS901      0.0000 
     14 C5'       142.1530  103.3420  140.3540 C.3       1 AGS901      0.0000 
     15 C4'       142.2550  101.8660  140.6070 C.3       1 AGS901      0.0000 
     16 O4'       143.3330  101.3200  139.8280 O.3       1 AGS901      0.0000 
     17 C3'       142.5280  101.4740  142.0560 C.3       1 AGS901      0.0000 
     18 O3'       141.7420  100.3530  142.4280 O.3       1 AGS901      0.0000 
     19 C2'       144.0060  101.0970  142.0450 C.3       1 AGS901      0.0000 
     20 O2'       144.2880  100.1170  143.0340 O.3       1 AGS901      0.0000 
     21 C1'       144.1370  100.5120  140.6520 C.3       1 AGS901      0.0000 
     22 N9        145.4770  100.5390  140.1070 N.pl3     1 AGS901      0.0000 
     23 C8        145.9610  101.4500  139.2150 C.2       1 AGS901      0.0000 
     24 N7        147.2020  101.2410  138.8670 N.2       1 AGS901      0.0000 
     25 C5        147.5560  100.1040  139.5650 C.ar      1 AGS901      0.0000 
     26 C6        148.7390   99.3630  139.6270 C.ar      1 AGS901      0.0000 
     27 N6        149.8420   99.6770  138.9490 N.pl3     1 AGS901      0.0000 
     28 N1        148.7560   98.2770  140.4160 N.ar      1 AGS901      0.0000 
     29 C2        147.6600   97.9670  141.1070 C.ar      1 AGS901      0.0000 
     30 N3        146.4890   98.5950  141.1360 N.ar      1 AGS901      0.0000 
     31 C4        146.4990   99.6630  140.3370 C.ar      1 AGS901      0.0000 
@<TRIPOS>BOND
     1    1    2 2    
     2    1    3 1    
     3    1    4 1    
     4    1    8 1    
     5    5    6 ar   
     6    5    7 ar   
     7    5    8 1    
     8    5   12 1    
     9    9   10 ar   
    10    9   11 ar   
    11    9   12 1    
    12    9   13 1    
    13   13   14 1    
    14   14   15 1    
    15   15   16 1    
    16   15   17 1    
    17   16   21 1    
    18   17   18 1    
    19   17   19 1    
    20   19   20 1    
    21   19   21 1    
    22   21   22 1    
    23   22   23 1    
    24   22   31 1    
    25   23   24 2    
    26   24   25 1    
    27   25   26 ar   
    28   25   31 ar   
    29   26   27 1    
    30   26   28 ar   
    31   28   29 ar   
    32   29   30 ar   
    33   30   31 ar   
@<TRIPOS>SUBSTRUCTURE
     1 AGS901      1 GROUP   
@<TRIPOS>SET

