#    Name: 6oay_1_AGS
#    Modification time : Fri May 22 19:32:08 2020

@<TRIPOS>MOLECULE
6oay_1_AGS
   31    33     1     0     0
SMALL
NO_CHARGES


@<TRIPOS>ATOM
      1 PG        103.3660  141.6110  132.5510 P.3       1 AGS901      0.0000 
      2 S1G       102.2560  142.9070  131.6130 S.2       1 AGS901      0.0000 
      3 O2G       104.8670  141.9240  132.3150 O.3       1 AGS901      0.0000 
      4 O3G       103.0950  141.6420  134.0790 O.3       1 AGS901      0.0000 
      5 PB        102.0140  139.4070  132.9880 P.3       1 AGS901      0.0000 
      6 O1B       102.8330  138.6430  133.9490 O.co2     1 AGS901      0.0000 
      7 O2B       101.1180  138.5620  132.0870 O.co2     1 AGS901      0.0000 
      8 O3B       103.0040  140.1880  132.0680 O.3       1 AGS901      0.0000 
      9 PA         99.5020  140.4270  133.4210 P.3       1 AGS901      0.0000 
     10 O1A        98.7460  139.6350  134.3520 O.co2     1 AGS901      0.0000 
     11 O2A        99.3490  140.0040  131.9700 O.co2     1 AGS901      0.0000 
     12 O3A       101.0530  140.4480  133.6960 O.3       1 AGS901      0.0000 
     13 O5'        99.0070  141.8790  133.6390 O.3       1 AGS901      0.0000 
     14 C5'        97.9060  142.3740  132.8650 C.3       1 AGS901      0.0000 
     15 C4'        97.0390  143.2090  133.7660 C.3       1 AGS901      0.0000 
     16 O4'        95.7710  143.4430  133.1210 O.3       1 AGS901      0.0000 
     17 C3'        96.6940  142.5450  135.0940 C.3       1 AGS901      0.0000 
     18 O3'        97.6680  142.8170  136.0950 O.3       1 AGS901      0.0000 
     19 C2'        95.3270  143.1410  135.4070 C.3       1 AGS901      0.0000 
     20 O2'        95.4490  144.4760  135.8740 O.3       1 AGS901      0.0000 
     21 C1'        94.7130  143.1700  134.0180 C.3       1 AGS901      0.0000 
     22 N9         94.0740  141.9290  133.6070 N.pl3     1 AGS901      0.0000 
     23 C8         94.5210  141.0390  132.6720 C.2       1 AGS901      0.0000 
     24 N7         93.7310  140.0090  132.4940 N.2       1 AGS901      0.0000 
     25 C5         92.6850  140.2490  133.3670 C.ar      1 AGS901      0.0000 
     26 C6         91.5140  139.5270  133.6590 C.ar      1 AGS901      0.0000 
     27 N6         91.1900  138.3740  133.0750 N.pl3     1 AGS901      0.0000 
     28 N1         90.6810  140.0380  134.5850 N.ar      1 AGS901      0.0000 
     29 C2         91.0000  141.1930  135.1710 C.ar      1 AGS901      0.0000 
     30 N3         92.0750  141.9580  134.9820 N.ar      1 AGS901      0.0000 
     31 C4         92.8820  141.4250  134.0630 C.ar      1 AGS901      0.0000 
@<TRIPOS>BOND
     1    1    2 2    
     2    1    3 1    
     3    1    4 1    
     4    1    8 1    
     5    5    6 ar   
     6    5    7 ar   
     7    5    8 1    
     8    5   12 1    
     9    9   10 ar   
    10    9   11 ar   
    11    9   12 1    
    12    9   13 1    
    13   13   14 1    
    14   14   15 1    
    15   15   16 1    
    16   15   17 1    
    17   16   21 1    
    18   17   18 1    
    19   17   19 1    
    20   19   20 1    
    21   19   21 1    
    22   21   22 1    
    23   22   23 1    
    24   22   31 1    
    25   23   24 2    
    26   24   25 1    
    27   25   26 ar   
    28   25   31 ar   
    29   26   27 1    
    30   26   28 ar   
    31   28   29 ar   
    32   29   30 ar   
    33   30   31 ar   
@<TRIPOS>SUBSTRUCTURE
     1 AGS901      1 GROUP   
@<TRIPOS>SET

