#    Name: 6oay_7_AGS
#    Modification time : Fri May 22 19:33:17 2020

@<TRIPOS>MOLECULE
6oay_7_AGS
   31    33     1     0     0
SMALL
NO_CHARGES


@<TRIPOS>ATOM
      1 PG        142.0910  106.6830  102.3520 P.3       1 AGS902      0.0000 
      2 S1G       142.2680  107.4670  104.1270 S.2       1 AGS902      0.0000 
      3 O2G       140.7120  106.0080  102.1690 O.3       1 AGS902      0.0000 
      4 O3G       142.2000  107.7900  101.2850 O.3       1 AGS902      0.0000 
      5 PB        143.9760  104.8440  103.1350 P.3       1 AGS902      0.0000 
      6 O1B       144.8510  105.6910  103.9280 O.co2     1 AGS902      0.0000 
      7 O2B       144.7700  103.8000  102.3730 O.co2     1 AGS902      0.0000 
      8 O3B       143.2200  105.6720  102.0500 O.3       1 AGS902      0.0000 
      9 PA        143.8320  102.7750  104.6790 P.3       1 AGS902      0.0000 
     10 O1A       145.2200  102.9270  104.4270 O.co2     1 AGS902      0.0000 
     11 O2A       143.4020  102.7980  106.1370 O.co2     1 AGS902      0.0000 
     12 O3A       143.0770  103.9450  104.0050 O.3       1 AGS902      0.0000 
     13 O5'       143.4120  101.4390  104.0190 O.3       1 AGS902      0.0000 
     14 C5'       142.2620  100.7500  104.4790 C.3       1 AGS902      0.0000 
     15 C4'       142.6440   99.3540  104.8720 C.3       1 AGS902      0.0000 
     16 O4'       143.3590   98.7540  103.7870 O.3       1 AGS902      0.0000 
     17 C3'       143.5790   99.2800  106.0660 C.3       1 AGS902      0.0000 
     18 O3'       142.8470   99.0970  107.2690 O.3       1 AGS902      0.0000 
     19 C2'       144.4200   98.0400  105.7870 C.3       1 AGS902      0.0000 
     20 O2'       143.8490   96.8810  106.3690 O.3       1 AGS902      0.0000 
     21 C1'       144.3840   97.9150  104.2680 C.3       1 AGS902      0.0000 
     22 N9        145.5960   98.3180  103.5910 N.pl3     1 AGS902      0.0000 
     23 C8        145.6610   99.2610  102.6100 C.2       1 AGS902      0.0000 
     24 N7        146.8630   99.4480  102.1400 N.2       1 AGS902      0.0000 
     25 C5        147.6440   98.5700  102.8570 C.ar      1 AGS902      0.0000 
     26 C6        149.0090   98.2780  102.8250 C.ar      1 AGS902      0.0000 
     27 N6        149.8710   98.8860  102.0090 N.pl3     1 AGS902      0.0000 
     28 N1        149.4670   97.3380  103.6670 N.ar      1 AGS902      0.0000 
     29 C2        148.6090   96.7390  104.4920 C.ar      1 AGS902      0.0000 
     30 N3        147.2950   96.9160  104.6010 N.ar      1 AGS902      0.0000 
     31 C4        146.8710   97.8560  103.7560 C.ar      1 AGS902      0.0000 
@<TRIPOS>BOND
     1    1    2 2    
     2    1    3 1    
     3    1    4 1    
     4    1    8 1    
     5    5    6 ar   
     6    5    7 ar   
     7    5    8 1    
     8    5   12 1    
     9    9   10 ar   
    10    9   11 ar   
    11    9   12 1    
    12    9   13 1    
    13   13   14 1    
    14   14   15 1    
    15   15   16 1    
    16   15   17 1    
    17   16   21 1    
    18   17   18 1    
    19   17   19 1    
    20   19   20 1    
    21   19   21 1    
    22   21   22 1    
    23   22   23 1    
    24   22   31 1    
    25   23   24 2    
    26   24   25 1    
    27   25   26 ar   
    28   25   31 ar   
    29   26   27 1    
    30   26   28 ar   
    31   28   29 ar   
    32   29   30 ar   
    33   30   31 ar   
@<TRIPOS>SUBSTRUCTURE
     1 AGS902      1 GROUP   
@<TRIPOS>SET

