#    Name: 6oay_10_ADP
#    Modification time : Fri May 22 19:33:59 2020

@<TRIPOS>MOLECULE
6oay_10_ADP
   27    29     1     0     1
SMALL
NO_CHARGES


@<TRIPOS>ATOM
      1 PB        108.0140  159.1210   87.1860 P.3       1 ADP902      0.0000 
      2 O1B       107.8220  158.4370   85.8560 O.co2     1 ADP902      0.0000 
      3 O2B       106.8400  159.9580   87.6280 O.co2     1 ADP902      0.0000 
      4 O3B       108.6430  158.2550   88.2440 O.co2     1 ADP902      0.0000 
      5 PA        109.7540  161.1550   88.0400 P.3       1 ADP902      0.0000 
      6 O1A       111.2400  160.9010   88.1320 O.co2     1 ADP902      0.0000 
      7 O2A       108.8700  161.0790   89.2610 O.co2     1 ADP902      0.0000 
      8 O3A       109.1580  160.2020   86.8970 O.3       1 ADP902      0.0000 
      9 O5'       109.5210  162.5830   87.3500 O.3       1 ADP902      0.0000 
     10 C5'       110.5370  163.5770   87.3570 C.3       1 ADP902      0.0000 
     11 C4'       109.9000  164.8750   87.8180 C.3       1 ADP902      0.0000 
     12 O4'       108.7630  165.2100   87.0280 O.3       1 ADP902      0.0000 
     13 C3'       109.3990  164.6990   89.2310 C.3       1 ADP902      0.0000 
     14 O3'       110.2810  165.3580   90.1380 O.3       1 ADP902      0.0000 
     15 C2'       108.0210  165.3190   89.2530 C.3       1 ADP902      0.0000 
     16 O2'       108.0000  166.4450   90.1280 O.3       1 ADP902      0.0000 
     17 C1'       107.7450  165.7830   87.8470 C.3       1 ADP902      0.0000 
     18 N9        106.4280  165.2800   87.4110 N.pl3     1 ADP902      0.0000 
     19 C8        106.2610  164.3000   86.5180 C.2       1 ADP902      0.0000 
     20 N7        104.9530  164.0540   86.2970 N.2       1 ADP902      0.0000 
     21 C5        104.2500  164.8940   87.0670 C.ar      1 ADP902      0.0000 
     22 C6        102.8160  165.1530   87.3100 C.ar      1 ADP902      0.0000 
     23 N6        101.8620  164.4430   86.6670 N.pl3     1 ADP902      0.0000 
     24 N1        102.4900  166.1170   88.1900 N.ar      1 ADP902      0.0000 
     25 C2        103.4370  166.8220   88.8230 C.ar      1 ADP902      0.0000 
     26 N3        104.7580  166.6390   88.6580 N.ar      1 ADP902      0.0000 
     27 C4        105.2250  165.7060   87.8000 C.ar      1 ADP902      0.0000 
@<TRIPOS>BOND
     1    1    2 ar   
     2    1    3 ar   
     3    1    4 ar   
     4    1    8 1    
     5    5    6 ar   
     6    5    7 ar   
     7    5    8 1    
     8    5    9 1    
     9    9   10 1    
    10   10   11 1    
    11   11   12 1    
    12   11   13 1    
    13   12   17 1    
    14   13   14 1    
    15   13   15 1    
    16   15   16 1    
    17   15   17 1    
    18   17   18 1    
    19   18   19 1    
    20   18   27 1    
    21   19   20 2    
    22   20   21 1    
    23   21   22 ar   
    24   21   27 ar   
    25   22   23 1    
    26   22   24 ar   
    27   24   25 ar   
    28   25   26 ar   
    29   26   27 ar   
@<TRIPOS>SUBSTRUCTURE
     1 ADP902      1 GROUP   
@<TRIPOS>SET
ATOM$ORANGE STATIC     ATOMS   COLORGROUP SYSTEM 
20 10 10 11 11 13 13 15 15 17 17 19 19 21 21 22 22 25 \
25 27 27 

