#    Name: 6oay_5_AGS
#    Modification time : Fri May 22 19:32:56 2020

@<TRIPOS>MOLECULE
6oay_5_AGS
   31    33     1     0     0
SMALL
NO_CHARGES


@<TRIPOS>ATOM
      1 PG        112.4410  106.2570   99.5860 P.3       1 AGS902      0.0000 
      2 S1G       112.7510  106.7320  101.4490 S.2       1 AGS902      0.0000 
      3 O2G       111.1280  106.8900   99.0920 O.3       1 AGS902      0.0000 
      4 O3G       113.5850  106.7930   98.6990 O.3       1 AGS902      0.0000 
      5 PB        111.9110  103.7760  100.5510 P.3       1 AGS902      0.0000 
      6 O1B       113.0110  103.5680  101.4580 O.co2     1 AGS902      0.0000 
      7 O2B       111.4770  102.4430   99.9640 O.co2     1 AGS902      0.0000 
      8 O3B       112.3480  104.7270   99.3870 O.3       1 AGS902      0.0000 
      9 PA        110.1640  103.2980  102.3600 P.3       1 AGS902      0.0000 
     10 O1A       110.7300  102.0250  102.1560 O.co2     1 AGS902      0.0000 
     11 O2A       110.4030  103.9440  103.7150 O.co2     1 AGS902      0.0000 
     12 O3A       110.6760  104.2910  101.3060 O.3       1 AGS902      0.0000 
     13 O5'       108.6660  103.1030  102.1640 O.3       1 AGS902      0.0000 
     14 C5'       108.1950  102.1350  103.0520 C.3       1 AGS902      0.0000 
     15 C4'       106.7020  102.0840  103.0830 C.3       1 AGS902      0.0000 
     16 O4'       106.2580  101.1420  102.0990 O.3       1 AGS902      0.0000 
     17 C3'       106.1690  101.5170  104.3840 C.3       1 AGS902      0.0000 
     18 O3'       104.7710  101.7110  104.4850 O.3       1 AGS902      0.0000 
     19 C2'       106.3950  100.0300  104.1880 C.3       1 AGS902      0.0000 
     20 O2'       105.4250   99.2890  104.9100 O.3       1 AGS902      0.0000 
     21 C1'       106.1290   99.8660  102.6930 C.3       1 AGS902      0.0000 
     22 N9        107.0680   98.9880  102.0300 N.pl3     1 AGS902      0.0000 
     23 C8        107.8720   99.3410  100.9910 C.2       1 AGS902      0.0000 
     24 N7        108.6340   98.3730  100.5570 N.2       1 AGS902      0.0000 
     25 C5        108.3130   97.3100  101.3730 C.ar      1 AGS902      0.0000 
     26 C6        108.7690   95.9860  101.4210 C.ar      1 AGS902      0.0000 
     27 N6        109.7020   95.4960  100.6070 N.pl3     1 AGS902      0.0000 
     28 N1        108.2320   95.1740  102.3450 N.ar      1 AGS902      0.0000 
     29 C2        107.2980   95.6590  103.1630 C.ar      1 AGS902      0.0000 
     30 N3        106.7870   96.8870  103.2120 N.ar      1 AGS902      0.0000 
     31 C4        107.3380   97.6690  102.2820 C.ar      1 AGS902      0.0000 
@<TRIPOS>BOND
     1    1    2 2    
     2    1    3 1    
     3    1    4 1    
     4    1    8 1    
     5    5    6 ar   
     6    5    7 ar   
     7    5    8 1    
     8    5   12 1    
     9    9   10 ar   
    10    9   11 ar   
    11    9   12 1    
    12    9   13 1    
    13   13   14 1    
    14   14   15 1    
    15   15   16 1    
    16   15   17 1    
    17   16   21 1    
    18   17   18 1    
    19   17   19 1    
    20   19   20 1    
    21   19   21 1    
    22   21   22 1    
    23   22   23 1    
    24   22   31 1    
    25   23   24 2    
    26   24   25 1    
    27   25   26 ar   
    28   25   31 ar   
    29   26   27 1    
    30   26   28 ar   
    31   28   29 ar   
    32   29   30 ar   
    33   30   31 ar   
@<TRIPOS>SUBSTRUCTURE
     1 AGS902      1 GROUP   
@<TRIPOS>SET

