#    Name: 6p4u_1_AMP_CAVITY_N1_ALL
#    Modification time : Fri May 22 19:26:07 2020

@<TRIPOS>MOLECULE
6p4u_1_AMP_CAVITY_N1_ALL
   98     0     7     0     0
SMALL
NO_CHARGES


@<TRIPOS>ATOM
      1 OG        -24.2600  -31.7000   10.9600 O.3       1 SER1        0.0000 
      2 OG        -23.0200  -32.2700   10.3500 O.3       1 SER1        0.0000 
      3 OG        -23.4300  -30.9200   11.9400 O.3       1 SER1        0.0000 
      4 OG        -22.1200  -30.3500   10.3700 O.3       1 SER1        0.0000 
      5 OG        -20.7800  -34.5400   17.1400 O.3       1 SER1        0.0000 
      6 OG        -17.1300  -29.1900   12.0900 O.3       1 SER1        0.0000 
      7 OG        -18.0200  -27.6300   16.2200 O.3       1 SER1        0.0000 
      8 O         -22.8700  -38.2200   12.6300 O.2       2 ALA2        0.0000 
      9 N         -23.2800  -36.8700   14.2100 N.am      2 ALA2        0.0000 
     10 N         -23.2100  -35.7200   13.2400 N.am      2 ALA2        0.0000 
     11 N         -21.9700  -36.3000   12.6400 N.am      2 ALA2        0.0000 
     12 N         -25.6400  -33.4100   13.4900 N.am      2 ALA2        0.0000 
     13 N         -23.1500  -34.5700   12.2800 N.am      2 ALA2        0.0000 
     14 N         -23.0800  -33.4200   11.3200 N.am      2 ALA2        0.0000 
     15 N         -22.5100  -37.2400   16.1500 N.am      2 ALA2        0.0000 
     16 N         -22.4500  -36.0900   15.1900 N.am      2 ALA2        0.0000 
     17 N         -22.3800  -34.9400   14.2200 N.am      2 ALA2        0.0000 
     18 N         -24.8100  -32.6400   14.4700 N.am      2 ALA2        0.0000 
     19 N         -23.5600  -33.2200   13.8600 N.am      2 ALA2        0.0000 
     20 O         -22.1900  -31.5000   11.3300 O.2       2 ALA2        0.0000 
     21 N         -22.8600  -34.7400   16.7700 N.am      2 ALA2        0.0000 
     22 N         -21.6100  -35.3200   16.1600 N.am      2 ALA2        0.0000 
     23 N         -22.7900  -33.5900   15.8000 N.am      2 ALA2        0.0000 
     24 N         -21.5500  -34.1700   15.2000 N.am      2 ALA2        0.0000 
     25 N         -19.6900  -29.1800   14.2700 N.am      2 ALA2        0.0000 
     26 N         -17.2000  -30.3300   13.0600 N.am      2 ALA2        0.0000 
     27 N         -18.8500  -28.4100   15.2400 N.am      2 ALA2        0.0000 
     28 N         -18.7900  -27.2600   14.2800 N.am      2 ALA2        0.0000 
     29 N         -17.9500  -26.4800   15.2600 N.am      2 ALA2        0.0000 
     30 OD1       -25.1600  -33.6200   10.9400 O.co2     3 ASP3        0.0000 
     31 OD1       -19.4000  -32.8300   14.6100 O.co2     3 ASP3        0.0000 
     32 OD1       -18.1600  -33.4000   14.0100 O.co2     3 ASP3        0.0000 
     33 OD1       -19.3400  -31.6800   13.6500 O.co2     3 ASP3        0.0000 
     34 OD1       -18.0900  -32.2600   13.0400 O.co2     3 ASP3        0.0000 
     35 OD1       -18.5100  -30.9000   14.6300 O.co2     3 ASP3        0.0000 
     36 OD1       -18.9800  -30.7000   17.1700 O.co2     3 ASP3        0.0000 
     37 OD1       -18.9200  -29.5500   16.2100 O.co2     3 ASP3        0.0000 
     38 OD1       -17.6700  -30.1300   15.6000 O.co2     3 ASP3        0.0000 
     39 OD1       -17.6100  -28.9800   14.6400 O.co2     3 ASP3        0.0000 
     40 OD1       -16.3600  -29.5600   14.0400 O.co2     3 ASP3        0.0000 
     41 OD1       -17.5400  -27.8400   13.6800 O.co2     3 ASP3        0.0000 
     42 OD1       -16.3000  -28.4100   13.0700 O.co2     3 ASP3        0.0000 
     43 OD1       -18.0800  -28.7800   17.1900 O.co2     3 ASP3        0.0000 
     44 OD1       -16.7700  -28.2100   15.6200 O.co2     3 ASP3        0.0000 
     45 OD1       -16.7100  -27.0600   14.6500 O.co2     3 ASP3        0.0000 
     46 NZ        -25.1000  -32.4700    9.9800 N.4       4 LYS4        0.0000 
     47 NZ        -20.3700  -35.9000   15.5600 N.4       4 LYS4        0.0000 
     48 NZ        -20.3000  -34.7500   14.6000 N.4       4 LYS4        0.0000 
     49 NZ        -18.9900  -34.1800   13.0300 N.4       4 LYS4        0.0000 
     50 NZ        -20.0400  -30.1600   10.7400 N.4       4 LYS4        0.0000 
     51 NZ        -19.5300  -35.1200   16.5400 N.4       4 LYS4        0.0000 
     52 NZ        -19.4700  -33.9700   15.5700 N.4       4 LYS4        0.0000 
     53 CZ        -22.1000  -38.5900   14.5700 C.ar      5 PHE5        0.0000 
     54 CZ        -22.0300  -37.4400   13.6000 C.ar      5 PHE5        0.0000 
     55 CZ        -21.2700  -37.8200   15.5400 C.ar      5 PHE5        0.0000 
     56 CZ        -21.2000  -36.6700   14.5800 C.ar      5 PHE5        0.0000 
     57 CZ        -19.8900  -36.1000   13.0100 C.ar      5 PHE5        0.0000 
     58 CA        -26.4700  -34.1900   12.5100 C.3       6 GLY6        0.0000 
     59 CA        -23.3500  -38.0100   15.1700 C.3       6 GLY6        0.0000 
     60 CA        -24.4000  -33.9900   12.8800 C.3       6 GLY6        0.0000 
     61 CA        -21.0700  -34.3700   12.6500 C.3       6 GLY6        0.0000 
     62 CA        -19.8300  -34.9500   12.0500 C.3       6 GLY6        0.0000 
     63 CA        -22.2500  -32.6500   12.2900 C.3       6 GLY6        0.0000 
     64 CA        -21.0100  -33.2300   11.6900 C.3       6 GLY6        0.0000 
     65 CA        -20.9400  -32.0800   10.7300 C.3       6 GLY6        0.0000 
     66 CA        -24.6100  -29.2000   11.5800 C.3       6 GLY6        0.0000 
     67 CA        -23.3700  -29.7800   10.9700 C.3       6 GLY6        0.0000 
     68 CA        -20.1700  -32.4500   12.6700 C.3       6 GLY6        0.0000 
     69 CA        -20.1100  -31.3000   11.7100 C.3       6 GLY6        0.0000 
     70 CA        -23.7800  -28.4200   12.5500 C.3       6 GLY6        0.0000 
     71 CA        -22.5300  -29.0000   11.9500 C.3       6 GLY6        0.0000 
     72 CA        -21.2900  -29.5800   11.3500 C.3       6 GLY6        0.0000 
     73 CA        -18.0300  -31.1100   12.0800 C.3       6 GLY6        0.0000 
     74 DU        -26.4100  -33.0400   11.5500 H         7 CUB7        0.0000 
     75 DU        -25.5800  -32.2700   12.5200 H         7 CUB7        0.0000 
     76 DU        -24.3300  -32.8400   11.9200 H         7 CUB7        0.0000 
     77 DU        -25.5100  -31.1200   11.5600 H         7 CUB7        0.0000 
     78 DU        -21.1400  -35.5200   13.6200 H         7 CUB7        0.0000 
     79 DU        -22.3200  -33.8000   13.2600 H         7 CUB7        0.0000 
     80 DU        -24.7400  -31.4900   13.5000 H         7 CUB7        0.0000 
     81 DU        -23.5000  -32.0700   12.9000 H         7 CUB7        0.0000 
     82 DU        -25.9200  -29.7700   13.1400 H         7 CUB7        0.0000 
     83 DU        -24.6800  -30.3500   12.5400 H         7 CUB7        0.0000 
     84 DU        -22.7300  -32.4400   14.8400 H         7 CUB7        0.0000 
     85 DU        -21.4800  -33.0200   14.2400 H         7 CUB7        0.0000 
     86 DU        -20.2400  -33.6000   13.6300 H         7 CUB7        0.0000 
     87 DU        -21.4200  -31.8700   13.2700 H         7 CUB7        0.0000 
     88 DU        -23.8400  -29.5700   13.5200 H         7 CUB7        0.0000 
     89 DU        -22.6000  -30.1500   12.9100 H         7 CUB7        0.0000 
     90 DU        -21.3500  -30.7300   12.3100 H         7 CUB7        0.0000 
     91 DU        -25.0200  -27.8500   13.1600 H         7 CUB7        0.0000 
     92 DU        -20.6500  -32.2500   15.2100 H         7 CUB7        0.0000 
     93 DU        -20.5800  -31.1000   14.2500 H         7 CUB7        0.0000 
     94 DU        -21.7700  -29.3800   13.8900 H         7 CUB7        0.0000 
     95 DU        -20.5200  -29.9500   13.2900 H         7 CUB7        0.0000 
     96 DU        -19.2700  -30.5300   12.6800 H         7 CUB7        0.0000 
     97 DU        -19.7500  -30.3300   15.2300 H         7 CUB7        0.0000 
     98 DU        -18.4400  -29.7600   13.6600 H         7 CUB7        0.0000 
@<TRIPOS>BOND
@<TRIPOS>SUBSTRUCTURE
     1 SER1        1 GROUP   
     2 ALA2        8 GROUP   
     3 ASP3       30 GROUP   
     4 LYS4       46 GROUP   
     5 PHE5       53 GROUP   
     6 GLY6       58 GROUP   
     7 CUB7       74 GROUP   
@<TRIPOS>SET

