#    Name: 6p4u_1_AMP
#    Modification time : Fri May 22 19:26:06 2020

@<TRIPOS>MOLECULE
6p4u_1_AMP
   23    25     1     0     1
SMALL
NO_CHARGES


@<TRIPOS>ATOM
      1 P         -24.2820  -33.6570   11.2640 P.3       1 AMP3101     0.0000 
      2 O1P       -23.6080  -32.6900   10.3190 O.co2     1 AMP3101     0.0000 
      3 O2P       -24.7220  -34.9540   10.6280 O.co2     1 AMP3101     0.0000 
      4 O3P       -25.3040  -33.0240   12.1790 O.co2     1 AMP3101     0.0000 
      5 O5'       -23.1070  -34.1200   12.2330 O.3       1 AMP3101     0.0000 
      6 C5'       -22.3130  -33.1710   12.9290 C.3       1 AMP3101     0.0000 
      7 C4'       -21.4680  -33.8370   13.9840 C.3       1 AMP3101     0.0000 
      8 O4'       -22.2930  -34.7580   14.7430 O.3       1 AMP3101     0.0000 
      9 C3'       -20.3250  -34.7020   13.4740 C.3       1 AMP3101     0.0000 
     10 O3'       -19.1700  -33.9530   13.1360 O.3       1 AMP3101     0.0000 
     11 C2'       -20.1060  -35.6770   14.6220 C.3       1 AMP3101     0.0000 
     12 O2'       -19.3660  -35.0610   15.6670 O.3       1 AMP3101     0.0000 
     13 C1'       -21.5380  -35.8910   15.1120 C.3       1 AMP3101     0.0000 
     14 N9        -22.1560  -37.0840   14.5020 N.pl3     1 AMP3101     0.0000 
     15 C8        -22.7270  -37.1470   13.2830 C.2       1 AMP3101     0.0000 
     16 N7        -23.1990  -38.3940   13.0240 N.2       1 AMP3101     0.0000 
     17 C5        -22.9290  -39.1560   14.1000 C.ar      1 AMP3101     0.0000 
     18 C6        -23.1530  -40.5670   14.4930 C.ar      1 AMP3101     0.0000 
     19 N6        -23.7780  -41.4350   13.6610 N.pl3     1 AMP3101     0.0000 
     20 N1        -22.7120  -40.9580   15.7090 N.ar      1 AMP3101     0.0000 
     21 C2        -22.0900  -40.1070   16.5450 C.ar      1 AMP3101     0.0000 
     22 N3        -21.8540  -38.8160   16.2550 N.ar      1 AMP3101     0.0000 
     23 C4        -22.2410  -38.2890   15.0690 C.ar      1 AMP3101     0.0000 
@<TRIPOS>BOND
     1    1    2 ar   
     2    1    3 ar   
     3    1    4 ar   
     4    1    5 1    
     5    5    6 1    
     6    6    7 1    
     7    7    8 1    
     8    7    9 1    
     9    8   13 1    
    10    9   10 1    
    11    9   11 1    
    12   11   12 1    
    13   11   13 1    
    14   13   14 1    
    15   14   15 1    
    16   14   23 1    
    17   15   16 2    
    18   16   17 1    
    19   17   18 ar   
    20   17   23 ar   
    21   18   19 1    
    22   18   20 ar   
    23   20   21 ar   
    24   21   22 ar   
    25   22   23 ar   
@<TRIPOS>SUBSTRUCTURE
     1 AMP3101     1 GROUP   
@<TRIPOS>SET
ATOM$ORANGE STATIC     ATOMS   COLORGROUP SYSTEM 
20 6 6 7 7 9 9 11 11 13 13 15 15 17 17 18 18 21 \
21 23 23 

