#    Name: 6ujy_1_1RZ
#    Modification time : Fri May 22 19:25:12 2020

@<TRIPOS>MOLECULE
6ujy_1_1RZ
   27    28     1     0     0
SMALL
NO_CHARGES


@<TRIPOS>ATOM
      1 O3G       -48.4740    2.5580  -22.9880           1 1RZ601      0.0000 
      2 PG        -48.4010    2.9220  -24.4490           1 1RZ601      0.0000 
      3 O1G       -47.2150    3.8040  -24.8960           1 1RZ601      0.0000 
      4 PB        -46.9830    0.8590  -25.8110           1 1RZ601      0.0000 
      5 O2B       -47.1100   -0.6560  -26.0250           1 1RZ601      0.0000 
      6 O1B       -46.6390    1.8690  -26.9170           1 1RZ601      0.0000 
      7 O3A       -45.7450    0.7140  -24.8210           1 1RZ601      0.0000 
      8 PA        -44.6300    1.9010  -24.5940           1 1RZ601      0.0000 
      9 O1A       -45.0640    2.4620  -23.2530           1 1RZ601      0.0000 
     10 O2A       -44.2690    2.9120  -25.7280           1 1RZ601      0.0000 
     11 O5'       -43.3130    0.9510  -24.3360           1 1RZ601      0.0000 
     12 C5'       -43.4820   -0.4270  -24.0160           1 1RZ601      0.0000 
     13 C4'       -42.2030   -1.2320  -24.0270           1 1RZ601      0.0000 
     14 O4'       -41.6790   -1.0090  -25.3270           1 1RZ601      0.0000 
     15 S3'       -42.4470   -2.9770  -23.8180           1 1RZ601      0.0000 
     16 C2'       -40.9340   -3.2070  -24.6870           1 1RZ601      0.0000 
     17 C1'       -40.8010   -2.0700  -25.6810           1 1RZ601      0.0000 
     18 N1        -41.1480   -2.5020  -27.0300           1 1RZ601      0.0000 
     19 C2        -40.1950   -2.5920  -28.0110           1 1RZ601      0.0000 
     20 O2        -38.8560   -2.3040  -27.9010           1 1RZ601      0.0000 
     21 N3        -40.5340   -3.0040  -29.2420           1 1RZ601      0.0000 
     22 C4        -41.7980   -3.3430  -29.5420           1 1RZ601      0.0000 
     23 N4        -42.0050   -3.7370  -30.8230           1 1RZ601      0.0000 
     24 C5        -42.8030   -3.2690  -28.5560           1 1RZ601      0.0000 
     25 C6        -42.4380   -2.8320  -27.2810           1 1RZ601      0.0000 
     26 O3B       -48.3090    1.4560  -25.1290           1 1RZ601      0.0000 
     27 O2C       -49.6370    3.5420  -25.0010           1 1RZ601      0.0000 
@<TRIPOS>BOND
     1    1    2 du   
     2    2    3 du   
     3    2   26 du   
     4    2   27 du   
     5    4    5 du   
     6    4    6 du   
     7    4    7 du   
     8    4   26 du   
     9    7    8 du   
    10    8    9 du   
    11    8   10 du   
    12    8   11 du   
    13   11   12 du   
    14   12   13 du   
    15   13   14 du   
    16   13   15 du   
    17   14   17 du   
    18   15   16 du   
    19   16   17 du   
    20   17   18 du   
    21   18   19 du   
    22   18   25 du   
    23   19   20 du   
    24   19   21 du   
    25   21   22 du   
    26   22   23 du   
    27   22   24 du   
    28   24   25 du   
@<TRIPOS>SUBSTRUCTURE
     1 1RZ601      1 GROUP   
@<TRIPOS>SET

