#    Name: 5oeu_1_ADP
#    Modification time : Fri May 22 19:25:02 2020

@<TRIPOS>MOLECULE
5oeu_1_ADP
   27    29     1     0     1
SMALL
NO_CHARGES


@<TRIPOS>ATOM
      1 PB        -12.0720   40.0380  -29.8650 P.3       1 ADP601      0.0000 
      2 O1B       -12.4500   40.3570  -31.2950 O.co2     1 ADP601      0.0000 
      3 O2B       -13.0850   39.1280  -29.1540 O.co2     1 ADP601      0.0000 
      4 O3B       -10.6310   39.6060  -29.6970 O.co2     1 ADP601      0.0000 
      5 PA        -12.5380   41.9800  -27.7160 P.3       1 ADP601      0.0000 
      6 O1A       -12.6250   43.4730  -27.7880 O.co2     1 ADP601      0.0000 
      7 O2A       -13.8010   41.2280  -27.3540 O.co2     1 ADP601      0.0000 
      8 O3A       -12.0190   41.5170  -29.1790 O.3       1 ADP601      0.0000 
      9 O5'       -11.3060   41.6890  -26.7060 O.3       1 ADP601      0.0000 
     10 C5'       -10.9880   40.4200  -26.1310 C.3       1 ADP601      0.0000 
     11 C4'       -11.2560   40.3390  -24.6170 C.3       1 ADP601      0.0000 
     12 O4'       -10.7880   41.4580  -23.8390 O.3       1 ADP601      0.0000 
     13 C3'       -12.7350   40.2320  -24.2510 C.3       1 ADP601      0.0000 
     14 O3'       -13.2820   38.9430  -24.5390 O.3       1 ADP601      0.0000 
     15 C2'       -12.7350   40.5880  -22.7760 C.3       1 ADP601      0.0000 
     16 O2'       -12.3440   39.4920  -21.9320 O.3       1 ADP601      0.0000 
     17 C1'       -11.6790   41.6820  -22.7260 C.3       1 ADP601      0.0000 
     18 N9        -12.3660   43.0010  -22.8200 N.pl3     1 ADP601      0.0000 
     19 C8        -12.7790   43.5940  -23.9520 C.2       1 ADP601      0.0000 
     20 N7        -13.3590   44.7750  -23.6780 N.2       1 ADP601      0.0000 
     21 C5        -13.3490   44.9590  -22.3580 C.ar      1 ADP601      0.0000 
     22 C6        -13.8120   46.0070  -21.4270 C.ar      1 ADP601      0.0000 
     23 N6        -14.4240   47.1130  -21.8880 N.pl3     1 ADP601      0.0000 
     24 N1        -13.5890   45.8150  -20.1060 N.ar      1 ADP601      0.0000 
     25 C2        -12.9740   44.7000  -19.6370 C.ar      1 ADP601      0.0000 
     26 N3        -12.5420   43.7100  -20.4350 N.ar      1 ADP601      0.0000 
     27 C4        -12.6920   43.7800  -21.7840 C.ar      1 ADP601      0.0000 
@<TRIPOS>BOND
     1    1    2 ar   
     2    1    3 ar   
     3    1    4 ar   
     4    1    8 1    
     5    5    6 ar   
     6    5    7 ar   
     7    5    8 1    
     8    5    9 1    
     9    9   10 1    
    10   10   11 1    
    11   11   12 1    
    12   11   13 1    
    13   12   17 1    
    14   13   14 1    
    15   13   15 1    
    16   15   16 1    
    17   15   17 1    
    18   17   18 1    
    19   18   19 1    
    20   18   27 1    
    21   19   20 2    
    22   20   21 1    
    23   21   22 ar   
    24   21   27 ar   
    25   22   23 1    
    26   22   24 ar   
    27   24   25 ar   
    28   25   26 ar   
    29   26   27 ar   
@<TRIPOS>SUBSTRUCTURE
     1 ADP601      1 GROUP   
@<TRIPOS>SET
ATOM$ORANGE STATIC     ATOMS   COLORGROUP SYSTEM 
20 10 10 11 11 13 13 15 15 17 17 19 19 21 21 22 22 25 \
25 27 27 

