#    Name: 6ecu_2_SAH
#    Modification time : Fri May 22 19:29:04 2020

@<TRIPOS>MOLECULE
6ecu_2_SAH
   26    28     1     0     0
SMALL
NO_CHARGES


@<TRIPOS>ATOM
      1 N          36.3870   17.0960   68.4130 N.4       1 SAH1300     0.0000 
      2 CA         36.7190   15.9200   69.2090 C.3       1 SAH1300     0.0000 
      3 CB         38.0170   16.1550   69.9740 C.3       1 SAH1300     0.0000 
      4 CG         39.0540   16.9150   69.1530 C.3       1 SAH1300     0.0000 
      5 SD         40.5980   17.3330   70.0110 S.3       1 SAH1300     0.0000 
      6 C          35.5920   15.5500   70.1660 C.2       1 SAH1300     0.0000 
      7 O          34.7580   16.3850   70.5210 O.co2     1 SAH1300     0.0000 
      8 OXT        35.4870   14.4020   70.5980 O.co2     1 SAH1300     0.0000 
      9 C5'        40.9310   15.6170   70.4960 C.3       1 SAH1300     0.0000 
     10 C4'        41.1070   14.6210   69.3530 C.3       1 SAH1300     0.0000 
     11 O4'        41.7820   15.2000   68.2490 O.3       1 SAH1300     0.0000 
     12 C3'        41.9340   13.4300   69.8170 C.3       1 SAH1300     0.0000 
     13 O3'        41.2620   12.2410   69.4890 O.3       1 SAH1300     0.0000 
     14 C2'        43.2070   13.4940   69.0080 C.3       1 SAH1300     0.0000 
     15 O2'        43.6510   12.2110   68.6300 O.3       1 SAH1300     0.0000 
     16 C1'        42.7690   14.2960   67.7970 C.3       1 SAH1300     0.0000 
     17 N9         43.9190   14.9570   67.1650 N.pl3     1 SAH1300     0.0000 
     18 C8         44.6820   15.9810   67.6660 C.2       1 SAH1300     0.0000 
     19 N7         45.6420   16.2730   66.7520 N.2       1 SAH1300     0.0000 
     20 C5         45.4980   15.4420   65.6900 C.ar      1 SAH1300     0.0000 
     21 C6         46.1980   15.3020   64.5000 C.ar      1 SAH1300     0.0000 
     22 N6         47.2370   16.0880   64.2360 N.pl3     1 SAH1300     0.0000 
     23 N1         45.8060   14.3450   63.5900 N.ar      1 SAH1300     0.0000 
     24 C2         44.7260   13.5260   63.8560 C.ar      1 SAH1300     0.0000 
     25 N3         44.0410   13.6670   65.0460 N.ar      1 SAH1300     0.0000 
     26 C4         44.4190   14.6100   65.9410 C.ar      1 SAH1300     0.0000 
@<TRIPOS>BOND
     1    1    2 1    
     2    2    3 1    
     3    2    6 1    
     4    3    4 1    
     5    4    5 1    
     6    5    9 1    
     7    6    7 ar   
     8    6    8 ar   
     9    9   10 1    
    10   10   11 1    
    11   10   12 1    
    12   11   16 1    
    13   12   13 1    
    14   12   14 1    
    15   14   15 1    
    16   14   16 1    
    17   16   17 1    
    18   17   18 1    
    19   17   26 1    
    20   18   19 2    
    21   19   20 1    
    22   20   21 ar   
    23   20   26 ar   
    24   21   22 1    
    25   21   23 ar   
    26   23   24 ar   
    27   24   25 ar   
    28   25   26 ar   
@<TRIPOS>SUBSTRUCTURE
     1 SAH1300     1 GROUP   
@<TRIPOS>SET

