#    Name: 6ecu_1_SAH
#    Modification time : Fri May 22 19:28:59 2020

@<TRIPOS>MOLECULE
6ecu_1_SAH
   26    28     1     0     0
SMALL
NO_CHARGES


@<TRIPOS>ATOM
      1 N          24.5320   45.9610   30.9820 N.4       1 SAH1300     0.0000 
      2 CA         24.7110   46.9680   29.9430 C.3       1 SAH1300     0.0000 
      3 CB         23.3710   47.5780   29.5500 C.3       1 SAH1300     0.0000 
      4 CG         22.3280   47.6700   30.6580 C.3       1 SAH1300     0.0000 
      5 SD         20.8520   48.5650   30.0960 S.3       1 SAH1300     0.0000 
      6 C          25.6760   48.0620   30.3850 C.2       1 SAH1300     0.0000 
      7 O          25.8490   49.0710   29.6990 O.co2     1 SAH1300     0.0000 
      8 OXT        26.3100   47.9550   31.4340 O.co2     1 SAH1300     0.0000 
      9 C5'        19.8500   47.0600   30.1750 C.3       1 SAH1300     0.0000 
     10 C4'        20.0730   46.1400   28.9800 C.3       1 SAH1300     0.0000 
     11 O4'        19.3760   44.9240   29.1670 O.3       1 SAH1300     0.0000 
     12 C3'        19.5780   46.7460   27.6750 C.3       1 SAH1300     0.0000 
     13 O3'        20.6120   46.6640   26.7230 O.3       1 SAH1300     0.0000 
     14 C2'        18.4310   45.8630   27.2330 C.3       1 SAH1300     0.0000 
     15 O2'        18.4640   45.6670   25.8390 O.3       1 SAH1300     0.0000 
     16 C1'        18.7000   44.5670   27.9780 C.3       1 SAH1300     0.0000 
     17 N9         17.4760   43.8210   28.3100 N.pl3     1 SAH1300     0.0000 
     18 C8         16.3770   44.2790   28.9920 C.2       1 SAH1300     0.0000 
     19 N7         15.4820   43.2640   29.0900 N.2       1 SAH1300     0.0000 
     20 C5         16.0010   42.1730   28.4780 C.ar      1 SAH1300     0.0000 
     21 C6         15.5210   40.8850   28.2830 C.ar      1 SAH1300     0.0000 
     22 N6         14.3250   40.5290   28.7420 N.pl3     1 SAH1300     0.0000 
     23 N1         16.2970   39.9690   27.6070 N.ar      1 SAH1300     0.0000 
     24 C2         17.5410   40.3240   27.1260 C.ar      1 SAH1300     0.0000 
     25 N3         18.0120   41.6030   27.3230 N.ar      1 SAH1300     0.0000 
     26 C4         17.2550   42.5100   27.9880 C.ar      1 SAH1300     0.0000 
@<TRIPOS>BOND
     1    1    2 1    
     2    2    3 1    
     3    2    6 1    
     4    3    4 1    
     5    4    5 1    
     6    5    9 1    
     7    6    7 ar   
     8    6    8 ar   
     9    9   10 1    
    10   10   11 1    
    11   10   12 1    
    12   11   16 1    
    13   12   13 1    
    14   12   14 1    
    15   14   15 1    
    16   14   16 1    
    17   16   17 1    
    18   17   18 1    
    19   17   26 1    
    20   18   19 2    
    21   19   20 1    
    22   20   21 ar   
    23   20   26 ar   
    24   21   22 1    
    25   21   23 ar   
    26   23   24 ar   
    27   24   25 ar   
    28   25   26 ar   
@<TRIPOS>SUBSTRUCTURE
     1 SAH1300     1 GROUP   
@<TRIPOS>SET

