#    Name: 6uqf_2_CMP
#    Modification time : Fri May 22 19:27:52 2020

@<TRIPOS>MOLECULE
6uqf_2_CMP
   22    25     1     0     1
SMALL
NO_CHARGES


@<TRIPOS>ATOM
      1 P         155.0580  139.1190  117.0040 P.3       1 CMP901      0.0000 
      2 O1P       154.4070  138.6840  115.7190 O.co2     1 CMP901      0.0000 
      3 O2P       155.5410  140.5420  117.1100 O.co2     1 CMP901      0.0000 
      4 O5'       153.9680  138.8820  118.1570 O.3       1 CMP901      0.0000 
      5 C5'       153.7500  137.5950  118.7240 C.3       1 CMP901      0.0000 
      6 C4'       155.0750  136.9330  118.9330 C.3       1 CMP901      0.0000 
      7 O4'       154.9780  135.5530  119.3370 O.3       1 CMP901      0.0000 
      8 C3'       155.8970  136.8480  117.6840 C.3       1 CMP901      0.0000 
      9 O3'       156.3070  138.1310  117.2740 O.3       1 CMP901      0.0000 
     10 C2'       156.9890  135.8780  118.1010 C.3       1 CMP901      0.0000 
     11 O2'       157.9520  136.5310  118.9090 O.3       1 CMP901      0.0000 
     12 C1'       156.1880  134.9060  118.9870 C.3       1 CMP901      0.0000 
     13 N9        155.8860  133.6450  118.2910 N.pl3     1 CMP901      0.0000 
     14 C8        155.1570  133.4980  117.1750 C.2       1 CMP901      0.0000 
     15 N7        155.0970  132.1940  116.8090 N.2       1 CMP901      0.0000 
     16 C5        155.7980  131.4830  117.7080 C.ar      1 CMP901      0.0000 
     17 C6        156.1400  130.0610  117.9240 C.ar      1 CMP901      0.0000 
     18 N6        155.7120  129.0930  117.0840 N.pl3     1 CMP901      0.0000 
     19 N1        156.8990  129.7520  118.9930 N.ar      1 CMP901      0.0000 
     20 C2        157.3380  130.6940  119.8430 C.ar      1 CMP901      0.0000 
     21 N3        157.0660  132.0000  119.7080 N.ar      1 CMP901      0.0000 
     22 C4        156.3150  132.4490  118.6810 C.ar      1 CMP901      0.0000 
@<TRIPOS>BOND
     1    1    2 ar   
     2    1    3 ar   
     3    1    4 1    
     4    1    9 1    
     5    4    5 1    
     6    5    6 1    
     7    6    7 1    
     8    6    8 1    
     9    7   12 1    
    10    8    9 1    
    11    8   10 1    
    12   10   11 1    
    13   10   12 1    
    14   12   13 1    
    15   13   14 1    
    16   13   22 1    
    17   14   15 2    
    18   15   16 1    
    19   16   17 ar   
    20   16   22 ar   
    21   17   18 1    
    22   17   19 ar   
    23   19   20 ar   
    24   20   21 ar   
    25   21   22 ar   
@<TRIPOS>SUBSTRUCTURE
     1 CMP901      1 GROUP   
@<TRIPOS>SET
ATOM$ORANGE STATIC     ATOMS   COLORGROUP SYSTEM 
20 5 5 6 6 8 8 10 10 12 12 14 14 16 16 17 17 20 \
20 22 22 

