#    Name: 6ia6_1_DCA
#    Modification time : Fri May 22 19:24:28 2020

@<TRIPOS>MOLECULE
6ia6_1_DCA
   79    81     1     0     0
SMALL
NO_CHARGES


@<TRIPOS>ATOM
      1 N1A       -15.8940  -39.6960   14.1000 N.ar      1 DCA501      0.0000 
      2 C2A       -15.1170  -40.6960   14.5880 C.ar      1 DCA501      0.0000 
      3 N3A       -14.9940  -41.8540   13.9010 N.ar      1 DCA501      0.0000 
      4 C4A       -15.6450  -42.0220   12.7230 C.ar      1 DCA501      0.0000 
      5 C5A       -16.4080  -41.0350   12.2470 C.ar      1 DCA501      0.0000 
      6 C6A       -16.5320  -39.8530   12.9520 C.ar      1 DCA501      0.0000 
      7 N6A       -17.3140  -38.5930   12.6530 N.pl3     1 DCA501      0.0000 
      8 N7A       -16.9320  -41.4450   11.0890 N.2       1 DCA501      0.0000 
      9 C8A       -16.4880  -42.6860   10.8540 C.2       1 DCA501      0.0000 
     10 N9A       -15.6950  -43.0520   11.8620 N.pl3     1 DCA501      0.0000 
     11 C1B       -14.9900  -44.2650   12.0740 C.3       1 DCA501      0.0000 
     12 C2B       -15.5200  -45.3310   11.4660 C.3       1 DCA501      0.0000 
     13 O2B       -16.3850  -46.0710   12.3930 O.3       1 DCA501      0.0000 
     14 C3B       -14.3030  -46.1900   11.0940 C.3       1 DCA501      0.0000 
     15 O3B       -13.8420  -46.8830   12.1600 O.3       1 DCA501      0.0000 
     16 P3B       -14.4210  -48.3940   12.4120 P.3       1 DCA501      0.0000 
     17 O7A       -13.6440  -49.0510   13.5180 O.co2     1 DCA501      0.0000 
     18 O8A       -15.8610  -48.3120   12.7950 O.co2     1 DCA501      0.0000 
     19 O9A       -14.2860  -49.1850   11.1840 O.co2     1 DCA501      0.0000 
     20 C4B       -13.2510  -45.0930   10.6560 C.3       1 DCA501      0.0000 
     21 O4B       -13.4590  -44.1060   11.4850 O.3       1 DCA501      0.0000 
     22 C5B       -13.5160  -44.6190    9.2010 C.3       1 DCA501      0.0000 
     23 O5B       -12.6930  -45.3620    8.2690 O.3       1 DCA501      0.0000 
     24 P1A       -11.7170  -44.5220    7.1810 P.3       1 DCA501      0.0000 
     25 O1A       -11.0360  -43.3170    7.8880 O.co2     1 DCA501      0.0000 
     26 O2A       -10.6320  -45.4630    6.6500 O.co2     1 DCA501      0.0000 
     27 O3A       -12.5990  -43.9810    5.9490 O.3       1 DCA501      0.0000 
     28 P2A       -14.2280  -43.7480    5.9880 P.3       1 DCA501      0.0000 
     29 O4A       -14.7380  -43.6090    4.5920 O.co2     1 DCA501      0.0000 
     30 O5A       -14.9090  -44.9410    6.6560 O.co2     1 DCA501      0.0000 
     31 O6A       -14.5790  -42.3790    6.8240 O.3       1 DCA501      0.0000 
     32 CBP       -15.0720  -39.9840    6.7920 C.3       1 DCA501      0.0000 
     33 CCP       -14.1100  -41.1230    6.3150 C.3       1 DCA501      0.0000 
     34 CDP       -14.6690  -38.6590    6.0970 C.3       1 DCA501      0.0000 
     35 CEP       -14.9340  -39.8060    8.3250 C.3       1 DCA501      0.0000 
     36 CAP       -16.5360  -40.3660    6.4140 C.3       1 DCA501      0.0000 
     37 OAP       -17.0710  -41.1640    7.3890 O.3       1 DCA501      0.0000 
     38 C9P       -17.4040  -39.0850    6.2680 C.2       1 DCA501      0.0000 
     39 O9P       -17.7810  -38.7760    5.2610 O.2       1 DCA501      0.0000 
     40 N8P       -17.7340  -38.2530    7.4850 N.am      1 DCA501      0.0000 
     41 C7P       -18.5290  -37.0720    7.3480 C.3       1 DCA501      0.0000 
     42 C6P       -18.0360  -36.0320    8.3580 C.3       1 DCA501      0.0000 
     43 C5P       -16.7190  -35.4280    7.9090 C.2       1 DCA501      0.0000 
     44 O5P       -15.6880  -35.9080    8.2500 O.2       1 DCA501      0.0000 
     45 N4P       -16.7250  -34.2090    7.0360 N.am      1 DCA501      0.0000 
     46 C3P       -15.4390  -33.6020    6.5940 C.3       1 DCA501      0.0000 
     47 C2P       -15.7580  -32.3790    5.5980 C.3       1 DCA501      0.0000 
     48 H2A       -14.6690  -40.5840   15.3950 H         1 DCA501      0.0000 
     49 H61A      -18.0860  -38.4720   13.0120 H         1 DCA501      0.0000 
     50 H62A      -16.9860  -38.0000   12.1230 H         1 DCA501      0.0000 
     51 H8A       -16.6970  -43.2060   10.1120 H         1 DCA501      0.0000 
     52 H1B       -14.9970  -44.4650   13.0230 H         1 DCA501      0.0000 
     53 H2B       -16.0200  -45.0650   10.6790 H         1 DCA501      0.0000 
     54 HO2A      -15.9430  -46.2750   13.0900 H         1 DCA501      0.0000 
     55 H3B       -14.5090  -46.8180   10.3840 H         1 DCA501      0.0000 
     56 H4B       -12.3490  -45.4410   10.7290 H         1 DCA501      0.0000 
     57 H51A      -13.3060  -43.6740    9.1300 H         1 DCA501      0.0000 
     58 H52A      -14.4510  -44.7590    8.9840 H         1 DCA501      0.0000 
     59 H121      -14.0960  -41.1500    5.3450 H         1 DCA501      0.0000 
     60 H122      -13.2150  -40.9510    6.6480 H         1 DCA501      0.0000 
     61 H131      -13.7020  -38.5780    6.0930 H         1 DCA501      0.0000 
     62 H132      -14.9970  -38.6600    5.1840 H         1 DCA501      0.0000 
     63 H133      -15.0540  -37.9110    6.5780 H         1 DCA501      0.0000 
     64 H141      -15.4830  -39.0600    8.6140 H         1 DCA501      0.0000 
     65 H142      -15.2250  -40.6150    8.7720 H         1 DCA501      0.0000 
     66 H143      -14.0060  -39.6290    8.5470 H         1 DCA501      0.0000 
     67 H10       -16.5240  -40.8420    5.5680 H         1 DCA501      0.0000 
     68 HO1       -17.6070  -41.7200    7.0360 H         1 DCA501      0.0000 
     69 HN8       -17.4450  -38.4880    8.2600 H         1 DCA501      0.0000 
     70 H71       -18.4410  -36.7200    6.4480 H         1 DCA501      0.0000 
     71 H72       -19.4600  -37.2810    7.5230 H         1 DCA501      0.0000 
     72 H61       -17.9120  -36.4590    9.2210 H         1 DCA501      0.0000 
     73 H62       -18.6970  -35.3280    8.4400 H         1 DCA501      0.0000 
     74 HN4       -17.4720  -33.8620    6.7900 H         1 DCA501      0.0000 
     75 H31       -14.9060  -34.2680    6.1330 H         1 DCA501      0.0000 
     76 H32       -14.9520  -33.2750    7.3660 H         1 DCA501      0.0000 
     77 H21       -14.9650  -31.8320    5.4920 H         1 DCA501      0.0000 
     78 H22       -16.4760  -31.8400    5.9660 H         1 DCA501      0.0000 
     79 H23       -16.0270  -32.7270    4.7330 H         1 DCA501      0.0000 
@<TRIPOS>BOND
     1    1    2 ar   
     2    1    6 ar   
     3    2    3 ar   
     4    3    4 ar   
     5    2   48 1    
     6    4    5 ar   
     7    4   10 1    
     8    5    6 ar   
     9    5    8 1    
    10    6    7 1    
    11    8    9 2    
    12    7   49 1    
    13    7   50 1    
    14    9   10 1    
    15   10   11 1    
    16    9   51 1    
    17   11   12 1    
    18   11   21 1    
    19   11   52 1    
    20   12   13 1    
    21   12   14 1    
    22   12   53 1    
    23   14   15 1    
    24   13   54 1    
    25   14   20 1    
    26   14   55 1    
    27   15   16 1    
    28   16   17 ar   
    29   16   18 ar   
    30   16   19 ar   
    31   20   21 1    
    32   20   22 1    
    33   20   56 1    
    34   22   23 1    
    35   22   57 1    
    36   22   58 1    
    37   23   24 1    
    38   24   25 ar   
    39   24   26 ar   
    40   24   27 1    
    41   27   28 1    
    42   28   29 ar   
    43   28   30 ar   
    44   28   31 1    
    45   31   33 1    
    46   32   33 1    
    47   32   34 1    
    48   32   35 1    
    49   32   36 1    
    50   33   59 1    
    51   33   60 1    
    52   34   61 1    
    53   34   62 1    
    54   34   63 1    
    55   35   66 1    
    56   35   64 1    
    57   35   65 1    
    58   36   37 1    
    59   36   38 1    
    60   36   67 1    
    61   37   68 1    
    62   38   39 2    
    63   38   40 am   
    64   40   41 1    
    65   41   42 1    
    66   40   69 1    
    67   41   70 1    
    68   41   71 1    
    69   42   43 1    
    70   42   72 1    
    71   42   73 1    
    72   43   44 2    
    73   43   45 am   
    74   45   46 1    
    75   46   47 1    
    76   45   74 1    
    77   46   75 1    
    78   46   76 1    
    79   47   77 1    
    80   47   78 1    
    81   47   79 1    
@<TRIPOS>SUBSTRUCTURE
     1 DCA501      1 GROUP   
@<TRIPOS>SET

