#    Name: 6h0n_2_NAD
#    Modification time : Fri May 22 19:34:23 2020

@<TRIPOS>MOLECULE
6h0n_2_NAD
   44    48     1     0     1
SMALL
NO_CHARGES


@<TRIPOS>ATOM
      1 PA         -8.7740   52.6130   29.8610 P.3       1 NAD401      0.0000 
      2 O1A       -10.1970   52.5050   30.3350 O.co2     1 NAD401      0.0000 
      3 O2A        -8.4420   52.9400   28.4350 O.co2     1 NAD401      0.0000 
      4 O5B        -8.0850   51.2260   30.1860 O.3       1 NAD401      0.0000 
      5 C5B        -8.4840   50.5980   31.3860 C.3       1 NAD401      0.0000 
      6 C4B        -8.8200   49.2050   30.9550 C.3       1 NAD401      0.0000 
      7 O4B        -9.0960   48.4450   32.1220 O.3       1 NAD401      0.0000 
      8 C3B       -10.0270   49.1640   30.0500 C.3       1 NAD401      0.0000 
      9 O3B        -9.7020   48.3890   28.8920 O.3       1 NAD401      0.0000 
     10 C2B       -11.0330   48.5090   30.9530 C.3       1 NAD401      0.0000 
     11 O2B       -11.9890   47.6790   30.3110 O.3       1 NAD401      0.0000 
     12 C1B       -10.1810   47.6310   31.8380 C.3       1 NAD401      0.0000 
     13 N9A       -10.9770   47.2000   32.9910 N.pl3     1 NAD401      0.0000 
     14 C8A       -11.7520   47.9360   33.7910 C.2       1 NAD401      0.0000 
     15 N7A       -12.3770   47.1530   34.6990 N.2       1 NAD401      0.0000 
     16 C5A       -12.0050   45.9020   34.4810 C.ar      1 NAD401      0.0000 
     17 C6A       -12.2660   44.5880   35.0900 C.ar      1 NAD401      0.0000 
     18 N6A       -13.0890   44.4520   36.1360 N.pl3     1 NAD401      0.0000 
     19 N1A       -11.6510   43.5150   34.5700 N.ar      1 NAD401      0.0000 
     20 C2A       -10.8300   43.6260   33.5080 C.ar      1 NAD401      0.0000 
     21 N3A       -10.5450   44.8040   32.9080 N.ar      1 NAD401      0.0000 
     22 C4A       -11.0910   45.9480   33.3480 C.ar      1 NAD401      0.0000 
     23 O3         -7.9040   53.6550   30.7470 O.3       1 NAD401      0.0000 
     24 PN         -6.3840   54.0790   30.3520 P.3       1 NAD401      0.0000 
     25 O1N        -6.4140   55.4560   29.7300 O.co2     1 NAD401      0.0000 
     26 O2N        -5.7040   52.8450   29.7210 O.co2     1 NAD401      0.0000 
     27 O5D        -5.7840   54.3410   31.8110 O.3       1 NAD401      0.0000 
     28 C5D        -5.2480   53.2200   32.4930 C.3       1 NAD401      0.0000 
     29 C4D        -4.7750   53.5800   33.8950 C.3       1 NAD401      0.0000 
     30 O4D        -4.0050   54.7860   33.9100 O.3       1 NAD401      0.0000 
     31 C3D        -5.9370   53.7790   34.8340 C.3       1 NAD401      0.0000 
     32 O3D        -5.5680   53.1720   36.0820 O.3       1 NAD401      0.0000 
     33 C2D        -6.0380   55.2720   34.9160 C.3       1 NAD401      0.0000 
     34 O2D        -6.5330   55.6000   36.1950 O.3       1 NAD401      0.0000 
     35 C1D        -4.6150   55.7770   34.7420 C.3       1 NAD401      0.0000 
     36 N1N        -4.5170   57.1670   34.2070 N.pl3     1 NAD401      0.0000 
     37 C2N        -4.5660   57.3870   32.8950 C.ar      1 NAD401      0.0000 
     38 C3N        -4.4800   58.6740   32.3860 C.ar      1 NAD401      0.0000 
     39 C7N        -4.5180   58.8600   30.9150 C.2       1 NAD401      0.0000 
     40 O7N        -3.9290   59.8210   30.4580 O.2       1 NAD401      0.0000 
     41 N7N        -5.1550   57.9890   30.1340 N.am      1 NAD401      0.0000 
     42 C4N        -4.3390   59.7760   33.2360 C.ar      1 NAD401      0.0000 
     43 C5N        -4.2760   59.5430   34.6010 C.ar      1 NAD401      0.0000 
     44 C6N        -4.3720   58.2210   35.0450 C.ar      1 NAD401      0.0000 
@<TRIPOS>BOND
     1    1    2 ar   
     2    1    3 ar   
     3    1    4 1    
     4    1   23 1    
     5    4    5 1    
     6    5    6 1    
     7    6    7 1    
     8    6    8 1    
     9    7   12 1    
    10    8    9 1    
    11    8   10 1    
    12   10   11 1    
    13   10   12 1    
    14   12   13 1    
    15   13   14 1    
    16   13   22 1    
    17   14   15 2    
    18   15   16 1    
    19   16   17 ar   
    20   16   22 ar   
    21   17   18 1    
    22   17   19 ar   
    23   19   20 ar   
    24   20   21 ar   
    25   21   22 ar   
    26   23   24 1    
    27   24   25 ar   
    28   24   26 ar   
    29   24   27 1    
    30   27   28 1    
    31   28   29 1    
    32   29   30 1    
    33   29   31 1    
    34   30   35 1    
    35   31   32 1    
    36   31   33 1    
    37   33   34 1    
    38   33   35 1    
    39   35   36 1    
    40   36   37 ar   
    41   36   44 ar   
    42   37   38 ar   
    43   38   39 1    
    44   38   42 ar   
    45   39   40 2    
    46   39   41 am   
    47   42   43 ar   
    48   43   44 ar   
@<TRIPOS>SUBSTRUCTURE
     1 NAD401      1 GROUP   
@<TRIPOS>SET
ATOM$ORANGE STATIC     ATOMS   COLORGROUP SYSTEM 
42 5 5 6 6 8 8 10 10 12 12 14 14 16 16 17 17 20 \
20 22 22 28 28 29 29 31 31 33 33 35 35 37 37 38 38 39 \
39 42 42 43 43 44 44 

