#    Name: 6h0n_1_NAD
#    Modification time : Fri May 22 19:34:19 2020

@<TRIPOS>MOLECULE
6h0n_1_NAD
   44    48     1     0     1
SMALL
NO_CHARGES


@<TRIPOS>ATOM
      1 PA        -12.5760   54.1430   70.9720 P.3       1 NAD401      0.0000 
      2 O1A       -11.4470   53.2810   70.4710 O.co2     1 NAD401      0.0000 
      3 O2A       -12.7680   54.3240   72.4580 O.co2     1 NAD401      0.0000 
      4 O5B       -13.9370   53.5260   70.4070 O.3       1 NAD401      0.0000 
      5 C5B       -13.8610   52.5340   69.3800 C.3       1 NAD401      0.0000 
      6 C4B       -14.4690   51.2460   69.8900 C.3       1 NAD401      0.0000 
      7 O4B       -14.7550   50.5320   68.7100 O.3       1 NAD401      0.0000 
      8 C3B       -13.5710   50.3830   70.7570 C.3       1 NAD401      0.0000 
      9 O3B       -14.2690   50.0360   71.9570 O.3       1 NAD401      0.0000 
     10 C2B       -13.2540   49.1800   69.8990 C.3       1 NAD401      0.0000 
     11 O2B       -13.2530   47.8870   70.5210 O.3       1 NAD401      0.0000 
     12 C1B       -14.3930   49.1980   68.9070 C.3       1 NAD401      0.0000 
     13 N9A       -13.9560   48.4720   67.6990 N.pl3     1 NAD401      0.0000 
     14 C8A       -12.9200   48.6880   66.8630 C.2       1 NAD401      0.0000 
     15 N7A       -12.8870   47.7280   65.9330 N.2       1 NAD401      0.0000 
     16 C5A       -13.9080   46.8890   66.2060 C.ar      1 NAD401      0.0000 
     17 C6A       -14.5070   45.6580   65.6570 C.ar      1 NAD401      0.0000 
     18 N6A       -13.9900   45.0600   64.5790 N.pl3     1 NAD401      0.0000 
     19 N1A       -15.6030   45.1410   66.2470 N.ar      1 NAD401      0.0000 
     20 C2A       -16.1750   45.6780   67.3450 C.ar      1 NAD401      0.0000 
     21 N3A       -15.6820   46.7870   67.8980 N.ar      1 NAD401      0.0000 
     22 C4A       -14.5950   47.3970   67.3700 C.ar      1 NAD401      0.0000 
     23 O3        -12.3920   55.5480   70.2110 O.3       1 NAD401      0.0000 
     24 PN        -13.4940   56.6960   70.2930 P.3       1 NAD401      0.0000 
     25 O1N       -12.8630   57.9620   70.8150 O.co2     1 NAD401      0.0000 
     26 O2N       -14.7680   56.1010   70.9290 O.co2     1 NAD401      0.0000 
     27 O5D       -13.6720   56.9290   68.7030 O.3       1 NAD401      0.0000 
     28 C5D       -14.9470   56.7000   68.0860 C.3       1 NAD401      0.0000 
     29 C4D       -14.9990   57.3200   66.7020 C.3       1 NAD401      0.0000 
     30 O4D       -14.7650   58.7330   66.7490 O.3       1 NAD401      0.0000 
     31 C3D       -13.9270   56.7390   65.7860 C.3       1 NAD401      0.0000 
     32 O3D       -14.5160   56.3890   64.5160 O.3       1 NAD401      0.0000 
     33 C2D       -12.8980   57.8410   65.6430 C.3       1 NAD401      0.0000 
     34 O2D       -12.3090   57.7440   64.3440 O.3       1 NAD401      0.0000 
     35 C1D       -13.6880   59.1250   65.8830 C.3       1 NAD401      0.0000 
     36 N1N       -12.9300   60.2730   66.4440 N.pl3     1 NAD401      0.0000 
     37 C2N       -12.7600   60.4680   67.7760 C.ar      1 NAD401      0.0000 
     38 C3N       -12.0570   61.5830   68.2960 C.ar      1 NAD401      0.0000 
     39 C7N       -11.8680   61.8200   69.7820 C.2       1 NAD401      0.0000 
     40 O7N       -11.3930   62.8680   70.1550 O.2       1 NAD401      0.0000 
     41 N7N       -12.2080   60.9380   70.7140 N.am      1 NAD401      0.0000 
     42 C4N       -11.5210   62.5090   67.3890 C.ar      1 NAD401      0.0000 
     43 C5N       -11.7100   62.2970   66.0260 C.ar      1 NAD401      0.0000 
     44 C6N       -12.4190   61.1740   65.5900 C.ar      1 NAD401      0.0000 
@<TRIPOS>BOND
     1    1    2 ar   
     2    1    3 ar   
     3    1    4 1    
     4    1   23 1    
     5    4    5 1    
     6    5    6 1    
     7    6    7 1    
     8    6    8 1    
     9    7   12 1    
    10    8    9 1    
    11    8   10 1    
    12   10   11 1    
    13   10   12 1    
    14   12   13 1    
    15   13   14 1    
    16   13   22 1    
    17   14   15 2    
    18   15   16 1    
    19   16   17 ar   
    20   16   22 ar   
    21   17   18 1    
    22   17   19 ar   
    23   19   20 ar   
    24   20   21 ar   
    25   21   22 ar   
    26   23   24 1    
    27   24   25 ar   
    28   24   26 ar   
    29   24   27 1    
    30   27   28 1    
    31   28   29 1    
    32   29   30 1    
    33   29   31 1    
    34   30   35 1    
    35   31   32 1    
    36   31   33 1    
    37   33   34 1    
    38   33   35 1    
    39   35   36 1    
    40   36   37 ar   
    41   36   44 ar   
    42   37   38 ar   
    43   38   39 1    
    44   38   42 ar   
    45   39   40 2    
    46   39   41 am   
    47   42   43 ar   
    48   43   44 ar   
@<TRIPOS>SUBSTRUCTURE
     1 NAD401      1 GROUP   
@<TRIPOS>SET
ATOM$ORANGE STATIC     ATOMS   COLORGROUP SYSTEM 
42 5 5 6 6 8 8 10 10 12 12 14 14 16 16 17 17 20 \
20 22 22 28 28 29 29 31 31 33 33 35 35 37 37 38 38 39 \
39 42 42 43 43 44 44 

