#    Name: 6bsd_1_1N1
#    Modification time : Fri May 22 19:34:52 2020

@<TRIPOS>MOLECULE
6bsd_1_1N1
   33    36     1     0     0
SMALL
NO_CHARGES


@<TRIPOS>ATOM
      1 C1         11.4950   38.5950   77.5070 C.2       1 1N1901      0.0000 
      2 C2         11.4780   37.8780   76.2420 C.2       1 1N1901      0.0000 
      3 C3         10.1430   37.3460   75.7070 C.2       1 1N1901      0.0000 
      4 N6         22.2130   39.8770   74.8500 N.4       1 1N1901      0.0000 
      5 C7          5.3220   36.2340   74.8220 C.ar      1 1N1901      0.0000 
      6 C8          5.6760   37.5680   74.6640 C.ar      1 1N1901      0.0000 
      7 C9          6.8770   38.0640   75.1820 C.ar      1 1N1901      0.0000 
      8 C10         7.2610   39.5610   74.9840 C.3       1 1N1901      0.0000 
      9 C11        16.1390   38.3900   75.7640 C.ar      1 1N1901      0.0000 
     10 C12        17.4610   38.7850   75.8410 C.ar      1 1N1901      0.0000 
     11 C13        18.3480   38.3250   74.9070 C.ar      1 1N1901      0.0000 
     12 C14        16.5970   37.0900   73.8620 C.ar      1 1N1901      0.0000 
     13 C15        16.0850   36.1780   72.8050 C.3       1 1N1901      0.0000 
     14 C16        20.5820   38.3310   73.9460 C.3       1 1N1901      0.0000 
     15 C19        19.9370   39.9980   75.6520 C.3       1 1N1901      0.0000 
     16 C20        23.6090   40.2240   75.0660 C.3       1 1N1901      0.0000 
     17 C21        24.3190   39.1130   75.7630 C.3       1 1N1901      0.0000 
     18 N          15.2060   38.8790   76.7480 N.pl3     1 1N1901      0.0000 
     19 C          13.7840   38.5850   76.7230 C.2       1 1N1901      0.0000 
     20 N1         12.9560   39.0380   77.7970 N.2       1 1N1901      0.0000 
     21 S          12.9110   37.8170   75.6550 S.3       1 1N1901      0.0000 
     22 N2          8.9920   37.6940   76.4040 N.am      1 1N1901      0.0000 
     23 C4          7.7040   37.2000   75.8670 C.ar      1 1N1901      0.0000 
     24 C5          7.3430   35.8720   76.0180 C.ar      1 1N1901      0.0000 
     25 C6          6.1360   35.3730   75.4950 C.ar      1 1N1901      0.0000 
     26 CL          8.4010   34.8050   76.8650 Cl        1 1N1901      0.0000 
     27 O          10.0570   36.6540   74.7010 O.2       1 1N1901      0.0000 
     28 N3         17.9460   37.4780   73.9280 N.ar      1 1N1901      0.0000 
     29 N4         15.7300   37.5520   74.7700 N.ar      1 1N1901      0.0000 
     30 N5         19.7310   38.7240   75.0310 N.3       1 1N1901      0.0000 
     31 C17        22.0300   38.5210   74.3950 C.3       1 1N1901      0.0000 
     32 C18        21.4060   40.1810   76.0030 C.3       1 1N1901      0.0000 
     33 O1         25.1060   38.4080   74.7450 O.3       1 1N1901      0.0000 
@<TRIPOS>BOND
     1    1    2 2    
     2    1   20 1    
     3    2    3 1    
     4    2   21 1    
     5    3   22 am   
     6    3   27 2    
     7    4   16 1    
     8    4   31 1    
     9    4   32 1    
    10    5    6 ar   
    11    5   25 ar   
    12    6    7 ar   
    13    7    8 1    
    14    7   23 ar   
    15    9   10 ar   
    16    9   18 1    
    17    9   29 ar   
    18   10   11 ar   
    19   11   28 ar   
    20   11   30 1    
    21   12   13 1    
    22   12   28 ar   
    23   12   29 ar   
    24   14   30 1    
    25   14   31 1    
    26   15   30 1    
    27   15   32 1    
    28   16   17 1    
    29   17   33 1    
    30   18   19 1    
    31   19   20 2    
    32   19   21 1    
    33   22   23 1    
    34   23   24 ar   
    35   24   25 ar   
    36   24   26 1    
@<TRIPOS>SUBSTRUCTURE
     1 1N1901      1 GROUP   
@<TRIPOS>SET

