#    Name: 6gjg_3_FMN
#    Modification time : Fri May 22 19:32:49 2020

@<TRIPOS>MOLECULE
6gjg_3_FMN
   31    33     1     0     1
SMALL
NO_CHARGES


@<TRIPOS>ATOM
      1 N1         12.1570    1.1200    1.6800 N.2       1 FMN601      0.0000 
      2 C2         11.1850    1.8320    2.3070 C.2       1 FMN601      0.0000 
      3 O2         11.4030    2.3430    3.4060 O.2       1 FMN601      0.0000 
      4 N3          9.9310    1.9650    1.7190 N.am      1 FMN601      0.0000 
      5 C4          9.5360    1.4130    0.5040 C.2       1 FMN601      0.0000 
      6 O4          8.3800    1.5500    0.1150 O.2       1 FMN601      0.0000 
      7 C4A        10.6150    0.6660   -0.1830 C.2       1 FMN601      0.0000 
      8 N5         10.3610    0.1360   -1.3620 N.2       1 FMN601      0.0000 
      9 C5A        11.3880   -0.6130   -1.9700 C.ar      1 FMN601      0.0000 
     10 C6         11.1230   -1.2700   -3.1750 C.ar      1 FMN601      0.0000 
     11 C7         12.0690   -2.0970   -3.7770 C.ar      1 FMN601      0.0000 
     12 C7M        11.7180   -2.8060   -5.0600 C.3       1 FMN601      0.0000 
     13 C8         13.3330   -2.2670   -3.1620 C.ar      1 FMN601      0.0000 
     14 C8M        14.3940   -3.1530   -3.7680 C.3       1 FMN601      0.0000 
     15 C9         13.6060   -1.6040   -1.9680 C.ar      1 FMN601      0.0000 
     16 C9A        12.6510   -0.7870   -1.3620 C.ar      1 FMN601      0.0000 
     17 N10        12.8790   -0.1640   -0.1070 N.pl3     1 FMN601      0.0000 
     18 C10        11.8980    0.5670    0.5010 C.2       1 FMN601      0.0000 
     19 C1'        14.1710   -0.2960    0.5850 C.3       1 FMN601      0.0000 
     20 C2'        14.2400   -1.5630    1.4350 C.3       1 FMN601      0.0000 
     21 O2'        13.3010   -1.5140    2.5150 O.3       1 FMN601      0.0000 
     22 C3'        15.6570   -1.7530    1.9740 C.3       1 FMN601      0.0000 
     23 O3'        15.9090   -0.6570    2.8440 O.3       1 FMN601      0.0000 
     24 C4'        16.7290   -1.8080    0.8820 C.3       1 FMN601      0.0000 
     25 O4'        16.3090   -2.6340   -0.2110 O.3       1 FMN601      0.0000 
     26 C5'        18.1070   -2.1760    1.3950 C.3       1 FMN601      0.0000 
     27 O5'        18.0950   -3.4970    1.9770 O.3       1 FMN601      0.0000 
     28 P          18.4700   -4.8400    1.1250 P.3       1 FMN601      0.0000 
     29 O1P        17.5560   -5.0350   -0.0750 O.co2     1 FMN601      0.0000 
     30 O2P        18.3990   -5.9880    2.1420 O.co2     1 FMN601      0.0000 
     31 O3P        19.9220   -4.6870    0.7060 O.co2     1 FMN601      0.0000 
@<TRIPOS>BOND
     1    1    2 1    
     2    1   18 2    
     3    2    3 2    
     4    2    4 am   
     5    4    5 am   
     6    5    6 2    
     7    5    7 1    
     8    7    8 2    
     9    7   18 1    
    10    8    9 1    
    11    9   10 ar   
    12    9   16 ar   
    13   10   11 ar   
    14   11   12 1    
    15   11   13 ar   
    16   13   14 1    
    17   13   15 ar   
    18   15   16 ar   
    19   16   17 1    
    20   17   18 1    
    21   17   19 1    
    22   19   20 1    
    23   20   21 1    
    24   20   22 1    
    25   22   23 1    
    26   22   24 1    
    27   24   25 1    
    28   24   26 1    
    29   26   27 1    
    30   27   28 1    
    31   28   29 ar   
    32   28   30 ar   
    33   28   31 ar   
@<TRIPOS>SUBSTRUCTURE
     1 FMN601      1 GROUP   
@<TRIPOS>SET
ATOM$ORANGE STATIC     ATOMS   COLORGROUP SYSTEM 
34 2 2 5 5 7 7 9 9 10 10 11 11 12 12 13 13 14 \
14 15 15 16 16 18 18 19 19 20 20 22 22 24 24 26 26 

