#    Name: 6gjg_3_FMN_CAVITY_N1_4
#    Modification time : Fri May 22 19:32:51 2020

@<TRIPOS>MOLECULE
6gjg_3_FMN_CAVITY_N1_4
   68     0     6     0     0
SMALL
NO_CHARGES


@<TRIPOS>ATOM
      1 OG         14.8800   -3.7500   -3.1400 O.3       1 SER1        0.0000 
      2 OG         11.7600   -2.5300   -3.1000 O.3       1 SER1        0.0000 
      3 OG         15.2200   -2.9200   -1.9400 O.3       1 SER1        0.0000 
      4 OG         14.9800   -1.6700   -2.7300 O.3       1 SER1        0.0000 
      5 OG         17.2400   -3.3300   -0.3500 O.3       1 SER1        0.0000 
      6 OG         15.5600   -2.0900   -0.7300 O.3       1 SER1        0.0000 
      7 OG         16.1400   -2.5100    1.2600 O.3       1 SER1        0.0000 
      8 OG         17.5800   -2.5000    0.8500 O.3       1 SER1        0.0000 
      9 OG         17.3400   -1.2500    0.0500 O.3       1 SER1        0.0000 
     10 OG          9.4100    2.4200   -0.2500 O.3       1 SER1        0.0000 
     11 OG         12.0500    3.7000   -1.8700 O.3       1 SER1        0.0000 
     12 OG         15.0300   -1.7000    2.8800 O.3       1 SER1        0.0000 
     13 OG         16.4800   -1.6800    2.4700 O.3       1 SER1        0.0000 
     14 OG         17.9200   -1.6700    2.0500 O.3       1 SER1        0.0000 
     15 O          13.2000   -2.5200   -3.5200 O.2       2 ALA2        0.0000 
     16 N          11.5200   -1.2800   -3.9000 N.am      2 ALA2        0.0000 
     17 O          13.5400   -1.6900   -2.3100 O.2       2 ALA2        0.0000 
     18 N          11.8500   -0.4500   -2.6900 N.am      2 ALA2        0.0000 
     19 N          11.6100    0.8000   -3.4900 N.am      2 ALA2        0.0000 
     20 N          12.6800   -2.1200    0.1000 N.am      2 ALA2        0.0000 
     21 N          10.9900   -0.8900   -0.2800 N.am      2 ALA2        0.0000 
     22 N          12.4300   -0.8700   -0.7000 N.am      2 ALA2        0.0000 
     23 O          13.6300    0.3900   -1.9000 O.2       2 ALA2        0.0000 
     24 N          11.9500    1.6300   -2.2800 N.am      2 ALA2        0.0000 
     25 O          13.3900    1.6400   -2.7000 O.2       2 ALA2        0.0000 
     26 N          11.7100    2.8800   -3.0800 N.am      2 ALA2        0.0000 
     27 N          13.0100   -1.2900    1.3000 N.am      2 ALA2        0.0000 
     28 N          12.7700   -0.0400    0.5100 N.am      2 ALA2        0.0000 
     29 N          14.2100   -0.0300    0.0900 N.am      2 ALA2        0.0000 
     30 N          11.0900    1.1900    0.1300 N.am      2 ALA2        0.0000 
     31 N          12.5300    1.2100   -0.2900 N.am      2 ALA2        0.0000 
     32 N          13.9700    1.2200   -0.7000 N.am      2 ALA2        0.0000 
     33 N          12.2900    2.4500   -1.0800 N.am      2 ALA2        0.0000 
     34 N          13.7300    2.4700   -1.5000 N.am      2 ALA2        0.0000 
     35 O          11.4300    2.0200    1.3300 O.2       2 ALA2        0.0000 
     36 N          12.8700    2.0300    0.9200 N.am      2 ALA2        0.0000 
     37 O          11.1800    3.2700    0.5400 O.2       2 ALA2        0.0000 
     38 N          12.6300    3.2800    0.1200 N.am      2 ALA2        0.0000 
     39 OD1        10.4100   -0.4700   -2.2800 O.co2     3 ASP3        0.0000 
     40 OD1        10.1700    0.7800   -3.0700 O.co2     3 ASP3        0.0000 
     41 OD1         9.9300    2.0300   -3.8600 O.co2     3 ASP3        0.0000 
     42 OD1        10.5100    1.6100   -1.8700 O.co2     3 ASP3        0.0000 
     43 OD1         8.8300    2.8400   -2.2500 O.co2     3 ASP3        0.0000 
     44 OD1        10.2700    2.8600   -2.6600 O.co2     3 ASP3        0.0000 
     45 OD1        14.4500   -1.2800    0.8900 O.co2     3 ASP3        0.0000 
     46 OD1        14.7900   -0.4500    2.0900 O.co2     3 ASP3        0.0000 
     47 OD1        16.2300   -0.4300    1.6700 O.co2     3 ASP3        0.0000 
     48 OD1        11.6700    0.7700    2.1300 O.co2     3 ASP3        0.0000 
     49 CZ         13.4400   -3.7700   -2.7200 C.ar      4 PHE5        0.0000 
     50 CZ         15.4600   -4.1700   -1.1400 C.ar      4 PHE5        0.0000 
     51 CZ         13.7800   -2.9400   -1.5200 C.ar      4 PHE5        0.0000 
     52 CZ         12.1000   -1.7000   -1.9000 C.ar      4 PHE5        0.0000 
     53 CZ         14.1200   -2.1100   -0.3200 C.ar      4 PHE5        0.0000 
     54 CZ         14.7000   -2.5300    1.6800 C.ar      4 PHE5        0.0000 
     55 CZ         10.6000    3.6900   -1.4600 C.ar      4 PHE5        0.0000 
     56 CA         10.0700   -1.3000   -3.4800 C.3       5 GLY6        0.0000 
     57 CA         10.6500   -1.7200   -1.4800 C.3       5 GLY6        0.0000 
     58 CA         17.4800   -4.5800    0.4400 C.3       5 GLY6        0.0000 
     59 CA         15.8000   -3.3400    0.0600 C.3       5 GLY6        0.0000 
     60 CA         15.3200   -0.8400   -1.5300 C.3       5 GLY6        0.0000 
     61 CA          9.3100    0.3500   -0.6600 C.3       5 GLY6        0.0000 
     62 CA         10.7500    0.3600   -1.0700 C.3       5 GLY6        0.0000 
     63 CA         16.3800   -3.7600    2.0600 C.3       5 GLY6        0.0000 
     64 CA         17.8200   -3.7500    1.6400 C.3       5 GLY6        0.0000 
     65 CA         15.9000   -1.2600    0.4700 C.3       5 GLY6        0.0000 
     66 CA          9.6500    1.1700    0.5400 C.3       5 GLY6        0.0000 
     67 DU         12.1900    0.3800   -1.4900 H         6 CUB7        0.0000 
     68 DU         10.8500    2.4400   -0.6600 H         6 CUB7        0.0000 
@<TRIPOS>BOND
@<TRIPOS>SUBSTRUCTURE
     1 SER1        1 GROUP   
     2 ALA2       15 GROUP   
     3 ASP3       39 GROUP   
     4 PHE5       49 GROUP   
     5 GLY6       56 GROUP   
     6 CUB7       67 GROUP   
@<TRIPOS>SET

