#    Name: 6rhz_3_LUT_CAVITY_N1_12
#    Modification time : Fri May 22 19:25:02 2020

@<TRIPOS>MOLECULE
6rhz_3_LUT_CAVITY_N1_12
   71     0     6     0     0
SMALL
NO_CHARGES


@<TRIPOS>ATOM
      1 N         225.5000  165.0400  178.5500 N.am      1 ALA2        0.0000 
      2 N         225.9600  165.7900  179.7700 N.am      1 ALA2        0.0000 
      3 N         223.5800  169.6300  178.3200 N.am      1 ALA2        0.0000 
      4 N         222.5700  165.0400  183.3400 N.am      1 ALA2        0.0000 
      5 N         223.0200  165.7800  184.5600 N.am      1 ALA2        0.0000 
      6 N         224.4200  165.8500  184.0000 N.am      1 ALA2        0.0000 
      7 N         221.3100  167.0200  184.4500 N.am      1 ALA2        0.0000 
      8 N         222.0900  166.4600  186.3400 N.am      1 ALA2        0.0000 
      9 N         223.4800  166.5300  185.7800 N.am      1 ALA2        0.0000 
     10 N         224.8700  166.5900  185.2200 N.am      1 ALA2        0.0000 
     11 N         226.2600  166.6500  184.6600 N.am      1 ALA2        0.0000 
     12 N         221.7600  167.7600  185.6700 N.am      1 ALA2        0.0000 
     13 N         224.5400  167.8900  184.5500 N.am      1 ALA2        0.0000 
     14 N         225.9300  167.9500  183.9900 N.am      1 ALA2        0.0000 
     15 N         223.9400  167.2700  187.0000 N.am      1 ALA2        0.0000 
     16 N         225.0000  168.6300  185.7700 N.am      1 ALA2        0.0000 
     17 N         226.3900  168.7000  185.2100 N.am      1 ALA2        0.0000 
     18 OD1       221.4300  169.0700  185.0000 O.co2     2 ASP3        0.0000 
     19 OD1       222.8200  169.1300  184.4400 O.co2     2 ASP3        0.0000 
     20 OD1       224.2200  169.1900  183.8800 O.co2     2 ASP3        0.0000 
     21 OD1       220.5000  169.7500  186.7800 O.co2     2 ASP3        0.0000 
     22 OD1       221.8900  169.8100  186.2200 O.co2     2 ASP3        0.0000 
     23 OD1       223.2800  169.8700  185.6600 O.co2     2 ASP3        0.0000 
     24 NZ        223.5000  164.3600  181.5600 N.4       3 LYS4        0.0000 
     25 NZ        224.8900  164.4200  181.0000 N.4       3 LYS4        0.0000 
     26 NZ        222.5200  168.2600  179.5500 N.4       3 LYS4        0.0000 
     27 NZ        223.9100  168.3300  178.9900 N.4       3 LYS4        0.0000 
     28 NZ        223.9600  165.1000  182.7800 N.4       3 LYS4        0.0000 
     29 NZ        225.3500  165.1700  182.2200 N.4       3 LYS4        0.0000 
     30 NZ        223.3000  167.7100  181.4400 N.4       3 LYS4        0.0000 
     31 NZ        224.6900  167.7700  180.8800 N.4       3 LYS4        0.0000 
     32 NZ        221.5800  168.9400  181.3300 N.4       3 LYS4        0.0000 
     33 NZ        225.7600  169.1300  179.6500 N.4       3 LYS4        0.0000 
     34 NZ        225.8100  165.9100  183.4400 N.4       3 LYS4        0.0000 
     35 NZ        222.3700  168.3900  183.2200 N.4       3 LYS4        0.0000 
     36 NZ        223.7600  168.4500  182.6600 N.4       3 LYS4        0.0000 
     37 NZ        225.1500  168.5100  182.1000 N.4       3 LYS4        0.0000 
     38 NZ        220.6500  169.6200  183.1100 N.4       3 LYS4        0.0000 
     39 CZ        226.4100  166.5300  180.9900 C.ar      4 PHE5        0.0000 
     40 CZ        226.0800  167.8300  180.3200 C.ar      4 PHE5        0.0000 
     41 CZ        226.8700  167.2700  182.2100 C.ar      4 PHE5        0.0000 
     42 CZ        226.5400  168.5800  181.5400 C.ar      4 PHE5        0.0000 
     43 CZ        227.3200  168.0200  183.4300 C.ar      4 PHE5        0.0000 
     44 CZ        225.6100  169.2600  183.3200 C.ar      4 PHE5        0.0000 
     45 CA        223.6500  164.2400  177.8900 C.3       5 GLY6        0.0000 
     46 CA        225.0400  164.3000  177.3300 C.3       5 GLY6        0.0000 
     47 CA        224.7200  165.6000  176.6600 C.3       5 GLY6        0.0000 
     48 CA        223.0500  163.6200  180.3400 C.3       5 GLY6        0.0000 
     49 CA        224.4400  163.6800  179.7800 C.3       5 GLY6        0.0000 
     50 CA        224.1100  164.9800  179.1100 C.3       5 GLY6        0.0000 
     51 CA        223.7800  166.2800  178.4400 C.3       5 GLY6        0.0000 
     52 CA        225.1700  166.3500  177.8800 C.3       5 GLY6        0.0000 
     53 CA        225.6300  167.0900  179.1000 C.3       5 GLY6        0.0000 
     54 CA        225.3000  168.3900  178.4300 C.3       5 GLY6        0.0000 
     55 CA        227.2000  165.9700  182.8800 C.3       5 GLY6        0.0000 
     56 CA        222.2200  168.5100  186.8900 C.3       5 GLY6        0.0000 
     57 CA        223.6100  168.5700  186.3300 C.3       5 GLY6        0.0000 
     58 CA        224.6700  169.9400  185.1000 C.3       5 GLY6        0.0000 
     59 DU        223.1700  165.6600  180.8900 H         6 CUB7        0.0000 
     60 DU        224.5700  165.7200  180.3300 H         6 CUB7        0.0000 
     61 DU        222.8500  166.9600  180.2200 H         6 CUB7        0.0000 
     62 DU        224.2400  167.0300  179.6600 H         6 CUB7        0.0000 
     63 DU        222.2400  166.3400  182.6700 H         6 CUB7        0.0000 
     64 DU        223.6300  166.4000  182.1100 H         6 CUB7        0.0000 
     65 DU        225.0200  166.4700  181.5500 H         6 CUB7        0.0000 
     66 DU        221.9100  167.6400  182.0000 H         6 CUB7        0.0000 
     67 DU        222.7000  167.0800  183.8900 H         6 CUB7        0.0000 
     68 DU        224.0900  167.1500  183.3300 H         6 CUB7        0.0000 
     69 DU        225.4800  167.2100  182.7700 H         6 CUB7        0.0000 
     70 DU        220.9800  168.3200  183.7800 H         6 CUB7        0.0000 
     71 DU        223.1500  167.8300  185.1100 H         6 CUB7        0.0000 
@<TRIPOS>BOND
@<TRIPOS>SUBSTRUCTURE
     1 ALA2        1 GROUP   
     2 ASP3       18 GROUP   
     3 LYS4       24 GROUP   
     4 PHE5       39 GROUP   
     5 GLY6       45 GROUP   
     6 CUB7       59 GROUP   
@<TRIPOS>SET

