#    Name: 6rhz_3_LUT_CAVITY_N1_4
#    Modification time : Fri May 22 19:25:02 2020

@<TRIPOS>MOLECULE
6rhz_3_LUT_CAVITY_N1_4
   10     0     4     0     0
SMALL
NO_CHARGES


@<TRIPOS>ATOM
      1 N         222.5700  165.0400  183.3400 N.am      1 ALA2        0.0000 
      2 N         221.3100  167.0200  184.4500 N.am      1 ALA2        0.0000 
      3 NZ        223.5000  164.3600  181.5600 N.4       2 LYS4        0.0000 
      4 NZ        223.9600  165.1000  182.7800 N.4       2 LYS4        0.0000 
      5 CA        223.0500  163.6200  180.3400 C.3       3 GLY6        0.0000 
      6 CA        224.4400  163.6800  179.7800 C.3       3 GLY6        0.0000 
      7 DU        223.1700  165.6600  180.8900 H         4 CUB7        0.0000 
      8 DU        222.2400  166.3400  182.6700 H         4 CUB7        0.0000 
      9 DU        221.9100  167.6400  182.0000 H         4 CUB7        0.0000 
     10 DU        220.9800  168.3200  183.7800 H         4 CUB7        0.0000 
@<TRIPOS>BOND
@<TRIPOS>SUBSTRUCTURE
     1 ALA2        1 GROUP   
     2 LYS4        3 GROUP   
     3 GLY6        5 GROUP   
     4 CUB7        7 GROUP   
@<TRIPOS>SET

