#    Name: 6rhz_3_LUT
#    Modification time : Fri May 22 19:25:01 2020

@<TRIPOS>MOLECULE
6rhz_3_LUT
   98    99     1     0     0
SMALL
NO_CHARGES


@<TRIPOS>ATOM
      1 C1        217.9030  162.3550  181.3290 C.3       1 LUT501      0.0000 
      2 C2        219.4840  161.8820  181.1180 C.3       1 LUT501      0.0000 
      3 C3        220.3290  162.4230  182.0220 C.3       1 LUT501      0.0000 
      4 C4        220.2400  164.0660  181.9560 C.3       1 LUT501      0.0000 
      5 C5        218.9280  164.5360  182.2690 C.2       1 LUT501      0.0000 
      6 C6        217.7090  163.7850  181.5560 C.2       1 LUT501      0.0000 
      7 C7        216.2760  164.3600  181.7040 C.2       1 LUT501      0.0000 
      8 C8        215.7190  165.4940  181.0590 C.2       1 LUT501      0.0000 
      9 C9        216.4230  166.4600  180.0290 C.2       1 LUT501      0.0000 
     10 C10       215.7320  167.4980  179.3870 C.2       1 LUT501      0.0000 
     11 C11       214.2150  167.8410  179.5850 C.2       1 LUT501      0.0000 
     12 C12       213.3780  168.4430  178.6420 C.2       1 LUT501      0.0000 
     13 C13       213.7370  168.8710  177.2120 C.2       1 LUT501      0.0000 
     14 C14       213.0680  169.8030  176.5410 C.2       1 LUT501      0.0000 
     15 C15       211.8170  170.6110  177.0890 C.2       1 LUT501      0.0000 
     16 C16       217.3410  161.5970  182.5130 C.3       1 LUT501      0.0000 
     17 C17       217.1440  161.9040  180.0170 C.3       1 LUT501      0.0000 
     18 C18       218.7580  165.2610  183.5780 C.3       1 LUT501      0.0000 
     19 C19       217.9590  166.3140  179.6660 C.3       1 LUT501      0.0000 
     20 C20       214.9040  168.2100  176.4320 C.3       1 LUT501      0.0000 
     21 O3        221.6820  162.0120  181.7390 O.3       1 LUT501      0.0000 
     22 C21       205.2670  176.7260  169.6410 C.3       1 LUT501      0.0000 
     23 C22       203.9550  176.9730  169.8080 C.3       1 LUT501      0.0000 
     24 C23       203.6150  178.5850  169.7310 C.3       1 LUT501      0.0000 
     25 C24       204.2050  179.2440  170.8620 C.2       1 LUT501      0.0000 
     26 C25       205.6670  178.7510  171.2510 C.2       1 LUT501      0.0000 
     27 C26       206.2580  177.9540  170.1970 C.3       1 LUT501      0.0000 
     28 C27       207.6540  177.3840  170.4550 C.2       1 LUT501      0.0000 
     29 C28       208.2250  176.9460  171.6620 C.2       1 LUT501      0.0000 
     30 C29       209.7110  176.4130  171.6470 C.2       1 LUT501      0.0000 
     31 C30       210.3200  175.5400  172.5100 C.2       1 LUT501      0.0000 
     32 C31       209.7170  174.8230  173.7310 C.2       1 LUT501      0.0000 
     33 C32       210.3720  173.9750  174.6380 C.2       1 LUT501      0.0000 
     34 C33       211.8670  173.4950  174.6950 C.2       1 LUT501      0.0000 
     35 C34       212.3120  172.5690  175.5510 C.2       1 LUT501      0.0000 
     36 C35       211.4780  171.8250  176.6230 C.2       1 LUT501      0.0000 
     37 C36       205.6070  175.3690  170.2830 C.3       1 LUT501      0.0000 
     38 C37       205.5490  176.6130  168.1500 C.3       1 LUT501      0.0000 
     39 C38       206.4710  179.8430  171.9220 C.3       1 LUT501      0.0000 
     40 C39       210.6060  176.9690  170.5220 C.3       1 LUT501      0.0000 
     41 C40       212.9930  174.0790  173.7270 C.3       1 LUT501      0.0000 
     42 O23       202.2500  178.7870  169.7430 O.3       1 LUT501      0.0000 
     43 H21       219.5370  160.9490  181.1850 H         1 LUT501      0.0000 
     44 H22       219.7620  162.1420  180.2630 H         1 LUT501      0.0000 
     45 H3        220.0930  162.1340  182.8800 H         1 LUT501      0.0000 
     46 H41       220.8560  164.4300  182.5630 H         1 LUT501      0.0000 
     47 H42       220.4470  164.3380  181.0860 H         1 LUT501      0.0000 
     48 H7        215.7120  163.9060  182.2850 H         1 LUT501      0.0000 
     49 H8        214.8380  165.6910  181.2720 H         1 LUT501      0.0000 
     50 H10       216.2140  168.0290  178.8040 H         1 LUT501      0.0000 
     51 H11       213.8430  167.6420  180.4120 H         1 LUT501      0.0000 
     52 H12       212.5010  168.5860  178.9070 H         1 LUT501      0.0000 
     53 H14       213.3430  169.9920  175.6750 H         1 LUT501      0.0000 
     54 H15       211.2840  170.2150  177.7370 H         1 LUT501      0.0000 
     55 H161      216.4030  161.6320  182.4930 H         1 LUT501      0.0000 
     56 H162      217.6200  160.7010  182.4750 H         1 LUT501      0.0000 
     57 H163      217.6520  161.9860  183.3090 H         1 LUT501      0.0000 
     58 H171      217.5230  162.3380  179.2790 H         1 LUT501      0.0000 
     59 H172      217.2410  160.9770  179.9080 H         1 LUT501      0.0000 
     60 H173      216.2310  162.1140  180.0760 H         1 LUT501      0.0000 
     61 H181      217.8470  165.3860  183.7640 H         1 LUT501      0.0000 
     62 H182      219.1530  164.7500  184.2580 H         1 LUT501      0.0000 
     63 H183      219.1900  166.0920  183.5260 H         1 LUT501      0.0000 
     64 H191      218.1400  165.4290  179.4170 H         1 LUT501      0.0000 
     65 H192      218.1710  166.8750  178.9460 H         1 LUT501      0.0000 
     66 H193      218.4780  166.5480  180.4100 H         1 LUT501      0.0000 
     67 H201      214.7400  168.2260  175.5110 H         1 LUT501      0.0000 
     68 H202      215.0010  167.3220  176.7150 H         1 LUT501      0.0000 
     69 H203      215.6920  168.6730  176.6150 H         1 LUT501      0.0000 
     70 HO3       222.1220  162.0340  182.4430 H         1 LUT501      0.0000 
     71 H221      203.4690  176.5280  169.1450 H         1 LUT501      0.0000 
     72 H222      203.6930  176.6600  170.6500 H         1 LUT501      0.0000 
     73 H23       203.9740  178.9400  168.9440 H         1 LUT501      0.0000 
     74 H24       203.9530  180.1150  171.0580 H         1 LUT501      0.0000 
     75 H26       206.3610  178.5380  169.4730 H         1 LUT501      0.0000 
     76 H27       208.1470  177.3290  169.6780 H         1 LUT501      0.0000 
     77 H28       207.7490  176.9940  172.4560 H         1 LUT501      0.0000 
     78 H30       211.1920  175.3630  172.3190 H         1 LUT501      0.0000 
     79 H31       208.8150  174.9760  173.8800 H         1 LUT501      0.0000 
     80 H32       209.8350  173.6360  175.3110 H         1 LUT501      0.0000 
     81 H34       213.2120  172.3520  175.5210 H         1 LUT501      0.0000 
     82 H35       210.7370  172.2490  176.9870 H         1 LUT501      0.0000 
     83 H361      204.8980  174.7710  170.1360 H         1 LUT501      0.0000 
     84 H362      206.3800  175.0180  169.8840 H         1 LUT501      0.0000 
     85 H363      205.7420  175.4800  171.2040 H         1 LUT501      0.0000 
     86 H371      205.1310  177.3220  167.7040 H         1 LUT501      0.0000 
     87 H372      205.2240  175.7930  167.8310 H         1 LUT501      0.0000 
     88 H373      206.4740  176.6590  168.0070 H         1 LUT501      0.0000 
     89 H381      206.2780  179.8480  172.8390 H         1 LUT501      0.0000 
     90 H382      207.3880  179.7200  171.7920 H         1 LUT501      0.0000 
     91 H383      206.2160  180.6680  171.5560 H         1 LUT501      0.0000 
     92 H391      210.5110  177.9010  170.4910 H         1 LUT501      0.0000 
     93 H392      210.3180  176.6060  169.7070 H         1 LUT501      0.0000 
     94 H393      211.5060  176.7540  170.6410 H         1 LUT501      0.0000 
     95 H401      213.8500  173.8020  173.9780 H         1 LUT501      0.0000 
     96 H402      212.9540  175.0140  173.7560 H         1 LUT501      0.0000 
     97 H403      212.8180  173.7890  172.8530 H         1 LUT501      0.0000 
     98 H1        202.1000  179.6050  169.7670 H         1 LUT501      0.0000 
@<TRIPOS>BOND
     1    1    2 1    
     2    1    6 1    
     3    1   16 1    
     4    1   17 1    
     5    2    3 1    
     6    3    4 1    
     7    2   43 1    
     8    2   44 1    
     9    3   45 1    
    10    3   21 1    
    11    4    5 1    
    12   21   70 1    
    13    5    6 2    
    14    4   46 1    
    15    4   47 1    
    16    5   18 1    
    17    6    7 1    
    18    7    8 2    
    19    8    9 1    
    20    7   48 1    
    21    9   10 2    
    22    8   49 1    
    23    9   19 1    
    24   10   11 1    
    25   11   12 2    
    26   10   50 1    
    27   12   13 1    
    28   11   51 1    
    29   13   14 2    
    30   12   52 1    
    31   13   20 1    
    32   14   15 1    
    33   15   36 2    
    34   14   53 1    
    35   22   23 1    
    36   15   54 1    
    37   16   55 1    
    38   16   56 1    
    39   16   57 1    
    40   17   58 1    
    41   17   59 1    
    42   17   60 1    
    43   18   61 1    
    44   18   62 1    
    45   18   63 1    
    46   19   66 1    
    47   19   64 1    
    48   19   65 1    
    49   20   67 1    
    50   20   68 1    
    51   20   69 1    
    52   22   27 1    
    53   22   37 1    
    54   22   38 1    
    55   23   71 1    
    56   23   72 1    
    57   23   24 1    
    58   24   25 1    
    59   24   42 1    
    60   25   26 2    
    61   24   73 1    
    62   42   98 1    
    63   26   27 1    
    64   25   74 1    
    65   26   39 1    
    66   27   28 1    
    67   28   29 2    
    68   27   75 1    
    69   29   30 1    
    70   28   76 1    
    71   30   31 2    
    72   29   77 1    
    73   30   40 1    
    74   31   32 1    
    75   32   33 2    
    76   31   78 1    
    77   33   34 1    
    78   32   79 1    
    79   34   35 2    
    80   33   80 1    
    81   34   41 1    
    82   35   36 1    
    83   35   81 1    
    84   36   82 1    
    85   37   83 1    
    86   37   84 1    
    87   37   85 1    
    88   38   86 1    
    89   38   87 1    
    90   38   88 1    
    91   39   89 1    
    92   39   90 1    
    93   39   91 1    
    94   40   92 1    
    95   40   93 1    
    96   40   94 1    
    97   41   95 1    
    98   41   96 1    
    99   41   97 1    
@<TRIPOS>SUBSTRUCTURE
     1 LUT501      1 GROUP   
@<TRIPOS>SET

