#    Name: 6rhz_3_LUT_CAVITY_N1_6
#    Modification time : Fri May 22 19:25:02 2020

@<TRIPOS>MOLECULE
6rhz_3_LUT_CAVITY_N1_6
   42     0     5     0     0
SMALL
NO_CHARGES


@<TRIPOS>ATOM
      1 N         225.5000  165.0400  178.5500 N.am      1 ALA2        0.0000 
      2 N         222.5700  165.0400  183.3400 N.am      1 ALA2        0.0000 
      3 N         223.0200  165.7800  184.5600 N.am      1 ALA2        0.0000 
      4 N         224.4200  165.8500  184.0000 N.am      1 ALA2        0.0000 
      5 N         221.3100  167.0200  184.4500 N.am      1 ALA2        0.0000 
      6 N         222.0900  166.4600  186.3400 N.am      1 ALA2        0.0000 
      7 N         223.4800  166.5300  185.7800 N.am      1 ALA2        0.0000 
      8 N         221.7600  167.7600  185.6700 N.am      1 ALA2        0.0000 
      9 OD1       221.4300  169.0700  185.0000 O.co2     2 ASP3        0.0000 
     10 OD1       222.8200  169.1300  184.4400 O.co2     2 ASP3        0.0000 
     11 OD1       220.5000  169.7500  186.7800 O.co2     2 ASP3        0.0000 
     12 NZ        223.5000  164.3600  181.5600 N.4       3 LYS4        0.0000 
     13 NZ        224.8900  164.4200  181.0000 N.4       3 LYS4        0.0000 
     14 NZ        222.5200  168.2600  179.5500 N.4       3 LYS4        0.0000 
     15 NZ        223.9600  165.1000  182.7800 N.4       3 LYS4        0.0000 
     16 NZ        225.3500  165.1700  182.2200 N.4       3 LYS4        0.0000 
     17 NZ        223.3000  167.7100  181.4400 N.4       3 LYS4        0.0000 
     18 NZ        224.6900  167.7700  180.8800 N.4       3 LYS4        0.0000 
     19 NZ        221.5800  168.9400  181.3300 N.4       3 LYS4        0.0000 
     20 NZ        225.8100  165.9100  183.4400 N.4       3 LYS4        0.0000 
     21 NZ        222.3700  168.3900  183.2200 N.4       3 LYS4        0.0000 
     22 NZ        223.7600  168.4500  182.6600 N.4       3 LYS4        0.0000 
     23 NZ        220.6500  169.6200  183.1100 N.4       3 LYS4        0.0000 
     24 CA        223.6500  164.2400  177.8900 C.3       4 GLY6        0.0000 
     25 CA        225.0400  164.3000  177.3300 C.3       4 GLY6        0.0000 
     26 CA        223.0500  163.6200  180.3400 C.3       4 GLY6        0.0000 
     27 CA        224.4400  163.6800  179.7800 C.3       4 GLY6        0.0000 
     28 CA        224.1100  164.9800  179.1100 C.3       4 GLY6        0.0000 
     29 CA        223.7800  166.2800  178.4400 C.3       4 GLY6        0.0000 
     30 CA        222.2200  168.5100  186.8900 C.3       4 GLY6        0.0000 
     31 DU        223.1700  165.6600  180.8900 H         5 CUB7        0.0000 
     32 DU        224.5700  165.7200  180.3300 H         5 CUB7        0.0000 
     33 DU        222.8500  166.9600  180.2200 H         5 CUB7        0.0000 
     34 DU        224.2400  167.0300  179.6600 H         5 CUB7        0.0000 
     35 DU        222.2400  166.3400  182.6700 H         5 CUB7        0.0000 
     36 DU        223.6300  166.4000  182.1100 H         5 CUB7        0.0000 
     37 DU        225.0200  166.4700  181.5500 H         5 CUB7        0.0000 
     38 DU        221.9100  167.6400  182.0000 H         5 CUB7        0.0000 
     39 DU        222.7000  167.0800  183.8900 H         5 CUB7        0.0000 
     40 DU        224.0900  167.1500  183.3300 H         5 CUB7        0.0000 
     41 DU        220.9800  168.3200  183.7800 H         5 CUB7        0.0000 
     42 DU        223.1500  167.8300  185.1100 H         5 CUB7        0.0000 
@<TRIPOS>BOND
@<TRIPOS>SUBSTRUCTURE
     1 ALA2        1 GROUP   
     2 ASP3        9 GROUP   
     3 LYS4       12 GROUP   
     4 GLY6       24 GROUP   
     5 CUB7       31 GROUP   
@<TRIPOS>SET

