#    Name: 6bu3_2_3GK_CAVITY_N1_ALL
#    Modification time : Fri May 22 19:25:56 2020

@<TRIPOS>MOLECULE
6bu3_2_3GK_CAVITY_N1_ALL
   81     0     6     0     0
SMALL
NO_CHARGES


@<TRIPOS>ATOM
      1 OG         -1.6100   -0.7500  -16.1300 O.3       1 SER1        0.0000 
      2 OG         -3.0000   -0.3500  -15.7400 O.3       1 SER1        0.0000 
      3 OG         -2.8700   -1.1500  -14.4700 O.3       1 SER1        0.0000 
      4 OG         -2.8300    3.2600  -18.8100 O.3       1 SER1        0.0000 
      5 OG         -4.2200    3.6600  -18.4100 O.3       1 SER1        0.0000 
      6 OG         -4.0900    2.8600  -17.1500 O.3       1 SER1        0.0000 
      7 OG         -2.5700    1.6600  -16.2900 O.3       1 SER1        0.0000 
      8 OG         -3.9600    2.0600  -15.8900 O.3       1 SER1        0.0000 
      9 OG         -5.3500    2.4600  -15.4900 O.3       1 SER1        0.0000 
     10 OG          0.3300    0.0500  -15.8300 O.3       1 SER1        0.0000 
     11 OG         -1.0500    0.4500  -15.4300 O.3       1 SER1        0.0000 
     12 OG         -2.4400    0.8600  -15.0300 O.3       1 SER1        0.0000 
     13 OG         -3.8300    1.2600  -14.6300 O.3       1 SER1        0.0000 
     14 OG         -5.2200    1.6600  -14.2300 O.3       1 SER1        0.0000 
     15 OG         -0.9200   -0.3500  -14.1700 O.3       1 SER1        0.0000 
     16 OG         -2.3100    0.0500  -13.7700 O.3       1 SER1        0.0000 
     17 OG         -2.4100    5.2600  -19.3700 O.3       1 SER1        0.0000 
     18 OG         -2.1500    3.6600  -16.8400 O.3       1 SER1        0.0000 
     19 OG         -0.6300    2.4600  -15.9800 O.3       1 SER1        0.0000 
     20 OG         -2.0200    2.8600  -15.5800 O.3       1 SER1        0.0000 
     21 OG          2.7000    2.8500  -16.0700 O.3       1 SER1        0.0000 
     22 OG          1.3100    3.2600  -15.6700 O.3       1 SER1        0.0000 
     23 OG         -2.7300    3.6600  -13.2200 O.3       1 SER1        0.0000 
     24 N           1.0400   -0.7500  -18.1900 N.am      2 ALA2        0.0000 
     25 O           3.9500   -2.3600  -17.7300 O.2       2 ALA2        0.0000 
     26 N           1.1700   -1.5600  -16.9300 N.am      2 ALA2        0.0000 
     27 N          -0.2200   -1.1500  -16.5300 N.am      2 ALA2        0.0000 
     28 O           2.6900   -2.7600  -16.0700 O.2       2 ALA2        0.0000 
     29 O           1.3000   -2.3600  -15.6700 O.2       2 ALA2        0.0000 
     30 N          -0.0900   -1.9500  -15.2700 N.am      2 ALA2        0.0000 
     31 O           4.5000   -1.1600  -17.0300 O.2       2 ALA2        0.0000 
     32 O           3.1100   -0.7600  -16.6300 O.2       2 ALA2        0.0000 
     33 O           1.8500   -1.1500  -14.9700 O.2       2 ALA2        0.0000 
     34 O           0.4600   -0.7500  -14.5700 O.2       2 ALA2        0.0000 
     35 O           0.5900   -1.5500  -13.3000 O.2       2 ALA2        0.0000 
     36 N          -0.7900   -1.1500  -12.9100 N.am      2 ALA2        0.0000 
     37 O           3.6600    0.4500  -15.9200 O.2       2 ALA2        0.0000 
     38 O           2.2700    0.8500  -15.5200 O.2       2 ALA2        0.0000 
     39 O           2.4000    0.0500  -14.2600 O.2       2 ALA2        0.0000 
     40 O           4.2200    1.6500  -15.2100 O.2       2 ALA2        0.0000 
     41 OD1        -4.2500    4.8700  -14.0800 O.co2     3 ASP3        0.0000 
     42 OD1        -4.1200    4.0700  -12.8200 O.co2     3 ASP3        0.0000 
     43 CZ         -0.3700    0.8500  -13.4600 C.ar      4 PHE5        0.0000 
     44 CZ         -1.7600    1.2600  -13.0600 C.ar      4 PHE5        0.0000 
     45 CZ         -0.2400    0.0500  -12.2000 C.ar      4 PHE5        0.0000 
     46 CZ          1.4400    2.4500  -14.4100 C.ar      4 PHE5        0.0000 
     47 CZ          0.0500    2.8600  -14.0100 C.ar      4 PHE5        0.0000 
     48 CZ         -1.3400    3.2600  -13.6100 C.ar      4 PHE5        0.0000 
     49 CZ         -2.6000    2.8600  -11.9500 C.ar      4 PHE5        0.0000 
     50 CZ          3.3800    3.2500  -14.1100 C.ar      4 PHE5        0.0000 
     51 CA          2.4300   -1.1600  -18.5900 C.3       5 GLY6        0.0000 
     52 CA          2.5600   -1.9600  -17.3300 C.3       5 GLY6        0.0000 
     53 CA         -4.3800    0.0600  -15.3400 C.3       5 GLY6        0.0000 
     54 CA         -2.9600    4.0600  -20.0700 C.3       5 GLY6        0.0000 
     55 CA         -2.2800    4.4600  -18.1100 C.3       5 GLY6        0.0000 
     56 CA         -4.6700    2.8600  -13.5200 C.3       5 GLY6        0.0000 
     57 CA          1.0200    0.4500  -13.8600 C.3       5 GLY6        0.0000 
     58 CA         -3.1500    1.6600  -12.6600 C.3       5 GLY6        0.0000 
     59 CA         -4.5400    2.0600  -12.2600 C.3       5 GLY6        0.0000 
     60 CA          1.1500   -0.3500  -12.6000 C.3       5 GLY6        0.0000 
     61 CA         -0.2100    4.4600  -16.5400 C.3       5 GLY6        0.0000 
     62 CA         -1.6000    4.8600  -16.1400 C.3       5 GLY6        0.0000 
     63 CA         -2.9900    5.2700  -15.7400 C.3       5 GLY6        0.0000 
     64 CA         -0.0800    3.6600  -15.2800 C.3       5 GLY6        0.0000 
     65 CA         -1.4700    4.0600  -14.8800 C.3       5 GLY6        0.0000 
     66 CA          2.8300    2.0500  -14.8100 C.3       5 GLY6        0.0000 
     67 CA         -0.9200    5.2600  -14.1700 C.3       5 GLY6        0.0000 
     68 DU          2.9800    0.0400  -17.8900 H         6 CUB7        0.0000 
     69 DU          1.5900    0.4500  -17.4900 H         6 CUB7        0.0000 
     70 DU          1.7200   -0.3500  -16.2300 H         6 CUB7        0.0000 
     71 DU         -3.6700    4.8700  -17.7100 H         6 CUB7        0.0000 
     72 DU         -3.5400    4.0600  -16.4500 H         6 CUB7        0.0000 
     73 DU          2.1400    1.6500  -16.7800 H         6 CUB7        0.0000 
     74 DU          0.7600    2.0500  -16.3800 H         6 CUB7        0.0000 
     75 DU         -3.4100    3.2600  -15.1800 H         6 CUB7        0.0000 
     76 DU         -4.8000    3.6700  -14.7800 H         6 CUB7        0.0000 
     77 DU          0.8900    1.2500  -15.1200 H         6 CUB7        0.0000 
     78 DU         -0.5000    1.6600  -14.7200 H         6 CUB7        0.0000 
     79 DU         -1.8900    2.0600  -14.3200 H         6 CUB7        0.0000 
     80 DU         -3.2800    2.4600  -13.9200 H         6 CUB7        0.0000 
     81 DU         -2.8600    4.4600  -14.4800 H         6 CUB7        0.0000 
@<TRIPOS>BOND
@<TRIPOS>SUBSTRUCTURE
     1 SER1        1 GROUP   
     2 ALA2       24 GROUP   
     3 ASP3       41 GROUP   
     4 PHE5       43 GROUP   
     5 GLY6       51 GROUP   
     6 CUB7       68 GROUP   
@<TRIPOS>SET

