#    Name: 6bu3_2_3GK
#    Modification time : Fri May 22 19:25:55 2020

@<TRIPOS>MOLECULE
6bu3_2_3GK
   27    30     1     0     0
SMALL
NO_CHARGES


@<TRIPOS>ATOM
      1 N1          5.7360    1.5240  -20.5210           1 3GK302      0.0000 
      2 C6          4.2400    1.8560  -17.3150           1 3GK302      0.0000 
      3 C7          2.8920    2.1920  -17.4160           1 3GK302      0.0000 
      4 C8          2.1290    2.4720  -16.2940           1 3GK302      0.0000 
      5 C9          2.7460    2.4030  -15.0450           1 3GK302      0.0000 
      6 C13        -0.0960    3.2580  -15.4940           1 3GK302      0.0000 
      7 C17        -3.8720    4.0000  -15.3200           1 3GK302      0.0000 
      8 C18        -4.1330    4.1240  -16.6930           1 3GK302      0.0000 
      9 C22        -3.8430    3.8860  -13.1310           1 3GK302      0.0000 
     10 C24        -3.5020    4.1180  -19.0640           1 3GK302      0.0000 
     11 F27        -4.4180    3.2270  -19.4110           1 3GK302      0.0000 
     12 F25        -4.0080    5.3240  -19.2660           1 3GK302      0.0000 
     13 F26        -2.4670    3.9740  -19.9400           1 3GK302      0.0000 
     14 C19        -3.1190    3.9640  -17.6250           1 3GK302      0.0000 
     15 N23        -4.6530    4.1030  -14.1920           1 3GK302      0.0000 
     16 N21        -2.5820    3.6550  -13.5560           1 3GK302      0.0000 
     17 C16        -2.5660    3.7180  -14.8890           1 3GK302      0.0000 
     18 C20        -1.8060    3.6820  -17.2170           1 3GK302      0.0000 
     19 C15        -1.5490    3.5610  -15.8670           1 3GK302      0.0000 
     20 O14         0.2270    3.4430  -14.3220           1 3GK302      0.0000 
     21 N12         0.7580    2.8090  -16.4450           1 3GK302      0.0000 
     22 C10         4.0800    2.0720  -14.9260           1 3GK302      0.0000 
     23 C11         4.8260    1.7970  -16.0580           1 3GK302      0.0000 
     24 C3          5.0390    1.5540  -18.5220           1 3GK302      0.0000 
     25 N2          4.7870    2.0450  -19.7310           1 3GK302      0.0000 
     26 N4          6.1000    0.7500  -18.5310           1 3GK302      0.0000 
     27 N5          6.5240    0.7470  -19.8020           1 3GK302      0.0000 
@<TRIPOS>BOND
     1    1   25 du   
     2    1   27 du   
     3    2    3 du   
     4    2   23 du   
     5    2   24 du   
     6    3    4 du   
     7    4    5 du   
     8    4   21 du   
     9    5   22 du   
    10    6   19 du   
    11    6   20 du   
    12    6   21 du   
    13    7    8 du   
    14    7   15 du   
    15    7   17 du   
    16    8   14 du   
    17    9   15 du   
    18    9   16 du   
    19   10   11 du   
    20   10   12 du   
    21   10   13 du   
    22   10   14 du   
    23   14   18 du   
    24   16   17 du   
    25   17   19 du   
    26   18   19 du   
    27   22   23 du   
    28   24   25 du   
    29   24   26 du   
    30   26   27 du   
@<TRIPOS>SUBSTRUCTURE
     1 3GK302      1 GROUP   
@<TRIPOS>SET

