#    Name: 6qv0_2_ATP
#    Modification time : Fri May 22 19:35:21 2020

@<TRIPOS>MOLECULE
6qv0_2_ATP
   31    33     1     0     1
SMALL
NO_CHARGES


@<TRIPOS>ATOM
      1 PG         66.4720  -14.5410   78.1560 P.3       1 ATP600      0.0000 
      2 O1G        65.5660  -14.5880   76.9830 O.co2     1 ATP600      0.0000 
      3 O2G        66.6130  -13.1450   78.7560 O.co2     1 ATP600      0.0000 
      4 O3G        66.0490  -15.5150   79.2610 O.co2     1 ATP600      0.0000 
      5 PB         68.4240  -16.1750   76.7750 P.3       1 ATP600      0.0000 
      6 O1B        67.2640  -16.9680   76.3080 O.co2     1 ATP600      0.0000 
      7 O2B        69.3950  -17.0620   77.5510 O.co2     1 ATP600      0.0000 
      8 O3B        67.9350  -14.9840   77.7120 O.3       1 ATP600      0.0000 
      9 PA         68.9420  -15.7310   73.9680 P.3       1 ATP600      0.0000 
     10 O1A        67.5540  -15.3250   73.6420 O.co2     1 ATP600      0.0000 
     11 O2A        69.1090  -17.2070   73.6270 O.co2     1 ATP600      0.0000 
     12 O3A        69.1980  -15.5610   75.5290 O.3       1 ATP600      0.0000 
     13 O5'        70.0910  -14.9080   73.2110 O.3       1 ATP600      0.0000 
     14 C5'        71.4670  -14.8610   73.6410 C.3       1 ATP600      0.0000 
     15 C4'        72.1800  -13.7850   72.8580 C.3       1 ATP600      0.0000 
     16 O4'        71.8320  -13.8840   71.4590 O.3       1 ATP600      0.0000 
     17 C3'        71.9160  -12.3390   73.2790 C.3       1 ATP600      0.0000 
     18 O3'        73.1230  -11.5910   73.3770 O.3       1 ATP600      0.0000 
     19 C2'        70.9630  -11.8180   72.1970 C.3       1 ATP600      0.0000 
     20 O2'        71.1360  -10.4320   71.9230 O.3       1 ATP600      0.0000 
     21 C1'        71.3930  -12.6300   70.9780 C.3       1 ATP600      0.0000 
     22 N9         70.3310  -12.8440   69.9950 N.pl3     1 ATP600      0.0000 
     23 C8         69.1780  -13.5700   70.1510 C.2       1 ATP600      0.0000 
     24 N7         68.4020  -13.5740   69.0940 N.2       1 ATP600      0.0000 
     25 C5         69.0930  -12.7990   68.1750 C.ar      1 ATP600      0.0000 
     26 C6         68.8030  -12.4080   66.8510 C.ar      1 ATP600      0.0000 
     27 N6         67.7020  -12.7780   66.1910 N.pl3     1 ATP600      0.0000 
     28 N1         69.6990  -11.6120   66.2190 N.ar      1 ATP600      0.0000 
     29 C2         70.8050  -11.2380   66.8740 C.ar      1 ATP600      0.0000 
     30 N3         71.1910  -11.5510   68.1150 N.ar      1 ATP600      0.0000 
     31 C4         70.2830  -12.3390   68.7180 C.ar      1 ATP600      0.0000 
@<TRIPOS>BOND
     1    1    2 ar   
     2    1    3 ar   
     3    1    4 ar   
     4    1    8 1    
     5    5    6 ar   
     6    5    7 ar   
     7    5    8 1    
     8    5   12 1    
     9    9   10 ar   
    10    9   11 ar   
    11    9   12 1    
    12    9   13 1    
    13   13   14 1    
    14   14   15 1    
    15   15   16 1    
    16   15   17 1    
    17   16   21 1    
    18   17   18 1    
    19   17   19 1    
    20   19   20 1    
    21   19   21 1    
    22   21   22 1    
    23   22   23 1    
    24   22   31 1    
    25   23   24 2    
    26   24   25 1    
    27   25   26 ar   
    28   25   31 ar   
    29   26   27 1    
    30   26   28 ar   
    31   28   29 ar   
    32   29   30 ar   
    33   30   31 ar   
@<TRIPOS>SUBSTRUCTURE
     1 ATP600      1 GROUP   
@<TRIPOS>SET
ATOM$ORANGE STATIC     ATOMS   COLORGROUP SYSTEM 
20 14 14 15 15 17 17 19 19 21 21 23 23 25 25 26 26 29 \
29 31 31 

