#    Name: 6qv0_3_ATP
#    Modification time : Fri May 22 19:35:32 2020

@<TRIPOS>MOLECULE
6qv0_3_ATP
   31    33     1     0     1
SMALL
NO_CHARGES


@<TRIPOS>ATOM
      1 PG        -25.7220   30.2870  106.2960 P.3       1 ATP600      0.0000 
      2 O1G       -25.2000   29.6180  107.5360 O.co2     1 ATP600      0.0000 
      3 O2G       -24.6890   31.1820  105.6270 O.co2     1 ATP600      0.0000 
      4 O3G       -26.2310   29.2940  105.2500 O.co2     1 ATP600      0.0000 
      5 PB        -27.1650   32.8020  106.7300 P.3       1 ATP600      0.0000 
      6 O1B       -27.5980   33.1910  108.0930 O.co2     1 ATP600      0.0000 
      7 O2B       -25.8570   33.5150  106.3710 O.co2     1 ATP600      0.0000 
      8 O3B       -26.9600   31.2240  106.6550 O.3       1 ATP600      0.0000 
      9 PA        -28.4330   34.2710  104.5040 P.3       1 ATP600      0.0000 
     10 O1A       -27.5040   33.9720  103.3900 O.co2     1 ATP600      0.0000 
     11 O2A       -28.0670   35.6270  105.0940 O.co2     1 ATP600      0.0000 
     12 O3A       -28.2820   33.1810  105.6570 O.3       1 ATP600      0.0000 
     13 O5'       -29.9750   34.3140  104.0590 O.3       1 ATP600      0.0000 
     14 C5'       -31.0630   34.3130  105.0080 C.3       1 ATP600      0.0000 
     15 C4'       -32.3760   34.1240  104.2850 C.3       1 ATP600      0.0000 
     16 O4'       -32.4400   34.9950  103.1350 O.3       1 ATP600      0.0000 
     17 C3'       -32.6910   32.7130  103.7880 C.3       1 ATP600      0.0000 
     18 O3'       -34.0340   32.3450  104.0880 O.3       1 ATP600      0.0000 
     19 C2'       -32.4040   32.7940  102.2830 C.3       1 ATP600      0.0000 
     20 O2'       -33.2320   31.9160  101.5300 O.3       1 ATP600      0.0000 
     21 C1'       -32.7430   34.2520  101.9710 C.3       1 ATP600      0.0000 
     22 N9        -31.9980   34.8290  100.8530 N.pl3     1 ATP600      0.0000 
     23 C8        -30.6380   34.9620  100.7450 C.2       1 ATP600      0.0000 
     24 N7        -30.2470   35.6020   99.6680 N.2       1 ATP600      0.0000 
     25 C5        -31.4330   35.9110   99.0210 C.ar      1 ATP600      0.0000 
     26 C6        -31.7110   36.6140   97.8300 C.ar      1 ATP600      0.0000 
     27 N6        -30.7700   37.1470   97.0470 N.pl3     1 ATP600      0.0000 
     28 N1        -33.0080   36.7530   97.4680 N.ar      1 ATP600      0.0000 
     29 C2        -33.9560   36.2210   98.2500 C.ar      1 ATP600      0.0000 
     30 N3        -33.8150   35.5440   99.3940 N.ar      1 ATP600      0.0000 
     31 C4        -32.5210   35.4280   99.7320 C.ar      1 ATP600      0.0000 
@<TRIPOS>BOND
     1    1    2 ar   
     2    1    3 ar   
     3    1    4 ar   
     4    1    8 1    
     5    5    6 ar   
     6    5    7 ar   
     7    5    8 1    
     8    5   12 1    
     9    9   10 ar   
    10    9   11 ar   
    11    9   12 1    
    12    9   13 1    
    13   13   14 1    
    14   14   15 1    
    15   15   16 1    
    16   15   17 1    
    17   16   21 1    
    18   17   18 1    
    19   17   19 1    
    20   19   20 1    
    21   19   21 1    
    22   21   22 1    
    23   22   23 1    
    24   22   31 1    
    25   23   24 2    
    26   24   25 1    
    27   25   26 ar   
    28   25   31 ar   
    29   26   27 1    
    30   26   28 ar   
    31   28   29 ar   
    32   29   30 ar   
    33   30   31 ar   
@<TRIPOS>SUBSTRUCTURE
     1 ATP600      1 GROUP   
@<TRIPOS>SET
ATOM$ORANGE STATIC     ATOMS   COLORGROUP SYSTEM 
20 14 14 15 15 17 17 19 19 21 21 23 23 25 25 26 26 29 \
29 31 31 

