#    Name: 6qv0_1_ATP
#    Modification time : Fri May 22 19:35:07 2020

@<TRIPOS>MOLECULE
6qv0_1_ATP
   31    33     1     0     1
SMALL
NO_CHARGES


@<TRIPOS>ATOM
      1 PG         47.7620  -11.1570   83.8440 P.3       1 ATP600      0.0000 
      2 O1G        48.6760  -11.0810   85.0590 O.co2     1 ATP600      0.0000 
      3 O2G        48.1730  -10.2130   82.7100 O.co2     1 ATP600      0.0000 
      4 O3G        47.6630  -12.5580   83.2600 O.co2     1 ATP600      0.0000 
      5 PB         45.6290   -9.2840   84.4280 P.3       1 ATP600      0.0000 
      6 O1B        45.1860   -9.1220   85.8330 O.co2     1 ATP600      0.0000 
      7 O2B        46.6850   -8.2310   84.0880 O.co2     1 ATP600      0.0000 
      8 O3B        46.2750  -10.7250   84.2180 O.3       1 ATP600      0.0000 
      9 PA         43.9480   -7.9540   82.4290 P.3       1 ATP600      0.0000 
     10 O1A        44.7560   -8.0160   81.1890 O.co2     1 ATP600      0.0000 
     11 O2A        44.2090   -6.6150   83.1120 O.co2     1 ATP600      0.0000 
     12 O3A        44.3980   -9.1050   83.4350 O.3       1 ATP600      0.0000 
     13 O5'        42.3590   -8.0880   82.1690 O.3       1 ATP600      0.0000 
     14 C5'        41.4200   -8.7870   83.0160 C.3       1 ATP600      0.0000 
     15 C4'        40.3190   -9.3830   82.1690 C.3       1 ATP600      0.0000 
     16 O4'        40.0300   -8.5250   81.0420 O.3       1 ATP600      0.0000 
     17 C3'        40.5670  -10.7810   81.6030 C.3       1 ATP600      0.0000 
     18 O3'        39.4190  -11.6130   81.7330 O.3       1 ATP600      0.0000 
     19 C2'        40.9670  -10.5060   80.1480 C.3       1 ATP600      0.0000 
     20 O2'        40.5850  -11.5540   79.2640 O.3       1 ATP600      0.0000 
     21 C1'        40.1800   -9.2330   79.8270 C.3       1 ATP600      0.0000 
     22 N9         40.8290   -8.3550   78.8540 N.pl3     1 ATP600      0.0000 
     23 C8         42.0850   -7.8090   78.9370 C.2       1 ATP600      0.0000 
     24 N7         42.4030   -7.0420   77.9230 N.2       1 ATP600      0.0000 
     25 C5         41.2770   -7.0820   77.1130 C.ar      1 ATP600      0.0000 
     26 C6         40.9680   -6.4630   75.8850 C.ar      1 ATP600      0.0000 
     27 N6         41.8170   -5.6800   75.2150 N.pl3     1 ATP600      0.0000 
     28 N1         39.7450   -6.7000   75.3510 N.ar      1 ATP600      0.0000 
     29 C2         38.9010   -7.5070   76.0050 C.ar      1 ATP600      0.0000 
     30 N3         39.0830   -8.1460   77.1660 N.ar      1 ATP600      0.0000 
     31 C4         40.2990   -7.8900   77.6740 C.ar      1 ATP600      0.0000 
@<TRIPOS>BOND
     1    1    2 ar   
     2    1    3 ar   
     3    1    4 ar   
     4    1    8 1    
     5    5    6 ar   
     6    5    7 ar   
     7    5    8 1    
     8    5   12 1    
     9    9   10 ar   
    10    9   11 ar   
    11    9   12 1    
    12    9   13 1    
    13   13   14 1    
    14   14   15 1    
    15   15   16 1    
    16   15   17 1    
    17   16   21 1    
    18   17   18 1    
    19   17   19 1    
    20   19   20 1    
    21   19   21 1    
    22   21   22 1    
    23   22   23 1    
    24   22   31 1    
    25   23   24 2    
    26   24   25 1    
    27   25   26 ar   
    28   25   31 ar   
    29   26   27 1    
    30   26   28 ar   
    31   28   29 ar   
    32   29   30 ar   
    33   30   31 ar   
@<TRIPOS>SUBSTRUCTURE
     1 ATP600      1 GROUP   
@<TRIPOS>SET
ATOM$ORANGE STATIC     ATOMS   COLORGROUP SYSTEM 
20 14 14 15 15 17 17 19 19 21 21 23 23 25 25 26 26 29 \
29 31 31 

