#    Name: 6qv0_4_ATP
#    Modification time : Fri May 22 19:35:42 2020

@<TRIPOS>MOLECULE
6qv0_4_ATP
   31    33     1     0     1
SMALL
NO_CHARGES


@<TRIPOS>ATOM
      1 PG         -8.9760   21.4260  100.5130 P.3       1 ATP600      0.0000 
      2 O1G        -9.9850   21.3450   99.4180 O.co2     1 ATP600      0.0000 
      3 O2G        -8.4290   22.8390  100.7320 O.co2     1 ATP600      0.0000 
      4 O3G        -9.4900   20.8880  101.8570 O.co2     1 ATP600      0.0000 
      5 PB         -7.6590   19.1980   99.2210 P.3       1 ATP600      0.0000 
      6 O1B        -7.0560   18.0940   99.9980 O.co2     1 ATP600      0.0000 
      7 O2B        -9.0730   18.8290   98.7850 O.co2     1 ATP600      0.0000 
      8 O3B        -7.7340   20.5160  100.1100 O.3       1 ATP600      0.0000 
      9 PA         -7.0870   19.3510   96.3780 P.3       1 ATP600      0.0000 
     10 O1A        -8.3060   20.1140   96.0220 O.co2     1 ATP600      0.0000 
     11 O2A        -7.3440   17.8780   96.1060 O.co2     1 ATP600      0.0000 
     12 O3A        -6.7790   19.5000   97.9320 O.3       1 ATP600      0.0000 
     13 O5'        -5.7570   19.7960   95.6070 O.3       1 ATP600      0.0000 
     14 C5'        -4.4320   19.4440   96.0510 C.3       1 ATP600      0.0000 
     15 C4'        -3.4240   20.1660   95.1900 C.3       1 ATP600      0.0000 
     16 O4'        -3.8180   20.0970   93.8030 O.3       1 ATP600      0.0000 
     17 C3'        -3.1680   21.6380   95.5090 C.3       1 ATP600      0.0000 
     18 O3'        -1.7730   21.9110   95.5530 O.3       1 ATP600      0.0000 
     19 C2'        -3.8980   22.3860   94.3860 C.3       1 ATP600      0.0000 
     20 O2'        -3.2200   23.5840   94.0220 O.3       1 ATP600      0.0000 
     21 C1'        -3.8390   21.3890   93.2280 C.3       1 ATP600      0.0000 
     22 N9         -4.9700   21.4700   92.3030 N.pl3     1 ATP600      0.0000 
     23 C8         -6.2600   21.0680   92.5350 C.2       1 ATP600      0.0000 
     24 N7         -7.0600   21.2140   91.5060 N.2       1 ATP600      0.0000 
     25 C5         -6.2400   21.7520   90.5250 C.ar      1 ATP600      0.0000 
     26 C6         -6.4800   22.1260   89.1850 C.ar      1 ATP600      0.0000 
     27 N6         -7.6600   21.9930   88.5760 N.pl3     1 ATP600      0.0000 
     28 N1         -5.4440   22.6370   88.4800 N.ar      1 ATP600      0.0000 
     29 C2         -4.2520   22.7570   89.0780 C.ar      1 ATP600      0.0000 
     30 N3         -3.9050   22.4280   90.3280 N.ar      1 ATP600      0.0000 
     31 C4         -4.9500   21.9240   91.0050 C.ar      1 ATP600      0.0000 
@<TRIPOS>BOND
     1    1    2 ar   
     2    1    3 ar   
     3    1    4 ar   
     4    1    8 1    
     5    5    6 ar   
     6    5    7 ar   
     7    5    8 1    
     8    5   12 1    
     9    9   10 ar   
    10    9   11 ar   
    11    9   12 1    
    12    9   13 1    
    13   13   14 1    
    14   14   15 1    
    15   15   16 1    
    16   15   17 1    
    17   16   21 1    
    18   17   18 1    
    19   17   19 1    
    20   19   20 1    
    21   19   21 1    
    22   21   22 1    
    23   22   23 1    
    24   22   31 1    
    25   23   24 2    
    26   24   25 1    
    27   25   26 ar   
    28   25   31 ar   
    29   26   27 1    
    30   26   28 ar   
    31   28   29 ar   
    32   29   30 ar   
    33   30   31 ar   
@<TRIPOS>SUBSTRUCTURE
     1 ATP600      1 GROUP   
@<TRIPOS>SET
ATOM$ORANGE STATIC     ATOMS   COLORGROUP SYSTEM 
20 14 14 15 15 17 17 19 19 21 21 23 23 25 25 26 26 29 \
29 31 31 

