#    Name: 6hez_2_FAD
#    Modification time : Fri May 22 19:37:00 2020

@<TRIPOS>MOLECULE
6hez_2_FAD
   53    58     1     0     1
SMALL
NO_CHARGES


@<TRIPOS>ATOM
      1 PA          3.5720   -8.8410   41.2690 P.3       1 FAD502      0.0000 
      2 O1A         4.3960   -9.9100   41.9110 O.co2     1 FAD502      0.0000 
      3 O2A         2.0810   -8.8300   41.5730 O.co2     1 FAD502      0.0000 
      4 O5B         4.2950   -7.4310   41.4740 O.3       1 FAD502      0.0000 
      5 C5B         5.7210   -7.3040   41.2900 C.3       1 FAD502      0.0000 
      6 C4B         6.1100   -5.8180   41.3120 C.3       1 FAD502      0.0000 
      7 O4B         5.5600   -5.2090   40.1360 O.3       1 FAD502      0.0000 
      8 C3B         5.5150   -5.0510   42.4960 C.3       1 FAD502      0.0000 
      9 O3B         6.4270   -4.0400   42.8890 O.3       1 FAD502      0.0000 
     10 C2B         4.3050   -4.3810   41.9040 C.3       1 FAD502      0.0000 
     11 O2B         3.9360   -3.1950   42.6010 O.3       1 FAD502      0.0000 
     12 C1B         4.7610   -4.0850   40.4840 C.3       1 FAD502      0.0000 
     13 N9A         3.5990   -3.9250   39.5790 N.pl3     1 FAD502      0.0000 
     14 C8A         2.7210   -4.8860   39.2390 C.2       1 FAD502      0.0000 
     15 N7A         1.7610   -4.3980   38.4170 N.2       1 FAD502      0.0000 
     16 C5A         2.0060   -3.0960   38.2020 C.ar      1 FAD502      0.0000 
     17 C6A         1.3820   -2.0010   37.4230 C.ar      1 FAD502      0.0000 
     18 N6A         0.2690   -2.2070   36.6860 N.pl3     1 FAD502      0.0000 
     19 N1A         1.9700   -0.7730   37.4720 N.ar      1 FAD502      0.0000 
     20 C2A         3.0920   -0.5380   38.1990 C.ar      1 FAD502      0.0000 
     21 N3A         3.7090   -1.4870   38.9270 N.ar      1 FAD502      0.0000 
     22 C4A         3.2260   -2.7740   38.9700 C.ar      1 FAD502      0.0000 
     23 N1         11.7620  -13.1700   37.3350 N.2       1 FAD502      0.0000 
     24 C2         12.7480  -13.0390   36.4200 C.2       1 FAD502      0.0000 
     25 O2         13.2020  -11.8730   36.1740 O.2       1 FAD502      0.0000 
     26 N3         13.2390  -14.1180   35.7700 N.am      1 FAD502      0.0000 
     27 C4         12.8070  -15.3690   36.0080 C.2       1 FAD502      0.0000 
     28 O4         13.2500  -16.3870   35.4180 O.2       1 FAD502      0.0000 
     29 C4X        11.7630  -15.5980   37.0160 C.2       1 FAD502      0.0000 
     30 N5         11.2790  -16.8370   37.2680 N.2       1 FAD502      0.0000 
     31 C5X        10.2730  -16.9860   38.1940 C.ar      1 FAD502      0.0000 
     32 C6          9.7700  -18.2400   38.4470 C.ar      1 FAD502      0.0000 
     33 C7          8.7650  -18.3970   39.3930 C.ar      1 FAD502      0.0000 
     34 C7M         8.2210  -19.7560   39.6990 C.3       1 FAD502      0.0000 
     35 C8          8.1940  -17.2070   40.0950 C.ar      1 FAD502      0.0000 
     36 C8M         7.1120  -17.4040   41.1200 C.3       1 FAD502      0.0000 
     37 C9          8.6980  -15.9370   39.8390 C.ar      1 FAD502      0.0000 
     38 C9A         9.7170  -15.7900   38.9140 C.ar      1 FAD502      0.0000 
     39 N10        10.2230  -14.5210   38.6140 N.pl3     1 FAD502      0.0000 
     40 C10        11.2510  -14.3910   37.6750 C.2       1 FAD502      0.0000 
     41 C1'         9.7450  -13.2920   39.2670 C.3       1 FAD502      0.0000 
     42 C2'         8.6160  -12.6710   38.4460 C.3       1 FAD502      0.0000 
     43 O2'         8.9440  -12.6660   37.0620 O.3       1 FAD502      0.0000 
     44 C3'         8.5390  -11.2270   38.8570 C.3       1 FAD502      0.0000 
     45 O3'         8.4610  -11.2160   40.2830 O.3       1 FAD502      0.0000 
     46 C4'         7.3550  -10.4930   38.2500 C.3       1 FAD502      0.0000 
     47 O4'         7.5660   -9.1060   38.5630 O.3       1 FAD502      0.0000 
     48 C5'         6.0090  -11.0080   38.8050 C.3       1 FAD502      0.0000 
     49 O5'         4.9010  -10.4960   38.0580 O.3       1 FAD502      0.0000 
     50 P           3.4980  -10.1680   38.7720 P.3       1 FAD502      0.0000 
     51 O1P         2.6050   -9.6830   37.6710 O.co2     1 FAD502      0.0000 
     52 O2P         3.1230  -11.3660   39.6050 O.co2     1 FAD502      0.0000 
     53 O3P         3.8120   -8.9080   39.6810 O.3       1 FAD502      0.0000 
@<TRIPOS>BOND
     1    1    2 ar   
     2    1    3 ar   
     3    1    4 1    
     4    1   53 1    
     5    4    5 1    
     6    5    6 1    
     7    6    7 1    
     8    6    8 1    
     9    7   12 1    
    10    8    9 1    
    11    8   10 1    
    12   10   11 1    
    13   10   12 1    
    14   12   13 1    
    15   13   14 1    
    16   13   22 1    
    17   14   15 2    
    18   15   16 1    
    19   16   17 ar   
    20   16   22 ar   
    21   17   18 1    
    22   17   19 ar   
    23   19   20 ar   
    24   20   21 ar   
    25   21   22 ar   
    26   23   24 1    
    27   23   40 2    
    28   24   25 2    
    29   24   26 am   
    30   26   27 am   
    31   27   28 2    
    32   27   29 1    
    33   29   30 2    
    34   29   40 1    
    35   30   31 1    
    36   31   32 ar   
    37   31   38 ar   
    38   32   33 ar   
    39   33   34 1    
    40   33   35 ar   
    41   35   36 1    
    42   35   37 ar   
    43   37   38 ar   
    44   38   39 1    
    45   39   40 1    
    46   39   41 1    
    47   41   42 1    
    48   42   43 1    
    49   42   44 1    
    50   44   45 1    
    51   44   46 1    
    52   46   47 1    
    53   46   48 1    
    54   48   49 1    
    55   49   50 1    
    56   50   51 ar   
    57   50   52 ar   
    58   50   53 1    
@<TRIPOS>SUBSTRUCTURE
     1 FAD502      1 GROUP   
@<TRIPOS>SET
ATOM$ORANGE STATIC     ATOMS   COLORGROUP SYSTEM 
54 5 5 6 6 8 8 10 10 12 12 14 14 16 16 17 17 20 \
20 22 22 24 24 27 27 29 29 31 31 32 32 33 33 34 34 35 \
35 36 36 37 37 38 38 40 40 41 41 42 42 44 44 46 46 48 \
48 

