#    Name: 6sf0_5_FAD
#    Modification time : Fri May 22 19:36:27 2020

@<TRIPOS>MOLECULE
6sf0_5_FAD
   53    58     1     0     1
SMALL
NO_CHARGES


@<TRIPOS>ATOM
      1 PA        -33.2240  -73.8130   28.9780 P.3       1 FAD601      0.0000 
      2 O1A       -33.4760  -75.3130   29.1910 O.co2     1 FAD601      0.0000 
      3 O2A       -32.1090  -73.2010   28.0710 O.co2     1 FAD601      0.0000 
      4 O5B       -34.6380  -73.3030   28.4100 O.3       1 FAD601      0.0000 
      5 C5B       -34.7020  -72.0170   27.7990 C.3       1 FAD601      0.0000 
      6 C4B       -35.9770  -72.0110   26.9940 C.3       1 FAD601      0.0000 
      7 O4B       -36.3340  -70.6540   26.8250 O.3       1 FAD601      0.0000 
      8 C3B       -35.7580  -72.5900   25.6090 C.3       1 FAD601      0.0000 
      9 O3B       -36.7520  -73.5970   25.3450 O.3       1 FAD601      0.0000 
     10 C2B       -35.7430  -71.3610   24.6880 C.3       1 FAD601      0.0000 
     11 O2B       -36.2430  -71.5580   23.3550 O.3       1 FAD601      0.0000 
     12 C1B       -36.6320  -70.3990   25.4500 C.3       1 FAD601      0.0000 
     13 N9A       -36.4280  -68.9720   25.0850 N.pl3     1 FAD601      0.0000 
     14 C8A       -35.2670  -68.3170   25.1040 C.2       1 FAD601      0.0000 
     15 N7A       -35.4650  -67.0390   24.7110 N.2       1 FAD601      0.0000 
     16 C5A       -36.7370  -66.8920   24.4440 C.ar      1 FAD601      0.0000 
     17 C6A       -37.5460  -65.7870   23.9980 C.ar      1 FAD601      0.0000 
     18 N6A       -36.9870  -64.5700   23.7640 N.pl3     1 FAD601      0.0000 
     19 N1A       -38.8650  -66.0620   23.8580 N.ar      1 FAD601      0.0000 
     20 C2A       -39.4230  -67.2660   24.1000 C.ar      1 FAD601      0.0000 
     21 N3A       -38.7000  -68.2990   24.5100 N.ar      1 FAD601      0.0000 
     22 C4A       -37.3870  -68.1550   24.6970 C.ar      1 FAD601      0.0000 
     23 N1        -28.6460  -79.6010   36.0780 N.2       1 FAD601      0.0000 
     24 C2        -29.0530  -80.6370   36.8360 C.2       1 FAD601      0.0000 
     25 O2        -29.7510  -80.3710   37.8410 O.2       1 FAD601      0.0000 
     26 N3        -28.7210  -81.9080   36.5240 N.am      1 FAD601      0.0000 
     27 C4        -27.9750  -82.2290   35.4450 C.2       1 FAD601      0.0000 
     28 O4        -27.6860  -83.4250   35.1960 O.2       1 FAD601      0.0000 
     29 C4X       -27.4830  -81.1350   34.5660 C.2       1 FAD601      0.0000 
     30 N5        -26.7280  -81.3520   33.4550 N.2       1 FAD601      0.0000 
     31 C5X       -26.3100  -80.3160   32.6650 C.ar      1 FAD601      0.0000 
     32 C6        -25.5380  -80.5770   31.5290 C.ar      1 FAD601      0.0000 
     33 C7        -25.0890  -79.5450   30.6930 C.ar      1 FAD601      0.0000 
     34 C7M       -24.2730  -79.8650   29.4730 C.3       1 FAD601      0.0000 
     35 C8        -25.4340  -78.1280   30.9850 C.ar      1 FAD601      0.0000 
     36 C8M       -24.9520  -77.0060   30.0860 C.3       1 FAD601      0.0000 
     37 C9        -26.2130  -77.8580   32.1170 C.ar      1 FAD601      0.0000 
     38 C9A       -26.6720  -78.8850   32.9850 C.ar      1 FAD601      0.0000 
     39 N10       -27.4790  -78.6240   34.1600 N.pl3     1 FAD601      0.0000 
     40 C10       -27.8800  -79.7520   34.9600 C.2       1 FAD601      0.0000 
     41 C1'       -27.9290  -77.2480   34.5610 C.3       1 FAD601      0.0000 
     42 C2'       -29.4150  -76.9650   34.1870 C.3       1 FAD601      0.0000 
     43 O2'       -30.2840  -78.1180   34.2540 O.3       1 FAD601      0.0000 
     44 C3'       -29.6810  -76.4560   32.7820 C.3       1 FAD601      0.0000 
     45 O3'       -28.9270  -75.2450   32.5920 O.3       1 FAD601      0.0000 
     46 C4'       -31.2300  -76.3370   32.6530 C.3       1 FAD601      0.0000 
     47 O4'       -31.7460  -77.3990   31.8240 O.3       1 FAD601      0.0000 
     48 C5'       -31.7450  -74.9600   32.1720 C.3       1 FAD601      0.0000 
     49 O5'       -33.1930  -74.8710   32.1770 O.3       1 FAD601      0.0000 
     50 P         -33.9620  -73.4880   31.8010 P.3       1 FAD601      0.0000 
     51 O1P       -35.4120  -73.8160   31.5370 O.co2     1 FAD601      0.0000 
     52 O2P       -33.6820  -72.3600   32.8020 O.co2     1 FAD601      0.0000 
     53 O3P       -33.1900  -73.0730   30.4300 O.3       1 FAD601      0.0000 
@<TRIPOS>BOND
     1    1    2 ar   
     2    1    3 ar   
     3    1    4 1    
     4    1   53 1    
     5    4    5 1    
     6    5    6 1    
     7    6    7 1    
     8    6    8 1    
     9    7   12 1    
    10    8    9 1    
    11    8   10 1    
    12   10   11 1    
    13   10   12 1    
    14   12   13 1    
    15   13   14 1    
    16   13   22 1    
    17   14   15 2    
    18   15   16 1    
    19   16   17 ar   
    20   16   22 ar   
    21   17   18 1    
    22   17   19 ar   
    23   19   20 ar   
    24   20   21 ar   
    25   21   22 ar   
    26   23   24 1    
    27   23   40 2    
    28   24   25 2    
    29   24   26 am   
    30   26   27 am   
    31   27   28 2    
    32   27   29 1    
    33   29   30 2    
    34   29   40 1    
    35   30   31 1    
    36   31   32 ar   
    37   31   38 ar   
    38   32   33 ar   
    39   33   34 1    
    40   33   35 ar   
    41   35   36 1    
    42   35   37 ar   
    43   37   38 ar   
    44   38   39 1    
    45   39   40 1    
    46   39   41 1    
    47   41   42 1    
    48   42   43 1    
    49   42   44 1    
    50   44   45 1    
    51   44   46 1    
    52   46   47 1    
    53   46   48 1    
    54   48   49 1    
    55   49   50 1    
    56   50   51 ar   
    57   50   52 ar   
    58   50   53 1    
@<TRIPOS>SUBSTRUCTURE
     1 FAD601      1 GROUP   
@<TRIPOS>SET
ATOM$ORANGE STATIC     ATOMS   COLORGROUP SYSTEM 
54 5 5 6 6 8 8 10 10 12 12 14 14 16 16 17 17 20 \
20 22 22 24 24 27 27 29 29 31 31 32 32 33 33 34 34 35 \
35 36 36 37 37 38 38 40 40 41 41 42 42 44 44 46 46 48 \
48 

