#    Name: 6sf0_4_NAP
#    Modification time : Fri May 22 19:36:21 2020

@<TRIPOS>MOLECULE
6sf0_4_NAP
   48    52     1     0     1
SMALL
NO_CHARGES


@<TRIPOS>ATOM
      1 PA         10.2780  -27.7920   43.3990 P.3       1 NAP602      0.0000 
      2 O1A        11.7250  -27.8770   43.8370 O.co2     1 NAP602      0.0000 
      3 O2A         9.9070  -28.6890   42.2390 O.co2     1 NAP602      0.0000 
      4 O5B         9.9450  -26.2400   43.0820 O.3       1 NAP602      0.0000 
      5 C5B         9.8930  -25.2460   44.1050 C.3       1 NAP602      0.0000 
      6 C4B        10.0340  -23.8640   43.4600 C.3       1 NAP602      0.0000 
      7 O4B        10.4900  -22.8590   44.3650 O.3       1 NAP602      0.0000 
      8 C3B        11.0170  -23.8170   42.2920 C.3       1 NAP602      0.0000 
      9 O3B        10.3740  -23.3720   41.1070 O.3       1 NAP602      0.0000 
     10 C2B        12.0170  -22.7570   42.6190 C.3       1 NAP602      0.0000 
     11 O2B        12.4460  -22.0750   41.4260 O.3       1 NAP602      0.0000 
     12 C1B        11.1900  -21.9290   43.5680 C.3       1 NAP602      0.0000 
     13 N9A        12.0460  -21.0730   44.3930 N.pl3     1 NAP602      0.0000 
     14 C8A        12.9220  -21.4420   45.3530 C.2       1 NAP602      0.0000 
     15 N7A        13.5190  -20.3370   45.8630 N.2       1 NAP602      0.0000 
     16 C5A        13.0160  -19.2620   45.2170 C.ar      1 NAP602      0.0000 
     17 C6A        13.2000  -17.7900   45.2240 C.ar      1 NAP602      0.0000 
     18 N6A        14.0660  -17.1990   46.0770 N.pl3     1 NAP602      0.0000 
     19 N1A        12.4590  -17.0400   44.3550 N.ar      1 NAP602      0.0000 
     20 C2A        11.5790  -17.5710   43.4840 C.ar      1 NAP602      0.0000 
     21 N3A        11.3760  -18.8970   43.4110 N.ar      1 NAP602      0.0000 
     22 C4A        12.0460  -19.7580   44.2360 C.ar      1 NAP602      0.0000 
     23 O3          9.3310  -28.1030   44.6760 O.3       1 NAP602      0.0000 
     24 PN          7.8030  -28.5590   44.4710 P.3       1 NAP602      0.0000 
     25 O1N         6.7770  -27.4340   44.6400 O.co2     1 NAP602      0.0000 
     26 O2N         7.7480  -29.9010   45.1700 O.co2     1 NAP602      0.0000 
     27 O5D         7.7110  -28.7760   42.8940 O.3       1 NAP602      0.0000 
     28 C5D         6.9920  -29.8910   42.4240 C.3       1 NAP602      0.0000 
     29 C4D         7.7120  -31.1930   42.7750 C.3       1 NAP602      0.0000 
     30 O4D         6.9510  -32.0380   43.6440 O.3       1 NAP602      0.0000 
     31 C3D         7.8540  -31.9120   41.4620 C.3       1 NAP602      0.0000 
     32 O3D         9.1190  -32.5870   41.5040 O.3       1 NAP602      0.0000 
     33 C2D         6.5300  -32.6980   41.3780 C.3       1 NAP602      0.0000 
     34 O2D         6.5630  -34.0480   40.8200 O.3       1 NAP602      0.0000 
     35 C1D         6.0430  -32.7880   42.8170 C.3       1 NAP602      0.0000 
     36 N1N         4.6430  -32.3590   42.8810 N.pl3     1 NAP602      0.0000 
     37 C2N         3.6520  -32.9620   42.1480 C.ar      1 NAP602      0.0000 
     38 C3N         2.2970  -32.5290   42.2580 C.ar      1 NAP602      0.0000 
     39 C7N         1.0820  -33.0970   41.5340 C.2       1 NAP602      0.0000 
     40 O7N         0.0400  -32.4600   41.4970 O.2       1 NAP602      0.0000 
     41 N7N         1.0990  -34.3030   40.9810 N.am      1 NAP602      0.0000 
     42 C4N         2.0250  -31.4850   43.1430 C.ar      1 NAP602      0.0000 
     43 C5N         3.0570  -30.8880   43.8640 C.ar      1 NAP602      0.0000 
     44 C6N         4.3570  -31.3580   43.7210 C.ar      1 NAP602      0.0000 
     45 P2B        13.9690  -22.2550   40.8730 P.3       1 NAP602      0.0000 
     46 O1X        13.9810  -22.0300   39.3750 O.co2     1 NAP602      0.0000 
     47 O2X        14.6690  -21.1290   41.5940 O.co2     1 NAP602      0.0000 
     48 O3X        14.3410  -23.6830   41.2660 O.co2     1 NAP602      0.0000 
@<TRIPOS>BOND
     1    1    2 ar   
     2    1    3 ar   
     3    1    4 1    
     4    1   23 1    
     5    4    5 1    
     6    5    6 1    
     7    6    7 1    
     8    6    8 1    
     9    7   12 1    
    10    8    9 1    
    11    8   10 1    
    12   10   11 1    
    13   10   12 1    
    14   11   45 1    
    15   12   13 1    
    16   13   14 1    
    17   13   22 1    
    18   14   15 2    
    19   15   16 1    
    20   16   17 ar   
    21   16   22 ar   
    22   17   18 1    
    23   17   19 ar   
    24   19   20 ar   
    25   20   21 ar   
    26   21   22 ar   
    27   23   24 1    
    28   24   25 ar   
    29   24   26 ar   
    30   24   27 1    
    31   27   28 1    
    32   28   29 1    
    33   29   30 1    
    34   29   31 1    
    35   30   35 1    
    36   31   32 1    
    37   31   33 1    
    38   33   34 1    
    39   33   35 1    
    40   35   36 1    
    41   36   37 ar   
    42   36   44 ar   
    43   37   38 ar   
    44   38   39 1    
    45   38   42 ar   
    46   39   40 2    
    47   39   41 am   
    48   42   43 ar   
    49   43   44 ar   
    50   45   46 ar   
    51   45   47 ar   
    52   45   48 ar   
@<TRIPOS>SUBSTRUCTURE
     1 NAP602      1 GROUP   
@<TRIPOS>SET
ATOM$ORANGE STATIC     ATOMS   COLORGROUP SYSTEM 
42 5 5 6 6 8 8 10 10 12 12 14 14 16 16 17 17 20 \
20 22 22 28 28 29 29 31 31 33 33 35 35 37 37 38 38 39 \
39 42 42 43 43 44 44 

