#    Name: 6sf0_6_NAP
#    Modification time : Fri May 22 19:36:34 2020

@<TRIPOS>MOLECULE
6sf0_6_NAP
   48    52     1     0     1
SMALL
NO_CHARGES


@<TRIPOS>ATOM
      1 PA        -17.9040  -73.9550   33.1130 P.3       1 NAP602      0.0000 
      2 O1A       -18.0520  -72.4990   33.5020 O.co2     1 NAP602      0.0000 
      3 O2A       -18.3950  -75.1040   33.9780 O.co2     1 NAP602      0.0000 
      4 O5B       -16.3320  -74.2100   33.0000 O.3       1 NAP602      0.0000 
      5 C5B       -15.4220  -73.4770   32.1650 C.3       1 NAP602      0.0000 
      6 C4B       -13.9830  -74.0010   32.3090 C.3       1 NAP602      0.0000 
      7 O4B       -13.1080  -73.3780   31.3740 O.3       1 NAP602      0.0000 
      8 C3B       -13.4130  -73.7080   33.6930 C.3       1 NAP602      0.0000 
      9 O3B       -12.5960  -74.8330   34.0780 O.3       1 NAP602      0.0000 
     10 C2B       -12.6800  -72.4150   33.4770 C.3       1 NAP602      0.0000 
     11 O2B       -11.6820  -72.1390   34.4660 O.3       1 NAP602      0.0000 
     12 C1B       -12.0890  -72.7850   32.1360 C.3       1 NAP602      0.0000 
     13 N9A       -11.5080  -71.5910   31.5590 N.pl3     1 NAP602      0.0000 
     14 C8A       -12.0660  -70.3650   31.4310 C.2       1 NAP602      0.0000 
     15 N7A       -11.1500  -69.5000   30.9070 N.2       1 NAP602      0.0000 
     16 C5A       -10.0050  -70.1970   30.7250 C.ar      1 NAP602      0.0000 
     17 C6A        -8.6450  -69.9110   30.2200 C.ar      1 NAP602      0.0000 
     18 N6A        -8.3760  -68.6540   29.7950 N.pl3     1 NAP602      0.0000 
     19 N1A        -7.7230  -70.9230   30.1910 N.ar      1 NAP602      0.0000 
     20 C2A        -8.0160  -72.1720   30.6280 C.ar      1 NAP602      0.0000 
     21 N3A        -9.2420  -72.5030   31.1080 N.ar      1 NAP602      0.0000 
     22 C4A       -10.2450  -71.5780   31.1660 C.ar      1 NAP602      0.0000 
     23 O3        -18.5300  -74.2560   31.6420 O.3       1 NAP602      0.0000 
     24 PN        -18.9110  -75.7660   31.2010 P.3       1 NAP602      0.0000 
     25 O1N       -17.7440  -76.7030   31.5070 O.co2     1 NAP602      0.0000 
     26 O2N       -19.4080  -75.7290   29.7730 O.co2     1 NAP602      0.0000 
     27 O5D       -20.1060  -76.1490   32.2330 O.3       1 NAP602      0.0000 
     28 C5D       -21.4300  -75.5720   32.2110 C.3       1 NAP602      0.0000 
     29 C4D       -22.3440  -76.0000   33.3860 C.3       1 NAP602      0.0000 
     30 O4D       -23.1870  -77.1570   33.1470 O.3       1 NAP602      0.0000 
     31 C3D       -21.5450  -76.3750   34.6170 C.3       1 NAP602      0.0000 
     32 O3D       -22.3280  -76.1820   35.7980 O.3       1 NAP602      0.0000 
     33 C2D       -21.3210  -77.8510   34.4010 C.3       1 NAP602      0.0000 
     34 O2D       -20.8060  -78.4770   35.5920 O.3       1 NAP602      0.0000 
     35 C1D       -22.6950  -78.3010   33.8580 C.3       1 NAP602      0.0000 
     36 N1N       -22.5220  -79.4540   32.9520 N.pl3     1 NAP602      0.0000 
     37 C2N       -22.8830  -80.6970   33.2990 C.ar      1 NAP602      0.0000 
     38 C3N       -22.6780  -81.7730   32.4190 C.ar      1 NAP602      0.0000 
     39 C7N       -23.0490  -83.1860   32.7620 C.2       1 NAP602      0.0000 
     40 O7N       -22.2360  -84.0530   32.4980 O.2       1 NAP602      0.0000 
     41 N7N       -24.2130  -83.4790   33.3390 N.am      1 NAP602      0.0000 
     42 C4N       -22.1010  -81.5700   31.1820 C.ar      1 NAP602      0.0000 
     43 C5N       -21.7110  -80.3010   30.8530 C.ar      1 NAP602      0.0000 
     44 C6N       -21.9420  -79.2670   31.7570 C.ar      1 NAP602      0.0000 
     45 P2B       -11.3030  -70.6890   35.1400 P.3       1 NAP602      0.0000 
     46 O1X       -10.8880  -71.0400   36.5650 O.co2     1 NAP602      0.0000 
     47 O2X       -10.0720  -70.0470   34.5020 O.co2     1 NAP602      0.0000 
     48 O3X       -12.5880  -69.8800   34.8820 O.co2     1 NAP602      0.0000 
@<TRIPOS>BOND
     1    1    2 ar   
     2    1    3 ar   
     3    1    4 1    
     4    1   23 1    
     5    4    5 1    
     6    5    6 1    
     7    6    7 1    
     8    6    8 1    
     9    7   12 1    
    10    8    9 1    
    11    8   10 1    
    12   10   11 1    
    13   10   12 1    
    14   11   45 1    
    15   12   13 1    
    16   13   14 1    
    17   13   22 1    
    18   14   15 2    
    19   15   16 1    
    20   16   17 ar   
    21   16   22 ar   
    22   17   18 1    
    23   17   19 ar   
    24   19   20 ar   
    25   20   21 ar   
    26   21   22 ar   
    27   23   24 1    
    28   24   25 ar   
    29   24   26 ar   
    30   24   27 1    
    31   27   28 1    
    32   28   29 1    
    33   29   30 1    
    34   29   31 1    
    35   30   35 1    
    36   31   32 1    
    37   31   33 1    
    38   33   34 1    
    39   33   35 1    
    40   35   36 1    
    41   36   37 ar   
    42   36   44 ar   
    43   37   38 ar   
    44   38   39 1    
    45   38   42 ar   
    46   39   40 2    
    47   39   41 am   
    48   42   43 ar   
    49   43   44 ar   
    50   45   46 ar   
    51   45   47 ar   
    52   45   48 ar   
@<TRIPOS>SUBSTRUCTURE
     1 NAP602      1 GROUP   
@<TRIPOS>SET
ATOM$ORANGE STATIC     ATOMS   COLORGROUP SYSTEM 
42 5 5 6 6 8 8 10 10 12 12 14 14 16 16 17 17 20 \
20 22 22 28 28 29 29 31 31 33 33 35 35 37 37 38 38 39 \
39 42 42 43 43 44 44 

