#    Name: 6sf0_2_NAP
#    Modification time : Fri May 22 19:36:08 2020

@<TRIPOS>MOLECULE
6sf0_2_NAP
   48    52     1     0     1
SMALL
NO_CHARGES


@<TRIPOS>ATOM
      1 PA        -90.5450  -41.3390   29.4220 P.3       1 NAP602      0.0000 
      2 O1A       -89.7830  -42.5030   28.8280 O.co2     1 NAP602      0.0000 
      3 O2A       -89.8330  -40.3200   30.2870 O.co2     1 NAP602      0.0000 
      4 O5B       -91.7650  -41.9870   30.2660 O.3       1 NAP602      0.0000 
      5 C5B       -92.9530  -42.4130   29.6010 C.3       1 NAP602      0.0000 
      6 C4B       -94.1420  -41.8020   30.3120 C.3       1 NAP602      0.0000 
      7 O4B       -95.3530  -42.0440   29.5830 O.3       1 NAP602      0.0000 
      8 C3B       -94.2810  -42.4180   31.6950 C.3       1 NAP602      0.0000 
      9 O3B       -94.6130  -41.4200   32.6580 O.3       1 NAP602      0.0000 
     10 C2B       -95.4200  -43.3860   31.5080 C.3       1 NAP602      0.0000 
     11 O2B       -96.1240  -43.7670   32.7240 O.3       1 NAP602      0.0000 
     12 C1B       -96.2690  -42.6370   30.4810 C.3       1 NAP602      0.0000 
     13 N9A       -97.1240  -43.6960   29.9440 N.pl3     1 NAP602      0.0000 
     14 C8A       -96.7910  -44.6840   29.0770 C.2       1 NAP602      0.0000 
     15 N7A       -97.8450  -45.5180   28.9240 N.2       1 NAP602      0.0000 
     16 C5A       -98.8520  -45.0440   29.7220 C.ar      1 NAP602      0.0000 
     17 C6A      -100.2580  -45.3990   30.0740 C.ar      1 NAP602      0.0000 
     18 N6A      -100.8100  -46.4800   29.4890 N.pl3     1 NAP602      0.0000 
     19 N1A      -100.9580  -44.6320   30.9700 N.ar      1 NAP602      0.0000 
     20 C2A      -100.4440  -43.5410   31.5640 C.ar      1 NAP602      0.0000 
     21 N3A       -99.1840  -43.1480   31.2980 N.ar      1 NAP602      0.0000 
     22 C4A       -98.3650  -43.8410   30.4120 C.ar      1 NAP602      0.0000 
     23 O3        -91.1550  -40.4710   28.1890 O.3       1 NAP602      0.0000 
     24 PN        -90.2410  -39.4070   27.3700 P.3       1 NAP602      0.0000 
     25 O1N       -90.4220  -38.0810   28.0800 O.co2     1 NAP602      0.0000 
     26 O2N       -90.5840  -39.4610   25.9050 O.co2     1 NAP602      0.0000 
     27 O5D       -88.7360  -39.9890   27.5390 O.3       1 NAP602      0.0000 
     28 C5D       -87.6490  -39.5200   26.7250 C.3       1 NAP602      0.0000 
     29 C4D       -86.3150  -39.2070   27.4670 C.3       1 NAP602      0.0000 
     30 O4D       -85.7860  -37.9340   27.0570 O.3       1 NAP602      0.0000 
     31 C3D       -86.3220  -39.1300   29.0010 C.3       1 NAP602      0.0000 
     32 O3D       -85.0790  -39.6000   29.5400 O.3       1 NAP602      0.0000 
     33 C2D       -86.4480  -37.6570   29.3300 C.3       1 NAP602      0.0000 
     34 O2D       -85.8990  -37.2810   30.5950 O.3       1 NAP602      0.0000 
     35 C1D       -85.6660  -37.0580   28.1890 C.3       1 NAP602      0.0000 
     36 N1N       -86.2200  -35.7460   27.9120 N.pl3     1 NAP602      0.0000 
     37 C2N       -85.6220  -34.6630   28.4380 C.ar      1 NAP602      0.0000 
     38 C3N       -86.1330  -33.3850   28.1780 C.ar      1 NAP602      0.0000 
     39 C7N       -85.4860  -32.1610   28.7500 C.2       1 NAP602      0.0000 
     40 O7N       -86.1210  -31.1370   28.9450 O.2       1 NAP602      0.0000 
     41 N7N       -84.2000  -32.2210   29.0170 N.am      1 NAP602      0.0000 
     42 C4N       -87.2690  -33.2510   27.3660 C.ar      1 NAP602      0.0000 
     43 C5N       -87.8620  -34.4000   26.8470 C.ar      1 NAP602      0.0000 
     44 C6N       -87.3050  -35.6420   27.1370 C.ar      1 NAP602      0.0000 
     45 P2B       -95.9930  -45.2560   33.4170 P.3       1 NAP602      0.0000 
     46 O1X       -96.2940  -45.0950   34.9070 O.co2     1 NAP602      0.0000 
     47 O2X       -97.0480  -46.1520   32.7570 O.co2     1 NAP602      0.0000 
     48 O3X       -94.5250  -45.5560   33.0830 O.co2     1 NAP602      0.0000 
@<TRIPOS>BOND
     1    1    2 ar   
     2    1    3 ar   
     3    1    4 1    
     4    1   23 1    
     5    4    5 1    
     6    5    6 1    
     7    6    7 1    
     8    6    8 1    
     9    7   12 1    
    10    8    9 1    
    11    8   10 1    
    12   10   11 1    
    13   10   12 1    
    14   11   45 1    
    15   12   13 1    
    16   13   14 1    
    17   13   22 1    
    18   14   15 2    
    19   15   16 1    
    20   16   17 ar   
    21   16   22 ar   
    22   17   18 1    
    23   17   19 ar   
    24   19   20 ar   
    25   20   21 ar   
    26   21   22 ar   
    27   23   24 1    
    28   24   25 ar   
    29   24   26 ar   
    30   24   27 1    
    31   27   28 1    
    32   28   29 1    
    33   29   30 1    
    34   29   31 1    
    35   30   35 1    
    36   31   32 1    
    37   31   33 1    
    38   33   34 1    
    39   33   35 1    
    40   35   36 1    
    41   36   37 ar   
    42   36   44 ar   
    43   37   38 ar   
    44   38   39 1    
    45   38   42 ar   
    46   39   40 2    
    47   39   41 am   
    48   42   43 ar   
    49   43   44 ar   
    50   45   46 ar   
    51   45   47 ar   
    52   45   48 ar   
@<TRIPOS>SUBSTRUCTURE
     1 NAP602      1 GROUP   
@<TRIPOS>SET
ATOM$ORANGE STATIC     ATOMS   COLORGROUP SYSTEM 
42 5 5 6 6 8 8 10 10 12 12 14 14 16 16 17 17 20 \
20 22 22 28 28 29 29 31 31 33 33 35 35 37 37 38 38 39 \
39 42 42 43 43 44 44 

