#    Name: 6sf0_8_NAP
#    Modification time : Fri May 22 19:36:46 2020

@<TRIPOS>MOLECULE
6sf0_8_NAP
   48    52     1     0     1
SMALL
NO_CHARGES


@<TRIPOS>ATOM
      1 PA        -30.4690  -23.4260   31.7820 P.3       1 NAP602      0.0000 
      2 O1A       -31.8420  -23.3570   31.1490 O.co2     1 NAP602      0.0000 
      3 O2A       -29.2900  -22.7740   31.0910 O.co2     1 NAP602      0.0000 
      4 O5B       -30.1090  -24.9720   31.9880 O.3       1 NAP602      0.0000 
      5 C5B       -31.0340  -25.9370   32.4380 C.3       1 NAP602      0.0000 
      6 C4B       -30.6400  -27.3450   31.9760 C.3       1 NAP602      0.0000 
      7 O4B       -31.6420  -28.2810   32.4540 O.3       1 NAP602      0.0000 
      8 C3B       -30.5410  -27.4880   30.4520 C.3       1 NAP602      0.0000 
      9 O3B       -29.3280  -28.1240   30.0120 O.3       1 NAP602      0.0000 
     10 C2B       -31.7680  -28.3470   30.2120 C.3       1 NAP602      0.0000 
     11 O2B       -31.7480  -29.1620   29.0640 O.3       1 NAP602      0.0000 
     12 C1B       -31.8350  -29.2350   31.4270 C.3       1 NAP602      0.0000 
     13 N9A       -33.1010  -30.0050   31.3940 N.pl3     1 NAP602      0.0000 
     14 C8A       -34.3300  -29.4810   31.3550 C.2       1 NAP602      0.0000 
     15 N7A       -35.2510  -30.4750   31.2930 N.2       1 NAP602      0.0000 
     16 C5A       -34.6030  -31.6560   31.2930 C.ar      1 NAP602      0.0000 
     17 C6A       -34.9960  -33.0780   31.2360 C.ar      1 NAP602      0.0000 
     18 N6A       -36.3140  -33.3810   31.1860 N.pl3     1 NAP602      0.0000 
     19 N1A       -34.0240  -34.0280   31.2460 N.ar      1 NAP602      0.0000 
     20 C2A       -32.7080  -33.7010   31.3130 C.ar      1 NAP602      0.0000 
     21 N3A       -32.2900  -32.4080   31.3630 N.ar      1 NAP602      0.0000 
     22 C4A       -33.1770  -31.3510   31.3530 C.ar      1 NAP602      0.0000 
     23 O3        -30.4960  -22.8250   33.2910 O.3       1 NAP602      0.0000 
     24 PN        -29.1730  -22.4750   34.1580 P.3       1 NAP602      0.0000 
     25 O1N       -28.3590  -23.7340   34.2040 O.co2     1 NAP602      0.0000 
     26 O2N       -29.5710  -21.9600   35.5140 O.co2     1 NAP602      0.0000 
     27 O5D       -28.4180  -21.3500   33.2960 O.3       1 NAP602      0.0000 
     28 C5D       -29.2630  -20.2800   32.9060 C.3       1 NAP602      0.0000 
     29 C4D       -28.4370  -19.0820   32.5110 C.3       1 NAP602      0.0000 
     30 O4D       -27.6440  -18.6280   33.6090 O.3       1 NAP602      0.0000 
     31 C3D       -27.5010  -19.3880   31.3500 C.3       1 NAP602      0.0000 
     32 O3D       -27.9300  -18.6550   30.1920 O.3       1 NAP602      0.0000 
     33 C2D       -26.1310  -18.9110   31.7720 C.3       1 NAP602      0.0000 
     34 O2D       -25.6600  -17.9070   30.8510 O.3       1 NAP602      0.0000 
     35 C1D       -26.3090  -18.3100   33.1650 C.3       1 NAP602      0.0000 
     36 N1N       -25.2900  -18.7960   34.1080 N.pl3     1 NAP602      0.0000 
     37 C2N       -24.0300  -18.3060   34.0800 C.ar      1 NAP602      0.0000 
     38 C3N       -23.0440  -18.7480   34.9770 C.ar      1 NAP602      0.0000 
     39 C7N       -21.6120  -18.2680   35.0030 C.2       1 NAP602      0.0000 
     40 O7N       -20.7570  -19.0740   35.3360 O.2       1 NAP602      0.0000 
     41 N7N       -21.2800  -17.0180   34.6590 N.am      1 NAP602      0.0000 
     42 C4N       -23.4060  -19.7090   35.8920 C.ar      1 NAP602      0.0000 
     43 C5N       -24.7050  -20.2050   35.8950 C.ar      1 NAP602      0.0000 
     44 C6N       -25.6320  -19.7310   34.9900 C.ar      1 NAP602      0.0000 
     45 P2B       -32.8560  -28.9230   27.9330 P.3       1 NAP602      0.0000 
     46 O1X       -32.3750  -27.6110   27.2800 O.co2     1 NAP602      0.0000 
     47 O2X       -32.7390  -30.2500   27.1600 O.co2     1 NAP602      0.0000 
     48 O3X       -34.1750  -28.6760   28.6620 O.co2     1 NAP602      0.0000 
@<TRIPOS>BOND
     1    1    2 ar   
     2    1    3 ar   
     3    1    4 1    
     4    1   23 1    
     5    4    5 1    
     6    5    6 1    
     7    6    7 1    
     8    6    8 1    
     9    7   12 1    
    10    8    9 1    
    11    8   10 1    
    12   10   11 1    
    13   10   12 1    
    14   11   45 1    
    15   12   13 1    
    16   13   14 1    
    17   13   22 1    
    18   14   15 2    
    19   15   16 1    
    20   16   17 ar   
    21   16   22 ar   
    22   17   18 1    
    23   17   19 ar   
    24   19   20 ar   
    25   20   21 ar   
    26   21   22 ar   
    27   23   24 1    
    28   24   25 ar   
    29   24   26 ar   
    30   24   27 1    
    31   27   28 1    
    32   28   29 1    
    33   29   30 1    
    34   29   31 1    
    35   30   35 1    
    36   31   32 1    
    37   31   33 1    
    38   33   34 1    
    39   33   35 1    
    40   35   36 1    
    41   36   37 ar   
    42   36   44 ar   
    43   37   38 ar   
    44   38   39 1    
    45   38   42 ar   
    46   39   40 2    
    47   39   41 am   
    48   42   43 ar   
    49   43   44 ar   
    50   45   46 ar   
    51   45   47 ar   
    52   45   48 ar   
@<TRIPOS>SUBSTRUCTURE
     1 NAP602      1 GROUP   
@<TRIPOS>SET
ATOM$ORANGE STATIC     ATOMS   COLORGROUP SYSTEM 
42 5 5 6 6 8 8 10 10 12 12 14 14 16 16 17 17 20 \
20 22 22 28 28 29 29 31 31 33 33 35 35 37 37 38 38 39 \
39 42 42 43 43 44 44 

