#    Name: 6sf0_7_FAD
#    Modification time : Fri May 22 19:36:39 2020

@<TRIPOS>MOLECULE
6sf0_7_FAD
   53    58     1     0     1
SMALL
NO_CHARGES


@<TRIPOS>ATOM
      1 PA        -31.9260   -8.9450   38.3480 P.3       1 FAD601      0.0000 
      2 O1A       -30.4870   -8.3940   38.4710 O.co2     1 FAD601      0.0000 
      3 O2A       -32.4010  -10.3280   38.8880 O.co2     1 FAD601      0.0000 
      4 O5B       -32.9310   -7.8380   38.9980 O.3       1 FAD601      0.0000 
      5 C5B       -33.9180   -8.1210   40.0160 C.3       1 FAD601      0.0000 
      6 C4B       -34.2080   -6.8770   40.8830 C.3       1 FAD601      0.0000 
      7 O4B       -35.5240   -6.3710   40.6310 O.3       1 FAD601      0.0000 
      8 C3B       -34.1440   -7.1800   42.3860 C.3       1 FAD601      0.0000 
      9 O3B       -33.4980   -6.1230   43.1090 O.3       1 FAD601      0.0000 
     10 C2B       -35.5930   -7.3610   42.7920 C.3       1 FAD601      0.0000 
     11 O2B       -35.9300   -7.0360   44.1420 O.3       1 FAD601      0.0000 
     12 C1B       -36.2810   -6.4000   41.8580 C.3       1 FAD601      0.0000 
     13 N9A       -37.7060   -6.7870   41.6960 N.pl3     1 FAD601      0.0000 
     14 C8A       -38.2160   -8.0000   41.4370 C.2       1 FAD601      0.0000 
     15 N7A       -39.5700   -7.9380   41.3620 N.2       1 FAD601      0.0000 
     16 C5A       -39.9350   -6.6630   41.5790 C.ar      1 FAD601      0.0000 
     17 C6A       -41.1880   -5.8700   41.6400 C.ar      1 FAD601      0.0000 
     18 N6A       -42.3930   -6.4300   41.4570 N.pl3     1 FAD601      0.0000 
     19 N1A       -41.1150   -4.5500   41.8930 N.ar      1 FAD601      0.0000 
     20 C2A       -39.9430   -3.9240   42.0860 C.ar      1 FAD601      0.0000 
     21 N3A       -38.7790   -4.5900   42.0460 N.ar      1 FAD601      0.0000 
     22 C4A       -38.7030   -5.9200   41.8040 C.ar      1 FAD601      0.0000 
     23 N1        -24.8580  -12.4290   31.9390 N.2       1 FAD601      0.0000 
     24 C2        -23.7690  -11.8380   31.4070 C.2       1 FAD601      0.0000 
     25 O2        -23.9240  -11.0030   30.4870 O.2       1 FAD601      0.0000 
     26 N3        -22.5320  -12.1270   31.8450 N.am      1 FAD601      0.0000 
     27 C4        -22.3130  -13.0100   32.8360 C.2       1 FAD601      0.0000 
     28 O4        -21.1470  -13.2510   33.2070 O.2       1 FAD601      0.0000 
     29 C4X       -23.4670  -13.7050   33.4690 C.2       1 FAD601      0.0000 
     30 N5        -23.3410  -14.6130   34.4680 N.2       1 FAD601      0.0000 
     31 C5X       -24.4250  -15.2030   35.0240 C.ar      1 FAD601      0.0000 
     32 C6        -24.2420  -16.1250   36.0540 C.ar      1 FAD601      0.0000 
     33 C7        -25.3360  -16.7650   36.6320 C.ar      1 FAD601      0.0000 
     34 C7M       -25.1120  -17.7490   37.7460 C.3       1 FAD601      0.0000 
     35 C8        -26.7130  -16.4490   36.1580 C.ar      1 FAD601      0.0000 
     36 C8M       -27.9210  -17.1100   36.7600 C.3       1 FAD601      0.0000 
     37 C9        -26.8950  -15.5260   35.1350 C.ar      1 FAD601      0.0000 
     38 C9A       -25.8050  -14.8800   34.5350 C.ar      1 FAD601      0.0000 
     39 N10       -25.9570  -13.9350   33.4730 N.pl3     1 FAD601      0.0000 
     40 C10       -24.7930  -13.3410   32.9370 C.2       1 FAD601      0.0000 
     41 C1'       -27.2590  -13.4920   32.9210 C.3       1 FAD601      0.0000 
     42 C2'       -27.5330  -12.0240   33.3760 C.3       1 FAD601      0.0000 
     43 O2'       -26.3440  -11.2900   33.7550 O.3       1 FAD601      0.0000 
     44 C3'       -28.4590  -11.8840   34.5750 C.3       1 FAD601      0.0000 
     45 O3'       -29.6590  -12.5930   34.2430 O.3       1 FAD601      0.0000 
     46 C4'       -28.6510  -10.3860   34.9230 C.3       1 FAD601      0.0000 
     47 O4'       -28.0640  -10.0890   36.1960 O.3       1 FAD601      0.0000 
     48 C5'       -30.1180   -9.9270   34.9430 C.3       1 FAD601      0.0000 
     49 O5'       -30.3030   -8.5640   35.3740 O.3       1 FAD601      0.0000 
     50 P         -31.8030   -8.0090   35.5570 P.3       1 FAD601      0.0000 
     51 O1P       -31.7760   -6.5970   36.0620 O.co2     1 FAD601      0.0000 
     52 O2P       -32.5820   -8.3070   34.2900 O.co2     1 FAD601      0.0000 
     53 O3P       -32.3520   -8.9260   36.7720 O.3       1 FAD601      0.0000 
@<TRIPOS>BOND
     1    1    2 ar   
     2    1    3 ar   
     3    1    4 1    
     4    1   53 1    
     5    4    5 1    
     6    5    6 1    
     7    6    7 1    
     8    6    8 1    
     9    7   12 1    
    10    8    9 1    
    11    8   10 1    
    12   10   11 1    
    13   10   12 1    
    14   12   13 1    
    15   13   14 1    
    16   13   22 1    
    17   14   15 2    
    18   15   16 1    
    19   16   17 ar   
    20   16   22 ar   
    21   17   18 1    
    22   17   19 ar   
    23   19   20 ar   
    24   20   21 ar   
    25   21   22 ar   
    26   23   24 1    
    27   23   40 2    
    28   24   25 2    
    29   24   26 am   
    30   26   27 am   
    31   27   28 2    
    32   27   29 1    
    33   29   30 2    
    34   29   40 1    
    35   30   31 1    
    36   31   32 ar   
    37   31   38 ar   
    38   32   33 ar   
    39   33   34 1    
    40   33   35 ar   
    41   35   36 1    
    42   35   37 ar   
    43   37   38 ar   
    44   38   39 1    
    45   39   40 1    
    46   39   41 1    
    47   41   42 1    
    48   42   43 1    
    49   42   44 1    
    50   44   45 1    
    51   44   46 1    
    52   46   47 1    
    53   46   48 1    
    54   48   49 1    
    55   49   50 1    
    56   50   51 ar   
    57   50   52 ar   
    58   50   53 1    
@<TRIPOS>SUBSTRUCTURE
     1 FAD601      1 GROUP   
@<TRIPOS>SET
ATOM$ORANGE STATIC     ATOMS   COLORGROUP SYSTEM 
54 5 5 6 6 8 8 10 10 12 12 14 14 16 16 17 17 20 \
20 22 22 24 24 27 27 29 29 31 31 32 32 33 33 34 34 35 \
35 36 36 37 37 38 38 40 40 41 41 42 42 44 44 46 46 48 \
48 

