#    Name: 6sf0_1_FAD
#    Modification time : Fri May 22 19:36:01 2020

@<TRIPOS>MOLECULE
6sf0_1_FAD
   53    58     1     0     1
SMALL
NO_CHARGES


@<TRIPOS>ATOM
      1 PA        -77.7520  -40.9740   20.0670 P.3       1 FAD601      0.0000 
      2 O1A       -77.2020  -39.5330   20.1710 O.co2     1 FAD601      0.0000 
      3 O2A       -79.2240  -41.3060   19.7800 O.co2     1 FAD601      0.0000 
      4 O5B       -76.8260  -41.8270   19.0410 O.3       1 FAD601      0.0000 
      5 C5B       -77.2830  -42.2780   17.7660 C.3       1 FAD601      0.0000 
      6 C4B       -76.1730  -42.0920   16.7370 C.3       1 FAD601      0.0000 
      7 O4B       -75.6860  -43.3860   16.4130 O.3       1 FAD601      0.0000 
      8 C3B       -76.6440  -41.4390   15.4260 C.3       1 FAD601      0.0000 
      9 O3B       -75.7120  -40.4860   14.8550 O.3       1 FAD601      0.0000 
     10 C2B       -76.8410  -42.6200   14.5010 C.3       1 FAD601      0.0000 
     11 O2B       -76.6440  -42.3110   13.1200 O.3       1 FAD601      0.0000 
     12 C1B       -75.7520  -43.5320   14.9900 C.3       1 FAD601      0.0000 
     13 N9A       -76.0040  -44.9260   14.6170 N.pl3     1 FAD601      0.0000 
     14 C8A       -76.9530  -45.7200   15.1500 C.2       1 FAD601      0.0000 
     15 N7A       -76.8750  -46.9580   14.6020 N.2       1 FAD601      0.0000 
     16 C5A       -75.8620  -46.9440   13.7030 C.ar      1 FAD601      0.0000 
     17 C6A       -75.2430  -47.9330   12.7710 C.ar      1 FAD601      0.0000 
     18 N6A       -75.7580  -49.2060   12.7240 N.pl3     1 FAD601      0.0000 
     19 N1A       -74.1840  -47.5000   11.9990 N.ar      1 FAD601      0.0000 
     20 C2A       -73.6910  -46.2310   12.0630 C.ar      1 FAD601      0.0000 
     21 N3A       -74.2110  -45.2920   12.8880 N.ar      1 FAD601      0.0000 
     22 C4A       -75.2740  -45.5890   13.7110 C.ar      1 FAD601      0.0000 
     23 N1        -79.5130  -36.2850   28.6810 N.2       1 FAD601      0.0000 
     24 C2        -78.8480  -35.4170   29.4810 C.2       1 FAD601      0.0000 
     25 O2        -77.8490  -35.8440   30.1010 O.2       1 FAD601      0.0000 
     26 N3        -79.2040  -34.1300   29.6430 N.am      1 FAD601      0.0000 
     27 C4        -80.2460  -33.6080   29.0080 C.2       1 FAD601      0.0000 
     28 O4        -80.5060  -32.3980   29.2170 O.2       1 FAD601      0.0000 
     29 C4X       -81.0400  -34.5020   28.0980 C.2       1 FAD601      0.0000 
     30 N5        -82.1260  -34.0910   27.3990 N.2       1 FAD601      0.0000 
     31 C5X       -82.8200  -34.9150   26.5710 C.ar      1 FAD601      0.0000 
     32 C6        -83.9230  -34.3860   25.8920 C.ar      1 FAD601      0.0000 
     33 C7        -84.6880  -35.1770   25.0370 C.ar      1 FAD601      0.0000 
     34 C7M       -85.8760  -34.5970   24.3040 C.3       1 FAD601      0.0000 
     35 C8        -84.3110  -36.6070   24.8510 C.ar      1 FAD601      0.0000 
     36 C8M       -85.1480  -37.4480   23.9270 C.3       1 FAD601      0.0000 
     37 C9        -83.2060  -37.1550   25.5300 C.ar      1 FAD601      0.0000 
     38 C9A       -82.4230  -36.3620   26.3980 C.ar      1 FAD601      0.0000 
     39 N10       -81.2770  -36.8460   27.1300 N.pl3     1 FAD601      0.0000 
     40 C10       -80.5940  -35.9160   27.9690 C.2       1 FAD601      0.0000 
     41 C1'       -80.7460  -38.2360   27.0610 C.3       1 FAD601      0.0000 
     42 C2'       -79.3580  -38.2250   26.3870 C.3       1 FAD601      0.0000 
     43 O2'       -78.8380  -36.8830   26.3300 O.3       1 FAD601      0.0000 
     44 C3'       -79.3590  -38.7870   24.9630 C.3       1 FAD601      0.0000 
     45 O3'       -79.7510  -40.1600   25.1140 O.3       1 FAD601      0.0000 
     46 C4'       -78.0060  -38.6400   24.2100 C.3       1 FAD601      0.0000 
     47 O4'       -78.0430  -37.9680   22.9380 O.3       1 FAD601      0.0000 
     48 C5'       -77.4160  -40.0090   23.9250 C.3       1 FAD601      0.0000 
     49 O5'       -76.4520  -40.0020   22.8680 O.3       1 FAD601      0.0000 
     50 P         -76.1250  -41.4940   22.3670 P.3       1 FAD601      0.0000 
     51 O1P       -74.8090  -41.4910   21.5930 O.co2     1 FAD601      0.0000 
     52 O2P       -76.3830  -42.4440   23.5270 O.co2     1 FAD601      0.0000 
     53 O3P       -77.4250  -41.7540   21.4420 O.3       1 FAD601      0.0000 
@<TRIPOS>BOND
     1    1    2 ar   
     2    1    3 ar   
     3    1    4 1    
     4    1   53 1    
     5    4    5 1    
     6    5    6 1    
     7    6    7 1    
     8    6    8 1    
     9    7   12 1    
    10    8    9 1    
    11    8   10 1    
    12   10   11 1    
    13   10   12 1    
    14   12   13 1    
    15   13   14 1    
    16   13   22 1    
    17   14   15 2    
    18   15   16 1    
    19   16   17 ar   
    20   16   22 ar   
    21   17   18 1    
    22   17   19 ar   
    23   19   20 ar   
    24   20   21 ar   
    25   21   22 ar   
    26   23   24 1    
    27   23   40 2    
    28   24   25 2    
    29   24   26 am   
    30   26   27 am   
    31   27   28 2    
    32   27   29 1    
    33   29   30 2    
    34   29   40 1    
    35   30   31 1    
    36   31   32 ar   
    37   31   38 ar   
    38   32   33 ar   
    39   33   34 1    
    40   33   35 ar   
    41   35   36 1    
    42   35   37 ar   
    43   37   38 ar   
    44   38   39 1    
    45   39   40 1    
    46   39   41 1    
    47   41   42 1    
    48   42   43 1    
    49   42   44 1    
    50   44   45 1    
    51   44   46 1    
    52   46   47 1    
    53   46   48 1    
    54   48   49 1    
    55   49   50 1    
    56   50   51 ar   
    57   50   52 ar   
    58   50   53 1    
@<TRIPOS>SUBSTRUCTURE
     1 FAD601      1 GROUP   
@<TRIPOS>SET
ATOM$ORANGE STATIC     ATOMS   COLORGROUP SYSTEM 
54 5 5 6 6 8 8 10 10 12 12 14 14 16 16 17 17 20 \
20 22 22 24 24 27 27 29 29 31 31 32 32 33 33 34 34 35 \
35 36 36 37 37 38 38 40 40 41 41 42 42 44 44 46 46 48 \
48 

