#    Name: 6sf0_3_FAD
#    Modification time : Fri May 22 19:36:14 2020

@<TRIPOS>MOLECULE
6sf0_3_FAD
   53    58     1     0     1
SMALL
NO_CHARGES


@<TRIPOS>ATOM
      1 PA          8.0000  -42.1300   49.7440 P.3       1 FAD601      0.0000 
      2 O1A         6.6770  -42.6440   49.1340 O.co2     1 FAD601      0.0000 
      3 O2A         8.1960  -40.8010   50.4930 O.co2     1 FAD601      0.0000 
      4 O5B         8.3810  -43.2470   50.8280 O.3       1 FAD601      0.0000 
      5 C5B         8.8780  -42.9090   52.1300 C.3       1 FAD601      0.0000 
      6 C4B         8.8320  -44.1890   52.9680 C.3       1 FAD601      0.0000 
      7 O4B        10.0870  -44.4220   53.6210 O.3       1 FAD601      0.0000 
      8 C3B         7.7840  -44.0980   54.0680 C.3       1 FAD601      0.0000 
      9 O3B         7.0920  -45.3670   54.1420 O.3       1 FAD601      0.0000 
     10 C2B         8.6480  -43.6840   55.2610 C.3       1 FAD601      0.0000 
     11 O2B         8.0570  -43.8650   56.5530 O.3       1 FAD601      0.0000 
     12 C1B         9.8350  -44.5940   55.0160 C.3       1 FAD601      0.0000 
     13 N9A        11.0190  -44.3160   55.8650 N.pl3     1 FAD601      0.0000 
     14 C8A        11.6510  -43.1330   56.0160 C.2       1 FAD601      0.0000 
     15 N7A        12.7030  -43.2480   56.8700 N.2       1 FAD601      0.0000 
     16 C5A        12.7310  -44.5210   57.2730 C.ar      1 FAD601      0.0000 
     17 C6A        13.5870  -45.3030   58.1740 C.ar      1 FAD601      0.0000 
     18 N6A        14.6270  -44.7000   58.8130 N.pl3     1 FAD601      0.0000 
     19 N1A        13.2780  -46.6270   58.3060 N.ar      1 FAD601      0.0000 
     20 C2A        12.2380  -47.2300   57.6650 C.ar      1 FAD601      0.0000 
     21 N3A        11.4200  -46.5700   56.8300 N.ar      1 FAD601      0.0000 
     22 C4A        11.6250  -45.2390   56.6070 C.ar      1 FAD601      0.0000 
     23 N1          5.1320  -39.1300   40.7140 N.2       1 FAD601      0.0000 
     24 C2          4.3990  -39.6330   39.6800 C.2       1 FAD601      0.0000 
     25 O2          4.8740  -40.5540   38.9690 O.2       1 FAD601      0.0000 
     26 N3          3.1750  -39.1690   39.3850 N.am      1 FAD601      0.0000 
     27 C4          2.6220  -38.1970   40.1020 C.2       1 FAD601      0.0000 
     28 O4          1.4790  -37.8450   39.7540 O.2       1 FAD601      0.0000 
     29 C4X         3.3790  -37.5910   41.2550 C.2       1 FAD601      0.0000 
     30 N5          2.9010  -36.6070   42.0450 N.2       1 FAD601      0.0000 
     31 C5X         3.5970  -36.1010   43.0800 C.ar      1 FAD601      0.0000 
     32 C6          3.0150  -35.0990   43.8370 C.ar      1 FAD601      0.0000 
     33 C7          3.6880  -34.5220   44.9060 C.ar      1 FAD601      0.0000 
     34 C7M         3.0420  -33.4360   45.7270 C.3       1 FAD601      0.0000 
     35 C8          5.0510  -34.9920   45.2560 C.ar      1 FAD601      0.0000 
     36 C8M         5.7770  -34.3640   46.4180 C.3       1 FAD601      0.0000 
     37 C9          5.6390  -36.0200   44.5040 C.ar      1 FAD601      0.0000 
     38 C9A         4.9600  -36.6010   43.4100 C.ar      1 FAD601      0.0000 
     39 N10         5.5060  -37.6450   42.6100 N.pl3     1 FAD601      0.0000 
     40 C10         4.7160  -38.1370   41.5320 C.2       1 FAD601      0.0000 
     41 C1'         6.8660  -38.2070   42.8560 C.3       1 FAD601      0.0000 
     42 C2'         6.8220  -39.6240   43.4460 C.3       1 FAD601      0.0000 
     43 O2'         5.6010  -40.2870   43.1290 O.3       1 FAD601      0.0000 
     44 C3'         6.8600  -39.6660   44.9460 C.3       1 FAD601      0.0000 
     45 O3'         8.0070  -38.8900   45.3420 O.3       1 FAD601      0.0000 
     46 C4'         6.8320  -41.1510   45.3680 C.3       1 FAD601      0.0000 
     47 O4'         5.6750  -41.4040   46.1730 O.3       1 FAD601      0.0000 
     48 C5'         8.0610  -41.5880   46.1560 C.3       1 FAD601      0.0000 
     49 O5'         7.9430  -42.9130   46.7040 O.3       1 FAD601      0.0000 
     50 P           9.2160  -43.4700   47.5230 P.3       1 FAD601      0.0000 
     51 O1P         8.9430  -44.9100   47.9700 O.co2     1 FAD601      0.0000 
     52 O2P        10.5030  -43.1600   46.7640 O.co2     1 FAD601      0.0000 
     53 O3P         9.1940  -42.3370   48.6770 O.3       1 FAD601      0.0000 
@<TRIPOS>BOND
     1    1    2 ar   
     2    1    3 ar   
     3    1    4 1    
     4    1   53 1    
     5    4    5 1    
     6    5    6 1    
     7    6    7 1    
     8    6    8 1    
     9    7   12 1    
    10    8    9 1    
    11    8   10 1    
    12   10   11 1    
    13   10   12 1    
    14   12   13 1    
    15   13   14 1    
    16   13   22 1    
    17   14   15 2    
    18   15   16 1    
    19   16   17 ar   
    20   16   22 ar   
    21   17   18 1    
    22   17   19 ar   
    23   19   20 ar   
    24   20   21 ar   
    25   21   22 ar   
    26   23   24 1    
    27   23   40 2    
    28   24   25 2    
    29   24   26 am   
    30   26   27 am   
    31   27   28 2    
    32   27   29 1    
    33   29   30 2    
    34   29   40 1    
    35   30   31 1    
    36   31   32 ar   
    37   31   38 ar   
    38   32   33 ar   
    39   33   34 1    
    40   33   35 ar   
    41   35   36 1    
    42   35   37 ar   
    43   37   38 ar   
    44   38   39 1    
    45   39   40 1    
    46   39   41 1    
    47   41   42 1    
    48   42   43 1    
    49   42   44 1    
    50   44   45 1    
    51   44   46 1    
    52   46   47 1    
    53   46   48 1    
    54   48   49 1    
    55   49   50 1    
    56   50   51 ar   
    57   50   52 ar   
    58   50   53 1    
@<TRIPOS>SUBSTRUCTURE
     1 FAD601      1 GROUP   
@<TRIPOS>SET
ATOM$ORANGE STATIC     ATOMS   COLORGROUP SYSTEM 
54 5 5 6 6 8 8 10 10 12 12 14 14 16 16 17 17 20 \
20 22 22 24 24 27 27 29 29 31 31 32 32 33 33 34 34 35 \
35 36 36 37 37 38 38 40 40 41 41 42 42 44 44 46 46 48 \
48 

