#    Name: 6kac_12_NEX
#    Modification time : Fri May 22 19:33:41 2020

@<TRIPOS>MOLECULE
6kac_12_NEX
   44    46     1     0     0
SMALL
NO_CHARGES


@<TRIPOS>ATOM
      1 C1        190.4740  139.3720  224.3390 C.3       1 NEX625      0.0000 
      2 C2        190.3160  140.2890  223.1260 C.3       1 NEX625      0.0000 
      3 C3        189.8490  139.5470  221.8890 C.3       1 NEX625      0.0000 
      4 C4        188.4690  138.9840  222.1830 C.3       1 NEX625      0.0000 
      5 C5        188.5840  137.8970  223.2470 C.3       1 NEX625      0.0000 
      6 C6        189.2440  138.4670  224.4900 C.2       1 NEX625      0.0000 
      7 C7        188.8360  138.2370  225.6670 C.1       1 NEX625      0.0000 
      8 C8        188.3630  137.9070  226.8010 C.2       1 NEX625      0.0000 
      9 C9        187.1360  138.5360  227.2800 C.2       1 NEX625      0.0000 
     10 C10       186.6440  138.2240  228.4850 C.2       1 NEX625      0.0000 
     11 C11       185.4090  138.8240  228.9730 C.2       1 NEX625      0.0000 
     12 C12       185.0570  138.6580  230.2410 C.2       1 NEX625      0.0000 
     13 C13       183.7970  139.2450  230.7250 C.2       1 NEX625      0.0000 
     14 C14       183.2040  138.7180  231.8080 C.2       1 NEX625      0.0000 
     15 C15       181.9470  139.2790  232.2820 C.2       1 NEX625      0.0000 
     16 C16       190.6700  140.2760  225.5540 C.3       1 NEX625      0.0000 
     17 C17       191.7090  138.5130  224.1880 C.3       1 NEX625      0.0000 
     18 C18       187.1760  137.3640  223.5250 C.3       1 NEX625      0.0000 
     19 C19       186.4180  139.5380  226.4130 C.3       1 NEX625      0.0000 
     20 C20       183.1940  140.4120  229.9980 C.3       1 NEX625      0.0000 
     21 O3        189.7670  140.4590  220.7880 O.3       1 NEX625      0.0000 
     22 O4        189.3460  136.8120  222.7090 O.3       1 NEX625      0.0000 
     23 C21       172.7550  135.7970  238.9020 C.3       1 NEX625      0.0000 
     24 C22       172.0290  135.2340  240.1050 C.3       1 NEX625      0.0000 
     25 C23       172.9850  134.9840  241.2450 C.3       1 NEX625      0.0000 
     26 C24       173.3600  136.3570  241.7560 C.3       1 NEX625      0.0000 
     27 C25       174.1780  137.1280  240.7160 C.3       1 NEX625      0.0000 
     28 C26       173.8300  136.8580  239.2340 C.3       1 NEX625      0.0000 
     29 C27       173.8470  138.1020  238.3700 C.2       1 NEX625      0.0000 
     30 C28       174.7750  138.2340  237.4250 C.2       1 NEX625      0.0000 
     31 C29       174.7500  139.4530  236.6030 C.2       1 NEX625      0.0000 
     32 C30       175.7470  139.7960  235.7790 C.2       1 NEX625      0.0000 
     33 C31       176.9540  138.9980  235.6060 C.2       1 NEX625      0.0000 
     34 C32       177.8150  139.4120  234.6840 C.2       1 NEX625      0.0000 
     35 C33       179.0700  138.7060  234.3790 C.2       1 NEX625      0.0000 
     36 C34       179.9480  139.2950  233.5610 C.2       1 NEX625      0.0000 
     37 C35       181.2030  138.6560  233.1880 C.2       1 NEX625      0.0000 
     38 C36       171.6950  136.3490  237.9560 C.3       1 NEX625      0.0000 
     39 C37       173.4550  134.6430  238.1990 C.3       1 NEX625      0.0000 
     40 C38       174.4860  138.5940  241.0440 C.3       1 NEX625      0.0000 
     41 C39       173.5500  140.3350  236.6950 C.3       1 NEX625      0.0000 
     42 C40       179.3560  137.3540  234.9610 C.3       1 NEX625      0.0000 
     43 O23       172.3150  134.2490  242.2680 O.3       1 NEX625      0.0000 
     44 O24       175.0580  136.4280  239.8320 O.3       1 NEX625      0.0000 
@<TRIPOS>BOND
     1    1    2 1    
     2    1    6 1    
     3    1   16 1    
     4    1   17 1    
     5    2    3 1    
     6    3    4 1    
     7    3   21 1    
     8    4    5 1    
     9    5    6 1    
    10    5   18 1    
    11    5   22 1    
    12    6    7 2    
    13    7    8 2    
    14    8    9 1    
    15    9   10 2    
    16    9   19 1    
    17   10   11 1    
    18   11   12 2    
    19   12   13 1    
    20   13   14 2    
    21   13   20 1    
    22   14   15 1    
    23   15   37 2    
    24   23   24 1    
    25   23   28 1    
    26   23   38 1    
    27   23   39 1    
    28   24   25 1    
    29   25   26 1    
    30   25   43 1    
    31   26   27 1    
    32   27   28 1    
    33   27   40 1    
    34   27   44 1    
    35   28   29 1    
    36   28   44 1    
    37   29   30 2    
    38   30   31 1    
    39   31   32 2    
    40   31   41 1    
    41   32   33 1    
    42   33   34 2    
    43   34   35 1    
    44   35   36 2    
    45   35   42 1    
    46   36   37 1    
@<TRIPOS>SUBSTRUCTURE
     1 NEX625      1 GROUP   
@<TRIPOS>SET

