#    Name: 6kac_15_NEX
#    Modification time : Fri May 22 19:33:48 2020

@<TRIPOS>MOLECULE
6kac_15_NEX
   44    46     1     0     0
SMALL
NO_CHARGES


@<TRIPOS>ATOM
      1 C1        132.9560  317.7670  219.1100 C.3       1 NEX1623     0.0000 
      2 C2        132.9050  317.8210  217.5880 C.3       1 NEX1623     0.0000 
      3 C3        134.2790  318.1300  217.0220 C.3       1 NEX1623     0.0000 
      4 C4        135.1520  316.9290  217.3220 C.3       1 NEX1623     0.0000 
      5 C5        135.3940  316.7860  218.8130 C.3       1 NEX1623     0.0000 
      6 C6        134.0920  316.8970  219.6040 C.2       1 NEX1623     0.0000 
      7 C7        133.9790  316.2630  220.6900 C.1       1 NEX1623     0.0000 
      8 C8        133.9020  315.6430  221.7900 C.2       1 NEX1623     0.0000 
      9 C9        133.6400  314.1900  221.8040 C.2       1 NEX1623     0.0000 
     10 C10       133.8640  313.5090  222.9330 C.2       1 NEX1623     0.0000 
     11 C11       133.6300  312.0710  223.0510 C.2       1 NEX1623     0.0000 
     12 C12       134.3100  311.3430  223.9360 C.2       1 NEX1623     0.0000 
     13 C13       134.0450  309.8960  224.0730 C.2       1 NEX1623     0.0000 
     14 C14       134.8990  309.1260  224.7670 C.2       1 NEX1623     0.0000 
     15 C15       134.6090  307.7090  224.9490 C.2       1 NEX1623     0.0000 
     16 C16       131.6040  317.2460  219.6010 C.3       1 NEX1623     0.0000 
     17 C17       133.1570  319.1840  219.6550 C.3       1 NEX1623     0.0000 
     18 C18       136.0870  315.4490  219.0170 C.3       1 NEX1623     0.0000 
     19 C19       133.1670  313.4850  220.5690 C.3       1 NEX1623     0.0000 
     20 C20       132.7980  309.3110  223.4690 C.3       1 NEX1623     0.0000 
     21 O3        134.1940  318.3230  215.6060 O.3       1 NEX1623     0.0000 
     22 O4        136.2730  317.8240  219.2440 O.3       1 NEX1623     0.0000 
     23 C21       139.1740  299.9080  231.8510 C.3       1 NEX1623     0.0000 
     24 C22       139.7110  299.2580  233.1090 C.3       1 NEX1623     0.0000 
     25 C23       139.5920  300.2050  234.2750 C.3       1 NEX1623     0.0000 
     26 C24       138.1220  300.2510  234.6190 C.3       1 NEX1623     0.0000 
     27 C25       137.2490  300.7540  233.4670 C.3       1 NEX1623     0.0000 
     28 C26       137.7810  300.5480  232.0290 C.3       1 NEX1623     0.0000 
     29 C27       136.7030  300.1310  231.0440 C.2       1 NEX1623     0.0000 
     30 C28       136.3080  300.9640  230.0880 C.2       1 NEX1623     0.0000 
     31 C29       135.2720  300.5150  229.1470 C.2       1 NEX1623     0.0000 
     32 C30       134.8300  301.3300  228.1840 C.2       1 NEX1623     0.0000 
     33 C31       135.3370  302.6880  228.0620 C.2       1 NEX1623     0.0000 
     34 C32       135.0980  303.3680  226.9490 C.2       1 NEX1623     0.0000 
     35 C33       135.5840  304.7500  226.8190 C.2       1 NEX1623     0.0000 
     36 C34       134.9170  305.5800  226.0040 C.2       1 NEX1623     0.0000 
     37 C35       135.2880  306.9790  225.8280 C.2       1 NEX1623     0.0000 
     38 C36       139.1760  298.8470  230.7600 C.3       1 NEX1623     0.0000 
     39 C37       140.1410  301.0000  231.4240 C.3       1 NEX1623     0.0000 
     40 C38       135.7440  300.5140  233.6200 C.3       1 NEX1623     0.0000 
     41 C39       134.7290  299.1230  229.2520 C.3       1 NEX1623     0.0000 
     42 C40       136.7930  305.2010  227.5830 C.3       1 NEX1623     0.0000 
     43 O23       140.3140  299.6640  235.3790 O.3       1 NEX1623     0.0000 
     44 O24       137.6940  301.8370  232.6470 O.3       1 NEX1623     0.0000 
@<TRIPOS>BOND
     1    1    2 1    
     2    1    6 1    
     3    1   16 1    
     4    1   17 1    
     5    2    3 1    
     6    3    4 1    
     7    3   21 1    
     8    4    5 1    
     9    5    6 1    
    10    5   18 1    
    11    5   22 1    
    12    6    7 2    
    13    7    8 2    
    14    8    9 1    
    15    9   10 2    
    16    9   19 1    
    17   10   11 1    
    18   11   12 2    
    19   12   13 1    
    20   13   14 2    
    21   13   20 1    
    22   14   15 1    
    23   15   37 2    
    24   23   24 1    
    25   23   28 1    
    26   23   38 1    
    27   23   39 1    
    28   24   25 1    
    29   25   26 1    
    30   25   43 1    
    31   26   27 1    
    32   27   28 1    
    33   27   40 1    
    34   27   44 1    
    35   28   29 1    
    36   28   44 1    
    37   29   30 2    
    38   30   31 1    
    39   31   32 2    
    40   31   41 1    
    41   32   33 1    
    42   33   34 2    
    43   34   35 1    
    44   35   36 2    
    45   35   42 1    
    46   36   37 1    
@<TRIPOS>SUBSTRUCTURE
     1 NEX1623     1 GROUP   
@<TRIPOS>SET

