#    Name: 6kac_38_NEX
#    Modification time : Fri May 22 19:35:17 2020

@<TRIPOS>MOLECULE
6kac_38_NEX
   44    46     1     0     0
SMALL
NO_CHARGES


@<TRIPOS>ATOM
      1 C1        175.6640  121.2650  224.5920 C.3       1 NEX1623     0.0000 
      2 C2        176.1600  121.3730  223.1540 C.3       1 NEX1623     0.0000 
      3 C3        175.5300  122.5380  222.4050 C.3       1 NEX1623     0.0000 
      4 C4        175.9210  123.8300  223.0940 C.3       1 NEX1623     0.0000 
      5 C5        175.3950  123.8890  224.5260 C.3       1 NEX1623     0.0000 
      6 C6        175.8260  122.6160  225.2740 C.2       1 NEX1623     0.0000 
      7 C7        176.2990  122.7290  226.4520 C.1       1 NEX1623     0.0000 
      8 C8        176.7480  122.7970  227.6410 C.2       1 NEX1623     0.0000 
      9 C9        178.1240  122.4300  227.9910 C.2       1 NEX1623     0.0000 
     10 C10       178.5090  122.4250  229.2780 C.2       1 NEX1623     0.0000 
     11 C11       179.8680  122.0330  229.6210 C.2       1 NEX1623     0.0000 
     12 C12       180.4870  122.3920  230.7340 C.2       1 NEX1623     0.0000 
     13 C13       181.8580  121.8840  230.9310 C.2       1 NEX1623     0.0000 
     14 C14       182.7140  122.5160  231.7490 C.2       1 NEX1623     0.0000 
     15 C15       184.0660  122.0010  231.9390 C.2       1 NEX1623     0.0000 
     16 C16       176.4620  120.1560  225.2690 C.3       1 NEX1623     0.0000 
     17 C17       174.2150  120.7990  224.6210 C.3       1 NEX1623     0.0000 
     18 C18       175.9360  125.1690  225.1540 C.3       1 NEX1623     0.0000 
     19 C19       179.1170  122.0750  226.9190 C.3       1 NEX1623     0.0000 
     20 C20       182.2740  120.6360  230.2100 C.3       1 NEX1623     0.0000 
     21 O3        176.0450  122.5670  221.0710 O.3       1 NEX1623     0.0000 
     22 O4        173.9720  123.9960  224.5070 O.3       1 NEX1623     0.0000 
     23 C21       193.6680  125.7240  237.4760 C.3       1 NEX1623     0.0000 
     24 C22       194.4950  126.1330  238.6750 C.3       1 NEX1623     0.0000 
     25 C23       193.6720  126.1300  239.9380 C.3       1 NEX1623     0.0000 
     26 C24       193.4210  124.6800  240.2520 C.3       1 NEX1623     0.0000 
     27 C25       192.5920  123.9890  239.1720 C.3       1 NEX1623     0.0000 
     28 C26       192.7510  124.5100  237.7250 C.3       1 NEX1623     0.0000 
     29 C27       192.7810  123.3880  236.7050 C.2       1 NEX1623     0.0000 
     30 C28       191.7890  123.2380  235.8370 C.2       1 NEX1623     0.0000 
     31 C29       191.8650  122.1270  234.8810 C.2       1 NEX1623     0.0000 
     32 C30       190.8510  121.8670  234.0540 C.2       1 NEX1623     0.0000 
     33 C31       189.6200  122.6440  234.0390 C.2       1 NEX1623     0.0000 
     34 C32       188.6480  122.1900  233.2580 C.2       1 NEX1623     0.0000 
     35 C33       187.3400  122.8470  233.1340 C.2       1 NEX1623     0.0000 
     36 C34       186.2770  122.0860  232.8480 C.2       1 NEX1623     0.0000 
     37 C35       184.9390  122.6470  232.7030 C.2       1 NEX1623     0.0000 
     38 C36       194.6330  125.4610  236.3280 C.3       1 NEX1623     0.0000 
     39 C37       192.7960  126.9030  237.0790 C.3       1 NEX1623     0.0000 
     40 C38       192.4960  122.4660  239.2920 C.3       1 NEX1623     0.0000 
     41 C39       193.0930  121.2720  234.8270 C.3       1 NEX1623     0.0000 
     42 C40       187.2150  124.3260  233.3120 C.3       1 NEX1623     0.0000 
     43 O23       194.4550  126.6870  240.9920 O.3       1 NEX1623     0.0000 
     44 O24       191.5630  124.7070  238.4890 O.3       1 NEX1623     0.0000 
@<TRIPOS>BOND
     1    1    2 1    
     2    1    6 1    
     3    1   16 1    
     4    1   17 1    
     5    2    3 1    
     6    3    4 1    
     7    3   21 1    
     8    4    5 1    
     9    5    6 1    
    10    5   18 1    
    11    5   22 1    
    12    6    7 2    
    13    7    8 2    
    14    8    9 1    
    15    9   10 2    
    16    9   19 1    
    17   10   11 1    
    18   11   12 2    
    19   12   13 1    
    20   13   14 2    
    21   13   20 1    
    22   14   15 1    
    23   15   37 2    
    24   23   24 1    
    25   23   28 1    
    26   23   38 1    
    27   23   39 1    
    28   24   25 1    
    29   25   26 1    
    30   25   43 1    
    31   26   27 1    
    32   27   28 1    
    33   27   40 1    
    34   27   44 1    
    35   28   29 1    
    36   28   44 1    
    37   29   30 2    
    38   30   31 1    
    39   31   32 2    
    40   31   41 1    
    41   32   33 1    
    42   33   34 2    
    43   34   35 1    
    44   35   36 2    
    45   35   42 1    
    46   36   37 1    
@<TRIPOS>SUBSTRUCTURE
     1 NEX1623     1 GROUP   
@<TRIPOS>SET

