#    Name: 6kac_31_NEX
#    Modification time : Fri May 22 19:34:52 2020

@<TRIPOS>MOLECULE
6kac_31_NEX
   44    46     1     0     0
SMALL
NO_CHARGES


@<TRIPOS>ATOM
      1 C1        208.8980  259.9930  224.3430 C.3       1 NEX625      0.0000 
      2 C2        209.0280  259.0760  223.1300 C.3       1 NEX625      0.0000 
      3 C3        209.5030  259.8190  221.8940 C.3       1 NEX625      0.0000 
      4 C4        210.8820  260.3820  222.1950 C.3       1 NEX625      0.0000 
      5 C5        210.7880  261.4630  223.2510 C.3       1 NEX625      0.0000 
      6 C6        210.1020  260.8850  224.5020 C.2       1 NEX625      0.0000 
      7 C7        210.5400  261.1380  225.6570 C.1       1 NEX625      0.0000 
      8 C8        210.9940  261.4400  226.7980 C.2       1 NEX625      0.0000 
      9 C9        212.2360  260.8220  227.2830 C.2       1 NEX625      0.0000 
     10 C10       212.7150  261.1320  228.4940 C.2       1 NEX625      0.0000 
     11 C11       213.9580  260.5350  228.9790 C.2       1 NEX625      0.0000 
     12 C12       214.3050  260.6980  230.2490 C.2       1 NEX625      0.0000 
     13 C13       215.5660  260.1150  230.7320 C.2       1 NEX625      0.0000 
     14 C14       216.1590  260.6400  231.8150 C.2       1 NEX625      0.0000 
     15 C15       217.4170  260.0780  232.2870 C.2       1 NEX625      0.0000 
     16 C16       208.6900  259.0830  225.5580 C.3       1 NEX625      0.0000 
     17 C17       207.6510  260.8540  224.1950 C.3       1 NEX625      0.0000 
     18 C18       212.1830  261.9930  223.5150 C.3       1 NEX625      0.0000 
     19 C19       212.9610  259.8410  226.4160 C.3       1 NEX625      0.0000 
     20 C20       216.1710  258.9480  230.0060 C.3       1 NEX625      0.0000 
     21 O3        209.5770  258.9100  220.7900 O.3       1 NEX625      0.0000 
     22 O4        210.0220  262.5380  222.7200 O.3       1 NEX625      0.0000 
     23 C21       226.6050  263.5620  238.9040 C.3       1 NEX625      0.0000 
     24 C22       227.3300  264.1270  240.1070 C.3       1 NEX625      0.0000 
     25 C23       226.3730  264.3750  241.2470 C.3       1 NEX625      0.0000 
     26 C24       226.0000  263.0010  241.7570 C.3       1 NEX625      0.0000 
     27 C25       225.1830  262.2290  240.7170 C.3       1 NEX625      0.0000 
     28 C26       225.5310  262.5000  239.2350 C.3       1 NEX625      0.0000 
     29 C27       225.5170  261.2560  238.3700 C.2       1 NEX625      0.0000 
     30 C28       224.5890  261.1210  237.4260 C.2       1 NEX625      0.0000 
     31 C29       224.6190  259.9030  236.6030 C.2       1 NEX625      0.0000 
     32 C30       223.6240  259.5570  235.7770 C.2       1 NEX625      0.0000 
     33 C31       222.4160  260.3540  235.6070 C.2       1 NEX625      0.0000 
     34 C32       221.5600  259.9470  234.6780 C.2       1 NEX625      0.0000 
     35 C33       220.3040  260.6530  234.3750 C.2       1 NEX625      0.0000 
     36 C34       219.4260  260.0630  233.5560 C.2       1 NEX625      0.0000 
     37 C35       218.1700  260.7010  233.1840 C.2       1 NEX625      0.0000 
     38 C36       227.6660  263.0120  237.9590 C.3       1 NEX625      0.0000 
     39 C37       225.9040  264.7160  238.2010 C.3       1 NEX625      0.0000 
     40 C38       224.8770  260.7630  241.0440 C.3       1 NEX625      0.0000 
     41 C39       225.8200  259.0230  236.6940 C.3       1 NEX625      0.0000 
     42 C40       220.0160  262.0030  234.9600 C.3       1 NEX625      0.0000 
     43 O23       227.0390  265.1120  242.2700 O.3       1 NEX625      0.0000 
     44 O24       224.3030  262.9280  239.8320 O.3       1 NEX625      0.0000 
@<TRIPOS>BOND
     1    1    2 1    
     2    1    6 1    
     3    1   16 1    
     4    1   17 1    
     5    2    3 1    
     6    3    4 1    
     7    3   21 1    
     8    4    5 1    
     9    5    6 1    
    10    5   18 1    
    11    5   22 1    
    12    6    7 2    
    13    7    8 2    
    14    8    9 1    
    15    9   10 2    
    16    9   19 1    
    17   10   11 1    
    18   11   12 2    
    19   12   13 1    
    20   13   14 2    
    21   13   20 1    
    22   14   15 1    
    23   15   37 2    
    24   23   24 1    
    25   23   28 1    
    26   23   38 1    
    27   23   39 1    
    28   24   25 1    
    29   25   26 1    
    30   25   43 1    
    31   26   27 1    
    32   27   28 1    
    33   27   40 1    
    34   27   44 1    
    35   28   29 1    
    36   28   44 1    
    37   29   30 2    
    38   30   31 1    
    39   31   32 2    
    40   31   41 1    
    41   32   33 1    
    42   33   34 2    
    43   34   35 1    
    44   35   36 2    
    45   35   42 1    
    46   36   37 1    
@<TRIPOS>SUBSTRUCTURE
     1 NEX625      1 GROUP   
@<TRIPOS>SET

