#    Name: 6kac_31_NEX_CAVITY_N1_4
#    Modification time : Fri May 22 19:34:53 2020

@<TRIPOS>MOLECULE
6kac_31_NEX_CAVITY_N1_4
    1     0     1     0     0
SMALL
NO_CHARGES


@<TRIPOS>ATOM
      1 CZ        224.5300  258.1700  232.7800 C.ar      1 PHE5        0.0000 
@<TRIPOS>BOND
@<TRIPOS>SUBSTRUCTURE
     1 PHE5        1 GROUP   
@<TRIPOS>SET

