#    Name: 6kac_19_NEX_CAVITY_N1_6
#    Modification time : Fri May 22 19:34:07 2020

@<TRIPOS>MOLECULE
6kac_19_NEX_CAVITY_N1_6
   21     0     3     0     0
SMALL
NO_CHARGES


@<TRIPOS>ATOM
      1 CZ        204.5800  278.3100  229.8400 C.ar      1 PHE5        0.0000 
      2 CZ        206.5000  279.1500  229.4800 C.ar      1 PHE5        0.0000 
      3 CZ        206.9600  278.6800  230.8300 C.ar      1 PHE5        0.0000 
      4 CZ        214.8000  277.4900  226.0800 C.ar      1 PHE5        0.0000 
      5 CZ        207.1300  280.4800  229.7200 C.ar      1 PHE5        0.0000 
      6 CZ        216.5400  276.5300  226.8300 C.ar      1 PHE5        0.0000 
      7 CA        203.9500  276.9700  229.6000 C.3       2 GLY6        0.0000 
      8 CA        203.3000  278.8100  230.4500 C.3       2 GLY6        0.0000 
      9 CA        205.0400  277.8500  231.1900 C.3       2 GLY6        0.0000 
     10 CA        215.4400  275.6600  225.2300 C.3       2 GLY6        0.0000 
     11 CA        214.1700  276.1600  225.8400 C.3       2 GLY6        0.0000 
     12 CA        212.8900  276.6600  226.4500 C.3       2 GLY6        0.0000 
     13 CA        211.6100  277.1500  227.0500 C.3       2 GLY6        0.0000 
     14 CA        210.3300  277.6500  227.6600 C.3       2 GLY6        0.0000 
     15 CA        209.0500  278.1500  228.2700 C.3       2 GLY6        0.0000 
     16 CA        207.7700  278.6500  228.8700 C.3       2 GLY6        0.0000 
     17 CA        213.5200  277.9900  226.6900 C.3       2 GLY6        0.0000 
     18 CA        208.4100  279.9900  229.1200 C.3       2 GLY6        0.0000 
     19 CA        215.2600  277.0300  227.4300 C.3       2 GLY6        0.0000 
     20 DU        207.1400  277.3100  228.6300 H         3 CUB7        0.0000 
     21 DU        205.8600  277.8100  229.2300 H         3 CUB7        0.0000 
@<TRIPOS>BOND
@<TRIPOS>SUBSTRUCTURE
     1 PHE5        1 GROUP   
     2 GLY6        7 GROUP   
     3 CUB7       20 GROUP   
@<TRIPOS>SET

