#    Name: 6kac_10_NEX_CAVITY_N1_4
#    Modification time : Fri May 22 19:33:29 2020

@<TRIPOS>MOLECULE
6kac_10_NEX_CAVITY_N1_4
    4     0     2     0     0
SMALL
NO_CHARGES


@<TRIPOS>ATOM
      1 CZ        166.0200  298.6500  228.3000 C.ar      1 PHE5        0.0000 
      2 CZ        166.4800  298.1900  229.6500 C.ar      1 PHE5        0.0000 
      3 CZ        167.1100  299.5200  229.9000 C.ar      1 PHE5        0.0000 
      4 CA        166.6600  296.8200  227.4500 C.3       2 GLY6        0.0000 
@<TRIPOS>BOND
@<TRIPOS>SUBSTRUCTURE
     1 PHE5        1 GROUP   
     2 GLY6        4 GROUP   
@<TRIPOS>SET

