#    Name: 6kac_10_NEX_CAVITY_N1_8
#    Modification time : Fri May 22 19:33:29 2020

@<TRIPOS>MOLECULE
6kac_10_NEX_CAVITY_N1_8
   45     0     5     0     0
SMALL
NO_CHARGES


@<TRIPOS>ATOM
      1 N         164.6500  293.7100  222.0600 N.am      1 ALA2        0.0000 
      2 N         165.2800  295.0400  222.3100 N.am      1 ALA2        0.0000 
      3 N         165.9200  296.3800  222.5500 N.am      1 ALA2        0.0000 
      4 N         167.6600  295.4200  223.3000 N.am      1 ALA2        0.0000 
      5 N         166.3800  295.9100  223.9000 N.am      1 ALA2        0.0000 
      6 O         168.7500  299.4600  225.9800 O.2       1 ALA2        0.0000 
      7 NZ        168.1200  294.9500  224.6500 N.4       2 LYS4        0.0000 
      8 NZ        167.4800  296.7800  225.5000 N.4       2 LYS4        0.0000 
      9 NZ        169.3900  297.6200  225.1300 N.4       2 LYS4        0.0000 
     10 CZ        161.0000  290.6600  220.5900 C.ar      3 PHE5        0.0000 
     11 CZ        161.6400  292.0000  220.8300 C.ar      3 PHE5        0.0000 
     12 CZ        160.8200  292.0300  222.7900 C.ar      3 PHE5        0.0000 
     13 CZ        163.5500  292.8400  220.4700 C.ar      3 PHE5        0.0000 
     14 CZ        162.2700  293.3300  221.0800 C.ar      3 PHE5        0.0000 
     15 CZ        162.9100  294.6700  221.3200 C.ar      3 PHE5        0.0000 
     16 CZ        167.9400  296.3200  226.8500 C.ar      3 PHE5        0.0000 
     17 CZ        168.1100  298.1200  225.7400 C.ar      3 PHE5        0.0000 
     18 CZ        167.2900  298.1500  227.7000 C.ar      3 PHE5        0.0000 
     19 CZ        166.0200  298.6500  228.3000 C.ar      3 PHE5        0.0000 
     20 CZ        166.4800  298.1900  229.6500 C.ar      3 PHE5        0.0000 
     21 CZ        167.9300  299.4900  227.9400 C.ar      3 PHE5        0.0000 
     22 CZ        167.1100  299.5200  229.9000 C.ar      3 PHE5        0.0000 
     23 CA        162.4600  291.9600  218.8800 C.3       4 GLY6        0.0000 
     24 CA        161.1800  292.4600  219.4800 C.3       4 GLY6        0.0000 
     25 CA        159.9000  292.9600  220.0900 C.3       4 GLY6        0.0000 
     26 CA        160.5400  294.3000  220.3300 C.3       4 GLY6        0.0000 
     27 CA        162.7300  292.8700  222.4300 C.3       4 GLY6        0.0000 
     28 CA        164.1900  294.1700  220.7100 C.3       4 GLY6        0.0000 
     29 CA        163.3700  294.2000  222.6700 C.3       4 GLY6        0.0000 
     30 CA        166.8400  295.4500  225.2500 C.3       4 GLY6        0.0000 
     31 CA        167.3000  294.9800  226.6000 C.3       4 GLY6        0.0000 
     32 CA        166.6600  296.8200  227.4500 C.3       4 GLY6        0.0000 
     33 CA        166.6500  299.9900  228.5500 C.3       4 GLY6        0.0000 
     34 DU        160.3600  292.5000  221.4400 H         5 CUB7        0.0000 
     35 DU        161.0000  293.8300  221.6800 H         5 CUB7        0.0000 
     36 DU        165.2800  298.2100  223.4000 H         5 CUB7        0.0000 
     37 DU        167.0200  297.2500  224.1500 H         5 CUB7        0.0000 
     38 DU        166.2000  297.2800  226.1000 H         5 CUB7        0.0000 
     39 DU        165.9200  299.5500  223.6500 H         5 CUB7        0.0000 
     40 DU        167.6500  298.5900  224.3900 H         5 CUB7        0.0000 
     41 DU        166.8400  298.6200  226.3500 H         5 CUB7        0.0000 
     42 DU        165.5600  299.1200  226.9500 H         5 CUB7        0.0000 
     43 DU        168.2900  299.9200  224.6300 H         5 CUB7        0.0000 
     44 DU        167.0100  300.4200  225.2400 H         5 CUB7        0.0000 
     45 DU        167.4700  299.9600  226.5900 H         5 CUB7        0.0000 
@<TRIPOS>BOND
@<TRIPOS>SUBSTRUCTURE
     1 ALA2        1 GROUP   
     2 LYS4        7 GROUP   
     3 PHE5       10 GROUP   
     4 GLY6       23 GROUP   
     5 CUB7       34 GROUP   
@<TRIPOS>SET

