#    Name: 6kac_2_PHO
#    Modification time : Fri May 22 19:32:38 2020

@<TRIPOS>MOLECULE
6kac_2_PHO
   64    69     1     0     0
SMALL
NO_CHARGES


@<TRIPOS>ATOM
      1 CHA       158.3810  206.4950  230.7420 C.2       1 PHO409      0.0000 
      2 CHB       156.6530  208.4710  234.7640 C.2       1 PHO409      0.0000 
      3 CHC       161.1970  209.1780  236.4460 C.2       1 PHO409      0.0000 
      4 CHD       163.0320  207.2060  232.3950 C.2       1 PHO409      0.0000 
      5 NA        157.7920  207.6810  232.7510 N.2       1 PHO409      0.0000 
      6 C1A       157.4490  206.9140  231.6140 C.2       1 PHO409      0.0000 
      7 C2A       155.9650  206.6580  231.5890 C.3       1 PHO409      0.0000 
      8 C3A       155.4400  207.6390  232.6640 C.3       1 PHO409      0.0000 
      9 C4A       156.7130  207.9490  233.4390 C.2       1 PHO409      0.0000 
     10 CMA       154.8620  208.8750  232.0380 C.3       1 PHO409      0.0000 
     11 CAA       155.6550  205.2250  231.9160 C.3       1 PHO409      0.0000 
     12 CBA       154.1610  205.0550  231.9520 C.3       1 PHO409      0.0000 
     13 CGA       153.8230  203.6720  232.3770 C.2       1 PHO409      0.0000 
     14 O1A       154.4910  202.8830  233.0430 O.2       1 PHO409      0.0000 
     15 O2A       152.5940  203.3010  231.9260 O.3       1 PHO409      0.0000 
     16 NB        159.0620  208.5880  235.3230 N.pl3     1 PHO409      0.0000 
     17 C1B       157.7120  208.8010  235.5490 C.2       1 PHO409      0.0000 
     18 C2B       157.5880  209.4740  236.8660 C.2       1 PHO409      0.0000 
     19 C3B       158.8640  209.6760  237.3500 C.2       1 PHO409      0.0000 
     20 C4B       159.8390  209.1170  236.3600 C.2       1 PHO409      0.0000 
     21 CMB       156.2560  209.8450  237.3470 C.3       1 PHO409      0.0000 
     22 CAB       159.3650  210.3180  238.5330 C.2       1 PHO409      0.0000 
     23 CBB       158.7300  210.6130  239.6690 C.2       1 PHO409      0.0000 
     24 NC        161.8460  208.1110  234.3500 N.2       1 PHO409      0.0000 
     25 C1C       162.1550  208.7110  235.4790 C.2       1 PHO409      0.0000 
     26 C2C       163.6330  208.8520  235.5720 C.2       1 PHO409      0.0000 
     27 C3C       164.1680  208.2910  234.4290 C.2       1 PHO409      0.0000 
     28 C4C       163.0210  207.8040  233.6220 C.2       1 PHO409      0.0000 
     29 CMC       164.3210  209.5050  236.6750 C.3       1 PHO409      0.0000 
     30 CAC       165.5860  208.2230  234.0390 C.3       1 PHO409      0.0000 
     31 CBC       166.2290  206.8710  233.8230 C.3       1 PHO409      0.0000 
     32 ND        160.5810  206.8040  232.0660 N.pl3     1 PHO409      0.0000 
     33 C1D       161.9160  206.7460  231.6430 C.2       1 PHO409      0.0000 
     34 C2D       161.9210  206.1420  230.3500 C.2       1 PHO409      0.0000 
     35 C3D       160.5820  205.9830  229.9620 C.2       1 PHO409      0.0000 
     36 C4D       159.7850  206.4770  231.0400 C.2       1 PHO409      0.0000 
     37 CMD       163.0950  205.8000  229.5810 C.3       1 PHO409      0.0000 
     38 CAD       159.6980  205.5100  228.9260 C.2       1 PHO409      0.0000 
     39 OBD       159.9510  204.8790  227.9110 O.2       1 PHO409      0.0000 
     40 CBD       158.2630  205.9570  229.3400 C.3       1 PHO409      0.0000 
     41 CGD       157.7850  206.9850  228.3660 C.2       1 PHO409      0.0000 
     42 O1D       157.1830  206.8220  227.3150 O.2       1 PHO409      0.0000 
     43 O2D       158.0800  208.2580  228.7540 O.3       1 PHO409      0.0000 
     44 CED       157.3940  209.3180  228.0860 C.3       1 PHO409      0.0000 
     45 C1        152.0150  202.1260  232.5150 C.3       1 PHO409      0.0000 
     46 C2        151.4150  202.5160  233.8150 C.2       1 PHO409      0.0000 
     47 C3        151.7370  201.9000  234.9580 C.2       1 PHO409      0.0000 
     48 C4        152.7270  200.8030  235.0180 C.3       1 PHO409      0.0000 
     49 C5        151.1190  202.2960  236.2490 C.3       1 PHO409      0.0000 
     50 C6        152.1590  202.8150  237.2230 C.3       1 PHO409      0.0000 
     51 C7        152.2280  202.0100  238.4970 C.3       1 PHO409      0.0000 
     52 C8        153.3040  202.5530  239.4180 C.3       1 PHO409      0.0000 
     53 C9        154.6520  201.9720  239.0700 C.3       1 PHO409      0.0000 
     54 C10       152.9520  202.2310  240.8580 C.3       1 PHO409      0.0000 
     55 C11       151.6460  202.8700  241.2620 C.3       1 PHO409      0.0000 
     56 C12       151.7720  204.3720  241.3440 C.3       1 PHO409      0.0000 
     57 C13       150.4130  205.0400  241.4360 C.3       1 PHO409      0.0000 
     58 C14       149.5720  204.6880  240.2360 C.3       1 PHO409      0.0000 
     59 C15       150.5750  206.5440  241.5170 C.3       1 PHO409      0.0000 
     60 C16       151.1350  206.9730  242.8490 C.3       1 PHO409      0.0000 
     61 C17       151.2490  208.4780  242.9180 C.3       1 PHO409      0.0000 
     62 C18       151.8840  208.9670  244.2060 C.3       1 PHO409      0.0000 
     63 C19       151.9830  210.4720  244.2000 C.3       1 PHO409      0.0000 
     64 C20       153.2550  208.3570  244.3800 C.3       1 PHO409      0.0000 
@<TRIPOS>BOND
     1    1    6 2    
     2    1   36 1    
     3    1   40 1    
     4    2    9 1    
     5    2   17 2    
     6    3   20 2    
     7    3   25 1    
     8    4   28 2    
     9    4   33 1    
    10    5    6 1    
    11    5    9 2    
    12    6    7 1    
    13    7    8 1    
    14    7   11 1    
    15    8    9 1    
    16    8   10 1    
    17   11   12 1    
    18   12   13 1    
    19   13   14 2    
    20   13   15 1    
    21   15   45 1    
    22   16   17 1    
    23   16   20 1    
    24   17   18 1    
    25   18   19 2    
    26   18   21 1    
    27   19   20 1    
    28   19   22 1    
    29   22   23 2    
    30   24   25 2    
    31   24   28 1    
    32   25   26 1    
    33   26   27 2    
    34   26   29 1    
    35   27   28 1    
    36   27   30 1    
    37   30   31 1    
    38   32   33 1    
    39   32   36 1    
    40   33   34 2    
    41   34   35 1    
    42   34   37 1    
    43   35   36 2    
    44   35   38 1    
    45   38   39 2    
    46   38   40 1    
    47   40   41 1    
    48   41   42 2    
    49   41   43 1    
    50   43   44 1    
    51   45   46 1    
    52   46   47 2    
    53   47   48 1    
    54   47   49 1    
    55   49   50 1    
    56   50   51 1    
    57   51   52 1    
    58   52   53 1    
    59   52   54 1    
    60   54   55 1    
    61   55   56 1    
    62   56   57 1    
    63   57   58 1    
    64   57   59 1    
    65   59   60 1    
    66   60   61 1    
    67   61   62 1    
    68   62   63 1    
    69   62   64 1    
@<TRIPOS>SUBSTRUCTURE
     1 PHO409      1 GROUP   
@<TRIPOS>SET

