#    Name: 6kac_36_LUT_CAVITY_N1_4
#    Modification time : Fri May 22 19:35:07 2020

@<TRIPOS>MOLECULE
6kac_36_LUT_CAVITY_N1_4
   55     0     6     0     0
SMALL
NO_CHARGES


@<TRIPOS>ATOM
      1 N         211.5600  110.1500  219.5400 N.am      1 ALA2        0.0000 
      2 N         210.2900  110.6500  220.1500 N.am      1 ALA2        0.0000 
      3 N         212.0200  109.6800  220.8900 N.am      1 ALA2        0.0000 
      4 N         210.7500  110.1800  221.5000 N.am      1 ALA2        0.0000 
      5 N         212.4800  109.2200  222.2400 N.am      1 ALA2        0.0000 
      6 N         210.9200  111.9800  220.3900 N.am      1 ALA2        0.0000 
      7 N         211.3800  111.5200  221.7400 N.am      1 ALA2        0.0000 
      8 N         213.1200  110.5500  222.4900 N.am      1 ALA2        0.0000 
      9 N         213.3000  112.3600  221.3800 N.am      1 ALA2        0.0000 
     10 OD1       212.6600  114.1900  222.2300 O.co2     2 ASP3        0.0000 
     11 OD1       211.8400  114.2200  224.1900 O.co2     2 ASP3        0.0000 
     12 NZ        210.7500  107.0100  220.4000 N.4       3 LYS4        0.0000 
     13 NZ        211.3900  108.3500  220.6500 N.4       3 LYS4        0.0000 
     14 NZ        211.8500  107.8800  222.0000 N.4       3 LYS4        0.0000 
     15 NZ        210.1000  112.0200  222.3500 N.4       3 LYS4        0.0000 
     16 NZ        210.5600  111.5500  223.7000 N.4       3 LYS4        0.0000 
     17 NZ        209.2900  112.0500  224.3000 N.4       3 LYS4        0.0000 
     18 NZ        210.7400  113.3500  222.5900 N.4       3 LYS4        0.0000 
     19 NZ        211.2000  112.8900  223.9400 N.4       3 LYS4        0.0000 
     20 CZ        211.8400  111.0500  223.0900 C.ar      4 PHE5        0.0000 
     21 CZ        213.5800  110.0900  223.8400 C.ar      4 PHE5        0.0000 
     22 CZ        212.3000  110.5900  224.4400 C.ar      4 PHE5        0.0000 
     23 CZ        212.0200  112.8500  221.9900 C.ar      4 PHE5        0.0000 
     24 CZ        212.4800  112.3900  223.3400 C.ar      4 PHE5        0.0000 
     25 CZ        211.6600  112.4200  225.2900 C.ar      4 PHE5        0.0000 
     26 CZ        213.9300  113.6900  221.6200 C.ar      4 PHE5        0.0000 
     27 CZ        213.1200  113.7300  223.5800 C.ar      4 PHE5        0.0000 
     28 CZ        212.3000  113.7600  225.5400 C.ar      4 PHE5        0.0000 
     29 CZ        213.3900  114.6300  227.1300 C.ar      4 PHE5        0.0000 
     30 CA        211.2100  106.5500  221.7500 C.3       5 GLY6        0.0000 
     31 CA        209.9300  107.0400  222.3600 C.3       5 GLY6        0.0000 
     32 CA        211.6700  106.0800  223.1000 C.3       5 GLY6        0.0000 
     33 CA        207.1900  112.5800  226.8700 C.3       5 GLY6        0.0000 
     34 CA        209.1000  113.4200  226.5000 C.3       5 GLY6        0.0000 
     35 CA        210.2000  114.2900  228.1000 C.3       5 GLY6        0.0000 
     36 CA        210.6600  113.8300  229.4500 C.3       5 GLY6        0.0000 
     37 CA        211.1200  113.3600  230.8000 C.3       5 GLY6        0.0000 
     38 CA        212.5700  114.6600  229.0900 C.3       5 GLY6        0.0000 
     39 DU        210.1100  108.8500  221.2500 H         6 CUB7        0.0000 
     40 DU        210.5700  108.3800  222.6000 H         6 CUB7        0.0000 
     41 DU        212.3100  107.4200  223.3500 H         6 CUB7        0.0000 
     42 DU        211.0300  107.9200  223.9500 H         6 CUB7        0.0000 
     43 DU        209.4700  110.6800  222.1000 H         6 CUB7        0.0000 
     44 DU        211.2100  109.7200  222.8500 H         6 CUB7        0.0000 
     45 DU        209.9300  110.2200  223.4500 H         6 CUB7        0.0000 
     46 DU        208.6500  110.7100  224.0600 H         6 CUB7        0.0000 
     47 DU        212.9400  108.7500  223.5900 H         6 CUB7        0.0000 
     48 DU        211.6600  109.2500  224.2000 H         6 CUB7        0.0000 
     49 DU        207.8300  110.7500  226.0200 H         6 CUB7        0.0000 
     50 DU        206.5500  111.2500  226.6200 H         6 CUB7        0.0000 
     51 DU        211.0200  111.0900  225.0500 H         6 CUB7        0.0000 
     52 DU        209.7400  111.5900  225.6500 H         6 CUB7        0.0000 
     53 DU        208.4700  112.0800  226.2600 H         6 CUB7        0.0000 
     54 DU        210.3800  112.9200  225.9000 H         6 CUB7        0.0000 
     55 DU        211.4800  113.7900  227.4900 H         6 CUB7        0.0000 
@<TRIPOS>BOND
@<TRIPOS>SUBSTRUCTURE
     1 ALA2        1 GROUP   
     2 ASP3       10 GROUP   
     3 LYS4       12 GROUP   
     4 PHE5       20 GROUP   
     5 GLY6       30 GROUP   
     6 CUB7       39 GROUP   
@<TRIPOS>SET

