#    Name: 6kac_8_LUT_CAVITY_N1_4
#    Modification time : Fri May 22 19:33:14 2020

@<TRIPOS>MOLECULE
6kac_8_LUT_CAVITY_N1_4
   40     0     7     0     0
SMALL
NO_CHARGES


@<TRIPOS>ATOM
      1 OG        185.5200  307.4600  221.3700 O.3       1 SER1        0.0000 
      2 OG        189.6300  310.0400  224.1900 O.3       1 SER1        0.0000 
      3 N         185.7000  309.2600  220.2600 N.am      2 ALA2        0.0000 
      4 N         184.4200  309.7600  220.8700 N.am      2 ALA2        0.0000 
      5 N         186.1600  308.8000  221.6100 N.am      2 ALA2        0.0000 
      6 N         183.7800  311.6000  221.7200 N.am      2 ALA2        0.0000 
      7 N         186.8000  310.1300  221.8500 N.am      2 ALA2        0.0000 
      8 N         185.5200  310.6300  222.4600 N.am      2 ALA2        0.0000 
      9 N         187.2600  309.6700  223.2000 N.am      2 ALA2        0.0000 
     10 O         189.1700  310.5100  222.8400 O.2       2 ALA2        0.0000 
     11 N         187.8900  311.0000  223.4500 N.am      2 ALA2        0.0000 
     12 OD1       182.5000  312.0900  222.3200 O.co2     3 ASP3        0.0000 
     13 NZ        182.9700  308.4600  222.5800 N.4       4 LYS4        0.0000 
     14 NZ        182.1500  308.4900  224.5400 N.4       4 LYS4        0.0000 
     15 NZ        183.1500  310.2600  221.4700 N.4       4 LYS4        0.0000 
     16 NZ        187.4400  308.3000  221.0000 N.4       4 LYS4        0.0000 
     17 NZ        183.6000  309.7900  222.8200 N.4       4 LYS4        0.0000 
     18 NZ        182.3300  310.2900  223.4300 N.4       4 LYS4        0.0000 
     19 NZ        187.9000  307.8300  222.3500 N.4       4 LYS4        0.0000 
     20 NZ        182.7900  309.8300  224.7800 N.4       4 LYS4        0.0000 
     21 NZ        188.0800  309.6300  221.2500 N.4       4 LYS4        0.0000 
     22 NZ        188.5400  309.1700  222.6000 N.4       4 LYS4        0.0000 
     23 CZ        184.2400  311.1300  223.0700 C.ar      5 PHE5        0.0000 
     24 CZ        182.9600  311.6300  223.6700 C.ar      5 PHE5        0.0000 
     25 CZ        185.9800  310.1700  223.8100 C.ar      5 PHE5        0.0000 
     26 CZ        184.7000  310.6700  224.4200 C.ar      5 PHE5        0.0000 
     27 CZ        183.4200  311.1600  225.0200 C.ar      5 PHE5        0.0000 
     28 CZ        182.1400  311.6600  225.6300 C.ar      5 PHE5        0.0000 
     29 CZ        184.4200  312.9300  221.9600 C.ar      5 PHE5        0.0000 
     30 CZ        187.0700  311.0400  225.4000 C.ar      5 PHE5        0.0000 
     31 CA        187.7200  306.0300  223.4600 C.3       6 GLY6        0.0000 
     32 DU        183.2500  306.1900  225.0400 H         7 CUB7        0.0000 
     33 DU        181.9700  306.6900  225.6400 H         7 CUB7        0.0000 
     34 DU        184.2500  307.9600  221.9700 H         7 CUB7        0.0000 
     35 DU        185.9800  307.0000  222.7200 H         7 CUB7        0.0000 
     36 DU        183.4300  307.9900  223.9300 H         7 CUB7        0.0000 
     37 DU        184.8800  309.3000  222.2200 H         7 CUB7        0.0000 
     38 DU        186.6200  308.3300  222.9600 H         7 CUB7        0.0000 
     39 DU        184.0600  309.3300  224.1700 H         7 CUB7        0.0000 
     40 DU        188.9900  308.7000  223.9500 H         7 CUB7        0.0000 
@<TRIPOS>BOND
@<TRIPOS>SUBSTRUCTURE
     1 SER1        1 GROUP   
     2 ALA2        3 GROUP   
     3 ASP3       12 GROUP   
     4 LYS4       13 GROUP   
     5 PHE5       23 GROUP   
     6 GLY6       31 GROUP   
     7 CUB7       32 GROUP   
@<TRIPOS>SET

