#    Name: 6kac_10_NEX_CAVITY_N1_6
#    Modification time : Fri May 22 19:33:29 2020

@<TRIPOS>MOLECULE
6kac_10_NEX_CAVITY_N1_6
   18     0     3     0     0
SMALL
NO_CHARGES


@<TRIPOS>ATOM
      1 CZ        161.0000  290.6600  220.5900 C.ar      1 PHE5        0.0000 
      2 CZ        160.8200  292.0300  222.7900 C.ar      1 PHE5        0.0000 
      3 CZ        167.9400  296.3200  226.8500 C.ar      1 PHE5        0.0000 
      4 CZ        167.2900  298.1500  227.7000 C.ar      1 PHE5        0.0000 
      5 CZ        166.0200  298.6500  228.3000 C.ar      1 PHE5        0.0000 
      6 CZ        166.4800  298.1900  229.6500 C.ar      1 PHE5        0.0000 
      7 CZ        167.9300  299.4900  227.9400 C.ar      1 PHE5        0.0000 
      8 CZ        167.1100  299.5200  229.9000 C.ar      1 PHE5        0.0000 
      9 CA        162.7300  292.8700  222.4300 C.3       2 GLY6        0.0000 
     10 CA        166.8400  295.4500  225.2500 C.3       2 GLY6        0.0000 
     11 CA        167.3000  294.9800  226.6000 C.3       2 GLY6        0.0000 
     12 CA        166.6600  296.8200  227.4500 C.3       2 GLY6        0.0000 
     13 CA        166.6500  299.9900  228.5500 C.3       2 GLY6        0.0000 
     14 DU        160.3600  292.5000  221.4400 H         3 CUB7        0.0000 
     15 DU        166.2000  297.2800  226.1000 H         3 CUB7        0.0000 
     16 DU        166.8400  298.6200  226.3500 H         3 CUB7        0.0000 
     17 DU        165.5600  299.1200  226.9500 H         3 CUB7        0.0000 
     18 DU        167.4700  299.9600  226.5900 H         3 CUB7        0.0000 
@<TRIPOS>BOND
@<TRIPOS>SUBSTRUCTURE
     1 PHE5        1 GROUP   
     2 GLY6        9 GROUP   
     3 CUB7       14 GROUP   
@<TRIPOS>SET

