#    Name: 6kac_34_NEX_CAVITY_N1_8
#    Modification time : Fri May 22 19:35:00 2020

@<TRIPOS>MOLECULE
6kac_34_NEX_CAVITY_N1_8
   56     0     6     0     0
SMALL
NO_CHARGES


@<TRIPOS>ATOM
      1 N         261.8100   90.2900  215.6100 N.am      1 ALA2        0.0000 
      2 N         262.2700   89.8300  216.9600 N.am      1 ALA2        0.0000 
      3 N         262.7300   89.3600  218.3100 N.am      1 ALA2        0.0000 
      4 OD1       266.5400  100.5500  220.8600 O.co2     2 ASP3        0.0000 
      5 NZ        267.6400  101.4200  222.4600 N.4       3 LYS4        0.0000 
      6 CZ        260.5300   90.7900  216.2200 C.ar      4 PHE5        0.0000 
      7 CZ        265.4500   93.3400  217.0800 C.ar      4 PHE5        0.0000 
      8 CZ        264.1800   93.8400  217.6900 C.ar      4 PHE5        0.0000 
      9 CZ        262.9000   94.3300  218.3000 C.ar      4 PHE5        0.0000 
     10 CZ        261.6200   94.8300  218.9000 C.ar      4 PHE5        0.0000 
     11 CZ        264.6400   93.3700  219.0400 C.ar      4 PHE5        0.0000 
     12 CZ        262.0800   94.3700  220.2500 C.ar      4 PHE5        0.0000 
     13 CZ        265.0900   92.9100  220.3900 C.ar      4 PHE5        0.0000 
     14 CZ        264.8100   95.1700  217.9300 C.ar      4 PHE5        0.0000 
     15 CZ        265.2700   94.7100  219.2800 C.ar      4 PHE5        0.0000 
     16 CZ        263.9900   95.2000  219.8900 C.ar      4 PHE5        0.0000 
     17 CZ        264.1700   97.0100  218.7800 C.ar      4 PHE5        0.0000 
     18 CZ        263.5300   98.8400  219.6300 C.ar      4 PHE5        0.0000 
     19 CZ        265.7200  100.5800  222.8200 C.ar      4 PHE5        0.0000 
     20 CZ        264.4400  101.0800  223.4300 C.ar      4 PHE5        0.0000 
     21 CZ        266.1800  100.1200  224.1700 C.ar      4 PHE5        0.0000 
     22 CZ        265.9000  102.3800  221.7200 C.ar      4 PHE5        0.0000 
     23 CZ        266.3600  101.9200  223.0700 C.ar      4 PHE5        0.0000 
     24 CA        260.9900   90.3300  217.5700 C.3       5 GLY6        0.0000 
     25 CA        263.1800   88.9000  219.6600 C.3       5 GLY6        0.0000 
     26 CA        263.7200   91.1300  215.2500 C.3       5 GLY6        0.0000 
     27 CA        262.9000   91.1600  217.2000 C.3       5 GLY6        0.0000 
     28 CA        261.6200   91.6600  217.8100 C.3       5 GLY6        0.0000 
     29 CA        263.3600   90.7000  218.5500 C.3       5 GLY6        0.0000 
     30 CA        263.8200   90.2300  219.9000 C.3       5 GLY6        0.0000 
     31 CA        262.5400   90.7300  220.5100 C.3       5 GLY6        0.0000 
     32 CA        264.8200   92.0000  216.8400 C.3       5 GLY6        0.0000 
     33 CA        263.5400   92.5000  217.4500 C.3       5 GLY6        0.0000 
     34 CA        262.2600   93.0000  218.0500 C.3       5 GLY6        0.0000 
     35 CA        260.9800   93.5000  218.6600 C.3       5 GLY6        0.0000 
     36 CA        259.7000   93.9900  219.2700 C.3       5 GLY6        0.0000 
     37 CA        264.0000   92.0300  218.8000 C.3       5 GLY6        0.0000 
     38 CA        262.7200   92.5300  219.4000 C.3       5 GLY6        0.0000 
     39 CA        261.4400   93.0300  220.0100 C.3       5 GLY6        0.0000 
     40 CA        260.1600   93.5300  220.6200 C.3       5 GLY6        0.0000 
     41 CA        263.1800   92.0700  220.7500 C.3       5 GLY6        0.0000 
     42 CA        266.0900   94.6700  217.3300 C.3       5 GLY6        0.0000 
     43 CA        265.9100   96.0400  219.5300 C.3       5 GLY6        0.0000 
     44 CA        264.6300   96.5400  220.1300 C.3       5 GLY6        0.0000 
     45 CA        265.2700   97.8800  220.3800 C.3       5 GLY6        0.0000 
     46 CA        265.9000   99.2100  220.6200 C.3       5 GLY6        0.0000 
     47 CA        265.0900   99.2500  222.5800 C.3       5 GLY6        0.0000 
     48 CA        267.0000  100.0800  222.2200 C.3       5 GLY6        0.0000 
     49 CA        267.4600   99.6200  223.5700 C.3       5 GLY6        0.0000 
     50 DU        264.2800   89.7700  221.2500 H         6 CUB7        0.0000 
     51 DU        263.3600   93.8700  219.6500 H         6 CUB7        0.0000 
     52 DU        264.6300   99.7100  221.2300 H         6 CUB7        0.0000 
     53 DU        263.3500  100.2100  221.8300 H         6 CUB7        0.0000 
     54 DU        265.2600  101.0500  221.4700 H         6 CUB7        0.0000 
     55 DU        263.9800  101.5500  222.0800 H         6 CUB7        0.0000 
     56 DU        264.6200  102.8800  222.3200 H         6 CUB7        0.0000 
@<TRIPOS>BOND
@<TRIPOS>SUBSTRUCTURE
     1 ALA2        1 GROUP   
     2 ASP3        4 GROUP   
     3 LYS4        5 GROUP   
     4 PHE5        6 GROUP   
     5 GLY6       24 GROUP   
     6 CUB7       50 GROUP   
@<TRIPOS>SET

