#    Name: 6kac_38_NEX_CAVITY_N1_8
#    Modification time : Fri May 22 19:35:18 2020

@<TRIPOS>MOLECULE
6kac_38_NEX_CAVITY_N1_8
   52     0     5     0     0
SMALL
NO_CHARGES


@<TRIPOS>ATOM
      1 N         188.4600  120.0200  225.8000 N.am      1 ALA2        0.0000 
      2 N         190.2000  119.0500  226.5400 N.am      1 ALA2        0.0000 
      3 N         190.6600  118.5900  227.9000 N.am      1 ALA2        0.0000 
      4 NZ        191.9300  118.0900  227.2900 N.4       2 LYS4        0.0000 
      5 NZ        191.1100  118.1200  229.2500 N.4       2 LYS4        0.0000 
      6 NZ        192.5700  119.4300  227.5300 N.4       2 LYS4        0.0000 
      7 CZ        184.9800  121.9500  224.3100 C.ar      3 PHE5        0.0000 
      8 CZ        185.4400  121.4800  225.6600 C.ar      3 PHE5        0.0000 
      9 CZ        184.1600  121.9800  226.2700 C.ar      3 PHE5        0.0000 
     10 CZ        182.8900  122.4800  226.8800 C.ar      3 PHE5        0.0000 
     11 CZ        187.3600  122.3200  225.3000 C.ar      3 PHE5        0.0000 
     12 CZ        189.1000  121.3500  226.0400 C.ar      3 PHE5        0.0000 
     13 CZ        193.0300  118.9600  228.8800 C.ar      3 PHE5        0.0000 
     14 CZ        191.0100  122.1900  225.6800 C.ar      3 PHE5        0.0000 
     15 CZ        189.7300  122.6900  226.2900 C.ar      3 PHE5        0.0000 
     16 CZ        188.4500  123.1900  226.9000 C.ar      3 PHE5        0.0000 
     17 CZ        194.9400  119.8000  228.5200 C.ar      3 PHE5        0.0000 
     18 CZ        193.6700  120.3000  229.1300 C.ar      3 PHE5        0.0000 
     19 CA        186.2600  121.4500  223.7100 C.3       4 GLY6        0.0000 
     20 CA        183.7100  122.4400  224.9200 C.3       4 GLY6        0.0000 
     21 CA        182.4300  122.9400  225.5300 C.3       4 GLY6        0.0000 
     22 CA        186.7200  120.9800  225.0600 C.3       4 GLY6        0.0000 
     23 CA        187.1800  120.5200  226.4100 C.3       4 GLY6        0.0000 
     24 CA        183.3500  122.0100  228.2300 C.3       4 GLY6        0.0000 
     25 CA        185.6200  123.2800  224.5600 C.3       4 GLY6        0.0000 
     26 CA        184.3400  123.7800  225.1600 C.3       4 GLY6        0.0000 
     27 CA        183.0600  124.2800  225.7700 C.3       4 GLY6        0.0000 
     28 CA        186.0800  122.8200  225.9100 C.3       4 GLY6        0.0000 
     29 CA        184.8000  123.3100  226.5100 C.3       4 GLY6        0.0000 
     30 CA        187.8200  121.8500  226.6500 C.3       4 GLY6        0.0000 
     31 CA        186.5400  122.3500  227.2600 C.3       4 GLY6        0.0000 
     32 CA        185.2600  122.8500  227.8600 C.3       4 GLY6        0.0000 
     33 CA        189.5500  120.8900  227.4000 C.3       4 GLY6        0.0000 
     34 CA        188.2800  121.3900  228.0000 C.3       4 GLY6        0.0000 
     35 CA        191.2900  119.9300  228.1400 C.3       4 GLY6        0.0000 
     36 CA        190.0100  120.4200  228.7500 C.3       4 GLY6        0.0000 
     37 CA        191.7500  119.4600  229.4900 C.3       4 GLY6        0.0000 
     38 CA        190.6500  121.7600  228.9900 C.3       4 GLY6        0.0000 
     39 CA        194.7600  121.1700  230.7200 C.3       4 GLY6        0.0000 
     40 CA        196.2200  122.4700  229.0100 C.3       4 GLY6        0.0000 
     41 DU        190.8300  120.3900  226.7900 H         5 CUB7        0.0000 
     42 DU        192.7500  121.2300  226.4300 H         5 CUB7        0.0000 
     43 DU        191.4700  121.7300  227.0300 H         5 CUB7        0.0000 
     44 DU        190.1900  122.2300  227.6400 H         5 CUB7        0.0000 
     45 DU        194.4800  120.2600  227.1700 H         5 CUB7        0.0000 
     46 DU        193.2100  120.7600  227.7800 H         5 CUB7        0.0000 
     47 DU        191.9300  121.2600  228.3800 H         5 CUB7        0.0000 
     48 DU        192.3900  120.8000  229.7300 H         5 CUB7        0.0000 
     49 DU        195.1200  121.6000  227.4100 H         5 CUB7        0.0000 
     50 DU        195.5800  121.1400  228.7600 H         5 CUB7        0.0000 
     51 DU        194.3000  121.6300  229.3700 H         5 CUB7        0.0000 
     52 DU        193.0200  122.1300  229.9800 H         5 CUB7        0.0000 
@<TRIPOS>BOND
@<TRIPOS>SUBSTRUCTURE
     1 ALA2        1 GROUP   
     2 LYS4        4 GROUP   
     3 PHE5        7 GROUP   
     4 GLY6       19 GROUP   
     5 CUB7       41 GROUP   
@<TRIPOS>SET

