#    Name: 6kac_21_PHO
#    Modification time : Fri May 22 19:34:24 2020

@<TRIPOS>MOLECULE
6kac_21_PHO
   64    69     1     0     0
SMALL
NO_CHARGES


@<TRIPOS>ATOM
      1 CHA       240.9910  192.8680  230.7340 C.2       1 PHO409      0.0000 
      2 CHB       242.7110  190.8920  234.7590 C.2       1 PHO409      0.0000 
      3 CHC       238.1610  190.1900  236.4280 C.2       1 PHO409      0.0000 
      4 CHD       236.3310  192.1630  232.3730 C.2       1 PHO409      0.0000 
      5 NA        241.5750  191.6790  232.7420 N.2       1 PHO409      0.0000 
      6 C1A       241.9200  192.4500  231.6090 C.2       1 PHO409      0.0000 
      7 C2A       243.4040  192.7070  231.5870 C.3       1 PHO409      0.0000 
      8 C3A       243.9270  191.7220  232.6610 C.3       1 PHO409      0.0000 
      9 C4A       242.6520  191.4120  233.4330 C.2       1 PHO409      0.0000 
     10 CMA       244.5020  190.4860  232.0320 C.3       1 PHO409      0.0000 
     11 CAA       243.7130  194.1390  231.9210 C.3       1 PHO409      0.0000 
     12 CBA       245.2080  194.3080  231.9580 C.3       1 PHO409      0.0000 
     13 CGA       245.5420  195.6930  232.3790 C.2       1 PHO409      0.0000 
     14 O1A       244.8730  196.4810  233.0430 O.2       1 PHO409      0.0000 
     15 O2A       246.7700  196.0670  231.9240 O.3       1 PHO409      0.0000 
     16 NB        240.3000  190.7790  235.3110 N.pl3     1 PHO409      0.0000 
     17 C1B       241.6500  190.5630  235.5410 C.2       1 PHO409      0.0000 
     18 C2B       241.7690  189.8890  236.8570 C.2       1 PHO409      0.0000 
     19 C3B       240.4920  189.6890  237.3370 C.2       1 PHO409      0.0000 
     20 C4B       239.5200  190.2500  236.3450 C.2       1 PHO409      0.0000 
     21 CMB       243.0990  189.5150  237.3410 C.3       1 PHO409      0.0000 
     22 CAB       239.9870  189.0460  238.5180 C.2       1 PHO409      0.0000 
     23 CBB       240.6190  188.7470  239.6540 C.2       1 PHO409      0.0000 
     24 NC        237.5150  191.2560  234.3300 N.2       1 PHO409      0.0000 
     25 C1C       237.2040  190.6580  235.4590 C.2       1 PHO409      0.0000 
     26 C2C       235.7260  190.5190  235.5500 C.2       1 PHO409      0.0000 
     27 C3C       235.1930  191.0800  234.4070 C.2       1 PHO409      0.0000 
     28 C4C       236.3410  191.5660  233.6000 C.2       1 PHO409      0.0000 
     29 CMC       235.0360  189.8660  236.6520 C.3       1 PHO409      0.0000 
     30 CAC       233.7750  191.1500  234.0160 C.3       1 PHO409      0.0000 
     31 CBC       233.1350  192.5050  233.8130 C.3       1 PHO409      0.0000 
     32 ND        238.7850  192.5490  232.0450 N.pl3     1 PHO409      0.0000 
     33 C1D       237.4510  192.6160  231.6200 C.2       1 PHO409      0.0000 
     34 C2D       237.4520  193.2180  230.3270 C.2       1 PHO409      0.0000 
     35 C3D       238.7930  193.3740  229.9420 C.2       1 PHO409      0.0000 
     36 C4D       239.5850  192.8800  231.0230 C.2       1 PHO409      0.0000 
     37 CMD       236.2810  193.5600  229.5510 C.3       1 PHO409      0.0000 
     38 CAD       239.6800  193.8420  228.9070 C.2       1 PHO409      0.0000 
     39 OBD       239.4270  194.4620  227.8860 O.2       1 PHO409      0.0000 
     40 CBD       241.1160  193.4080  229.3340 C.3       1 PHO409      0.0000 
     41 CGD       241.6270  192.3870  228.3690 C.2       1 PHO409      0.0000 
     42 O1D       242.3320  192.5490  227.3830 O.2       1 PHO409      0.0000 
     43 O2D       241.2300  191.1230  228.6870 O.3       1 PHO409      0.0000 
     44 CED       241.8750  190.0450  228.0070 C.3       1 PHO409      0.0000 
     45 C1        247.3490  197.2400  232.5160 C.3       1 PHO409      0.0000 
     46 C2        247.9470  196.8460  233.8160 C.2       1 PHO409      0.0000 
     47 C3        247.6240  197.4600  234.9610 C.2       1 PHO409      0.0000 
     48 C4        246.6350  198.5580  235.0220 C.3       1 PHO409      0.0000 
     49 C5        248.2400  197.0600  236.2520 C.3       1 PHO409      0.0000 
     50 C6        247.1970  196.5440  237.2240 C.3       1 PHO409      0.0000 
     51 C7        247.1310  197.3490  238.4990 C.3       1 PHO409      0.0000 
     52 C8        246.0550  196.8070  239.4200 C.3       1 PHO409      0.0000 
     53 C9        244.7070  197.3890  239.0720 C.3       1 PHO409      0.0000 
     54 C10       246.4070  197.1270  240.8600 C.3       1 PHO409      0.0000 
     55 C11       247.7140  196.4890  241.2620 C.3       1 PHO409      0.0000 
     56 C12       247.5880  194.9870  241.3440 C.3       1 PHO409      0.0000 
     57 C13       248.9480  194.3190  241.4360 C.3       1 PHO409      0.0000 
     58 C14       249.7880  194.6710  240.2350 C.3       1 PHO409      0.0000 
     59 C15       248.7860  192.8150  241.5170 C.3       1 PHO409      0.0000 
     60 C16       248.2260  192.3860  242.8500 C.3       1 PHO409      0.0000 
     61 C17       248.1110  190.8810  242.9180 C.3       1 PHO409      0.0000 
     62 C18       247.4760  190.3920  244.2050 C.3       1 PHO409      0.0000 
     63 C19       247.3750  188.8870  244.1980 C.3       1 PHO409      0.0000 
     64 C20       246.1060  191.0030  244.3810 C.3       1 PHO409      0.0000 
@<TRIPOS>BOND
     1    1    6 2    
     2    1   36 1    
     3    1   40 1    
     4    2    9 1    
     5    2   17 2    
     6    3   20 2    
     7    3   25 1    
     8    4   28 2    
     9    4   33 1    
    10    5    6 1    
    11    5    9 2    
    12    6    7 1    
    13    7    8 1    
    14    7   11 1    
    15    8    9 1    
    16    8   10 1    
    17   11   12 1    
    18   12   13 1    
    19   13   14 2    
    20   13   15 1    
    21   15   45 1    
    22   16   17 1    
    23   16   20 1    
    24   17   18 1    
    25   18   19 2    
    26   18   21 1    
    27   19   20 1    
    28   19   22 1    
    29   22   23 2    
    30   24   25 2    
    31   24   28 1    
    32   25   26 1    
    33   26   27 2    
    34   26   29 1    
    35   27   28 1    
    36   27   30 1    
    37   30   31 1    
    38   32   33 1    
    39   32   36 1    
    40   33   34 2    
    41   34   35 1    
    42   34   37 1    
    43   35   36 2    
    44   35   38 1    
    45   38   39 2    
    46   38   40 1    
    47   40   41 1    
    48   41   42 2    
    49   41   43 1    
    50   43   44 1    
    51   45   46 1    
    52   46   47 2    
    53   47   48 1    
    54   47   49 1    
    55   49   50 1    
    56   50   51 1    
    57   51   52 1    
    58   52   53 1    
    59   52   54 1    
    60   54   55 1    
    61   55   56 1    
    62   56   57 1    
    63   57   58 1    
    64   57   59 1    
    65   59   60 1    
    66   60   61 1    
    67   61   62 1    
    68   62   63 1    
    69   62   64 1    
@<TRIPOS>SUBSTRUCTURE
     1 PHO409      1 GROUP   
@<TRIPOS>SET

