#    Name: 6kac_38_NEX_CAVITY_N1_4
#    Modification time : Fri May 22 19:35:18 2020

@<TRIPOS>MOLECULE
6kac_38_NEX_CAVITY_N1_4
    3     0     2     0     0
SMALL
NO_CHARGES


@<TRIPOS>ATOM
      1 CZ        182.8900  122.4800  226.8800 C.ar      1 PHE5        0.0000 
      2 CA        182.4300  122.9400  225.5300 C.3       2 GLY6        0.0000 
      3 CA        183.3500  122.0100  228.2300 C.3       2 GLY6        0.0000 
@<TRIPOS>BOND
@<TRIPOS>SUBSTRUCTURE
     1 PHE5        1 GROUP   
     2 GLY6        2 GROUP   
@<TRIPOS>SET

