#    Name: 6kac_6_NEX
#    Modification time : Fri May 22 19:33:05 2020

@<TRIPOS>MOLECULE
6kac_6_NEX
   44    46     1     0     0
SMALL
NO_CHARGES


@<TRIPOS>ATOM
      1 C1        196.1400  339.1200  224.1190 C.3       1 NEX1623     0.0000 
      2 C2        195.2620  339.6940  223.0080 C.3       1 NEX1623     0.0000 
      3 C3        194.9220  338.6100  222.0020 C.3       1 NEX1623     0.0000 
      4 C4        193.9870  337.6490  222.7100 C.3       1 NEX1623     0.0000 
      5 C5        194.7330  336.9090  223.8250 C.3       1 NEX1623     0.0000 
      6 C6        195.5120  337.8920  224.7230 C.2       1 NEX1623     0.0000 
      7 C7        195.6660  337.6320  225.9500 C.1       1 NEX1623     0.0000 
      8 C8        195.8650  337.3360  227.1610 C.2       1 NEX1623     0.0000 
      9 C9        196.3940  335.9850  227.5410 C.2       1 NEX1623     0.0000 
     10 C10       196.5590  335.6940  228.8390 C.2       1 NEX1623     0.0000 
     11 C11       197.0670  334.3830  229.2360 C.2       1 NEX1623     0.0000 
     12 C12       197.4450  334.1250  230.4840 C.2       1 NEX1623     0.0000 
     13 C13       197.9290  332.7720  230.8230 C.2       1 NEX1623     0.0000 
     14 C14       198.6880  332.5590  231.9160 C.2       1 NEX1623     0.0000 
     15 C15       199.1390  331.2050  232.2310 C.2       1 NEX1623     0.0000 
     16 C16       196.3120  340.2200  225.1750 C.3       1 NEX1623     0.0000 
     17 C17       197.4960  338.7600  223.5600 C.3       1 NEX1623     0.0000 
     18 C18       193.6860  336.1220  224.6180 C.3       1 NEX1623     0.0000 
     19 C19       196.7490  335.0120  226.4740 C.3       1 NEX1623     0.0000 
     20 C20       197.5440  331.6280  229.9270 C.3       1 NEX1623     0.0000 
     21 O3        194.2830  339.1870  220.8580 O.3       1 NEX1623     0.0000 
     22 O4        195.6510  335.9960  223.2510 O.3       1 NEX1623     0.0000 
     23 C21       206.2360  325.0920  239.6340 C.3       1 NEX1623     0.0000 
     24 C22       206.6870  324.4860  240.9530 C.3       1 NEX1623     0.0000 
     25 C23       206.0500  325.2190  242.1110 C.3       1 NEX1623     0.0000 
     26 C24       204.6000  324.7940  242.1090 C.3       1 NEX1623     0.0000 
     27 C25       203.8640  325.1390  240.8100 C.3       1 NEX1623     0.0000 
     28 C26       204.7070  325.2670  239.5170 C.3       1 NEX1623     0.0000 
     29 C27       204.0280  324.6700  238.2930 C.2       1 NEX1623     0.0000 
     30 C28       203.5620  325.4550  237.3200 C.2       1 NEX1623     0.0000 
     31 C29       202.9190  324.8290  236.1490 C.2       1 NEX1623     0.0000 
     32 C30       202.3180  325.5540  235.1930 C.2       1 NEX1623     0.0000 
     33 C31       202.2200  327.0120  235.2110 C.2       1 NEX1623     0.0000 
     34 C32       201.5740  327.5960  234.2010 C.2       1 NEX1623     0.0000 
     35 C33       201.3940  329.0580  234.0980 C.2       1 NEX1623     0.0000 
     36 C34       200.5220  329.5200  233.1930 C.2       1 NEX1623     0.0000 
     37 C35       200.2100  330.9320  232.9740 C.2       1 NEX1623     0.0000 
     38 C36       206.7830  324.2220  238.5080 C.3       1 NEX1623     0.0000 
     39 C37       206.8780  326.4660  239.5020 C.3       1 NEX1623     0.0000 
     40 C38       202.5170  324.4310  240.6210 C.3       1 NEX1623     0.0000 
     41 C39       202.9450  323.3360  236.0100 C.3       1 NEX1623     0.0000 
     42 C40       202.1640  329.9970  234.9760 C.3       1 NEX1623     0.0000 
     43 O23       206.6540  324.8110  243.3410 O.3       1 NEX1623     0.0000 
     44 O24       204.0930  326.3910  240.1570 O.3       1 NEX1623     0.0000 
@<TRIPOS>BOND
     1    1    2 1    
     2    1    6 1    
     3    1   16 1    
     4    1   17 1    
     5    2    3 1    
     6    3    4 1    
     7    3   21 1    
     8    4    5 1    
     9    5    6 1    
    10    5   18 1    
    11    5   22 1    
    12    6    7 2    
    13    7    8 2    
    14    8    9 1    
    15    9   10 2    
    16    9   19 1    
    17   10   11 1    
    18   11   12 2    
    19   12   13 1    
    20   13   14 2    
    21   13   20 1    
    22   14   15 1    
    23   15   37 2    
    24   23   24 1    
    25   23   28 1    
    26   23   38 1    
    27   23   39 1    
    28   24   25 1    
    29   25   26 1    
    30   25   43 1    
    31   26   27 1    
    32   27   28 1    
    33   27   40 1    
    34   27   44 1    
    35   28   29 1    
    36   28   44 1    
    37   29   30 2    
    38   30   31 1    
    39   31   32 2    
    40   31   41 1    
    41   32   33 1    
    42   33   34 2    
    43   34   35 1    
    44   35   36 2    
    45   35   42 1    
    46   36   37 1    
@<TRIPOS>SUBSTRUCTURE
     1 NEX1623     1 GROUP   
@<TRIPOS>SET

