#    Name: 6kac_34_NEX_CAVITY_N1_4
#    Modification time : Fri May 22 19:35:00 2020

@<TRIPOS>MOLECULE
6kac_34_NEX_CAVITY_N1_4
    1     0     1     0     0
SMALL
NO_CHARGES


@<TRIPOS>ATOM
      1 DU        264.2800   89.7700  221.2500 H         1 CUB7        0.0000 
@<TRIPOS>BOND
@<TRIPOS>SUBSTRUCTURE
     1 CUB7        1 GROUP   
@<TRIPOS>SET

