#    Name: 6kac_20_PHO_CAVITY_N1_4
#    Modification time : Fri May 22 19:34:17 2020

@<TRIPOS>MOLECULE
6kac_20_PHO_CAVITY_N1_4
   75     0     5     0     0
SMALL
NO_CHARGES


@<TRIPOS>ATOM
      1 OG        213.8500  170.7700  241.3100 O.3       1 SER1        0.0000 
      2 OG        214.0300  172.5700  240.2000 O.3       1 SER1        0.0000 
      3 OG        212.7500  173.0700  240.8100 O.3       1 SER1        0.0000 
      4 OG        214.4900  172.1000  241.5500 O.3       1 SER1        0.0000 
      5 OG        213.2100  172.6000  242.1600 O.3       1 SER1        0.0000 
      6 OG        220.7800  176.4200  247.5600 O.3       1 SER1        0.0000 
      7 N         213.0300  170.8000  243.2700 N.am      2 ALA2        0.0000 
      8 O         219.0500  177.3900  246.8200 O.2       2 ALA2        0.0000 
      9 O         219.5100  176.9200  248.1700 O.2       2 ALA2        0.0000 
     10 CZ        215.5900  169.8000  242.0500 C.ar      3 PHE5        0.0000 
     11 CZ        215.7600  171.6000  240.9500 C.ar      3 PHE5        0.0000 
     12 CZ        216.2200  171.1400  242.3000 C.ar      3 PHE5        0.0000 
     13 CZ        216.6800  170.6700  243.6500 C.ar      3 PHE5        0.0000 
     14 CZ        212.5700  174.4400  243.0100 C.ar      3 PHE5        0.0000 
     15 CZ        216.8600  172.4700  242.5400 C.ar      3 PHE5        0.0000 
     16 CZ        214.3000  173.4700  243.7500 C.ar      3 PHE5        0.0000 
     17 CZ        217.3200  172.0100  243.8900 C.ar      3 PHE5        0.0000 
     18 CZ        214.7600  173.0100  245.1000 C.ar      3 PHE5        0.0000 
     19 CZ        219.0600  171.0500  244.6300 C.ar      3 PHE5        0.0000 
     20 CZ        214.9400  174.8100  244.0000 C.ar      3 PHE5        0.0000 
     21 CZ        219.2300  172.8500  243.5300 C.ar      3 PHE5        0.0000 
     22 CZ        215.4000  174.3400  245.3500 C.ar      3 PHE5        0.0000 
     23 CZ        220.9700  171.8800  244.2700 C.ar      3 PHE5        0.0000 
     24 CZ        219.6900  172.3800  244.8800 C.ar      3 PHE5        0.0000 
     25 CZ        216.0400  175.6800  245.5900 C.ar      3 PHE5        0.0000 
     26 CZ        221.6100  173.2200  244.5100 C.ar      3 PHE5        0.0000 
     27 CZ        220.3300  173.7200  245.1200 C.ar      3 PHE5        0.0000 
     28 CZ        216.6700  177.0100  245.8300 C.ar      3 PHE5        0.0000 
     29 CZ        217.1300  176.5500  247.1800 C.ar      3 PHE5        0.0000 
     30 CZ        216.0300  178.8500  246.6800 C.ar      3 PHE5        0.0000 
     31 CA        215.9500  170.2300  238.7500 C.3       4 GLY6        0.0000 
     32 CA        214.6700  170.7300  239.3500 C.3       4 GLY6        0.0000 
     33 CA        215.1300  170.2700  240.7000 C.3       4 GLY6        0.0000 
     34 CA        214.3100  170.3000  242.6600 C.3       4 GLY6        0.0000 
     35 CA        214.7700  169.8400  244.0100 C.3       4 GLY6        0.0000 
     36 CA        211.9300  173.1000  242.7700 C.3       4 GLY6        0.0000 
     37 CA        213.6700  172.1400  243.5100 C.3       4 GLY6        0.0000 
     38 CA        212.3900  172.6300  244.1200 C.3       4 GLY6        0.0000 
     39 CA        215.4000  171.1700  244.2500 C.3       4 GLY6        0.0000 
     40 CA        214.1300  171.6700  244.8600 C.3       4 GLY6        0.0000 
     41 CA        217.1400  170.2100  245.0000 C.3       4 GLY6        0.0000 
     42 CA        217.7800  171.5400  245.2400 C.3       4 GLY6        0.0000 
     43 CA        216.5000  172.0400  245.8500 C.3       4 GLY6        0.0000 
     44 CA        218.4100  172.8800  245.4800 C.3       4 GLY6        0.0000 
     45 CA        217.1400  173.3800  246.0900 C.3       4 GLY6        0.0000 
     46 CA        219.0500  174.2200  245.7300 C.3       4 GLY6        0.0000 
     47 CA        217.7700  174.7200  246.3300 C.3       4 GLY6        0.0000 
     48 CA        218.2300  174.2500  247.6800 C.3       4 GLY6        0.0000 
     49 CA        220.9700  175.0500  245.3600 C.3       4 GLY6        0.0000 
     50 CA        220.1500  175.0900  247.3200 C.3       4 GLY6        0.0000 
     51 CA        218.8700  175.5900  247.9300 C.3       4 GLY6        0.0000 
     52 CA        221.6000  176.3900  245.6100 C.3       4 GLY6        0.0000 
     53 CA        217.7700  177.8900  247.4300 C.3       4 GLY6        0.0000 
     54 CA        216.4900  178.3800  248.0300 C.3       4 GLY6        0.0000 
     55 CA        216.6700  180.1900  246.9300 C.3       4 GLY6        0.0000 
     56 CA        219.6800  178.7200  247.0600 C.3       4 GLY6        0.0000 
     57 CA        218.4100  179.2200  247.6700 C.3       4 GLY6        0.0000 
     58 CA        220.3200  180.0600  247.3100 C.3       4 GLY6        0.0000 
     59 DU        215.3000  172.0700  239.6000 H         5 CUB7        0.0000 
     60 DU        214.9400  171.6400  242.9000 H         5 CUB7        0.0000 
     61 DU        215.1200  173.4400  241.8000 H         5 CUB7        0.0000 
     62 DU        213.8400  173.9400  242.4000 H         5 CUB7        0.0000 
     63 DU        215.5800  172.9700  243.1500 H         5 CUB7        0.0000 
     64 DU        216.0400  172.5100  244.5000 H         5 CUB7        0.0000 
     65 DU        216.2200  174.3100  243.3900 H         5 CUB7        0.0000 
     66 DU        217.9600  173.3500  244.1300 H         5 CUB7        0.0000 
     67 DU        216.6800  173.8400  244.7400 H         5 CUB7        0.0000 
     68 DU        219.8700  174.1800  243.7700 H         5 CUB7        0.0000 
     69 DU        218.5900  174.6800  244.3800 H         5 CUB7        0.0000 
     70 DU        217.3100  175.1800  244.9800 H         5 CUB7        0.0000 
     71 DU        217.9500  176.5200  245.2300 H         5 CUB7        0.0000 
     72 DU        219.6900  175.5500  245.9700 H         5 CUB7        0.0000 
     73 DU        218.4100  176.0500  246.5800 H         5 CUB7        0.0000 
     74 DU        217.3100  178.3500  246.0800 H         5 CUB7        0.0000 
     75 DU        220.3300  176.8900  246.2100 H         5 CUB7        0.0000 
@<TRIPOS>BOND
@<TRIPOS>SUBSTRUCTURE
     1 SER1        1 GROUP   
     2 ALA2        7 GROUP   
     3 PHE5       10 GROUP   
     4 GLY6       31 GROUP   
     5 CUB7       59 GROUP   
@<TRIPOS>SET

