#    Name: 6kac_15_NEX_CAVITY_N1_6
#    Modification time : Fri May 22 19:33:49 2020

@<TRIPOS>MOLECULE
6kac_15_NEX_CAVITY_N1_6
   34     0     4     0     0
SMALL
NO_CHARGES


@<TRIPOS>ATOM
      1 N         136.5800  310.9700  219.2200 N.am      1 ALA2        0.0000 
      2 N         137.2200  312.3000  219.4700 N.am      1 ALA2        0.0000 
      3 O         138.1400  311.3700  222.1700 O.2       1 ALA2        0.0000 
      4 CZ        133.7900  297.9500  224.0300 C.ar      2 PHE5        0.0000 
      5 CZ        133.1500  299.7900  224.8800 C.ar      2 PHE5        0.0000 
      6 CZ        134.5000  305.1600  219.6000 C.ar      2 PHE5        0.0000 
      7 CZ        133.8600  306.9900  220.4500 C.ar      2 PHE5        0.0000 
      8 CZ        134.4900  308.3300  220.6900 C.ar      2 PHE5        0.0000 
      9 CZ        133.2100  308.8300  221.3000 C.ar      2 PHE5        0.0000 
     10 CA        133.9600  299.7500  222.9200 C.3       3 GLY6        0.0000 
     11 CA        132.6900  300.2500  223.5300 C.3       3 GLY6        0.0000 
     12 CA        131.4100  300.7500  224.1300 C.3       3 GLY6        0.0000 
     13 CA        134.1400  301.5500  221.8100 C.3       3 GLY6        0.0000 
     14 CA        133.3200  301.5900  223.7700 C.3       3 GLY6        0.0000 
     15 CA        134.6700  306.9600  218.4900 C.3       3 GLY6        0.0000 
     16 CA        134.3100  306.5300  221.8000 C.3       3 GLY6        0.0000 
     17 CA        135.3100  308.2900  218.7400 C.3       3 GLY6        0.0000 
     18 CA        134.0300  308.7900  219.3400 C.3       3 GLY6        0.0000 
     19 CA        137.0500  307.3300  219.4800 C.3       3 GLY6        0.0000 
     20 CA        135.7700  307.8300  220.0900 C.3       3 GLY6        0.0000 
     21 CA        137.5100  306.8600  220.8300 C.3       3 GLY6        0.0000 
     22 CA        136.2300  307.3600  221.4400 C.3       3 GLY6        0.0000 
     23 CA        135.9500  309.6300  218.9800 C.3       3 GLY6        0.0000 
     24 CA        134.6700  310.1300  219.5900 C.3       3 GLY6        0.0000 
     25 CA        136.4100  309.1600  220.3300 C.3       3 GLY6        0.0000 
     26 CA        137.8600  310.4700  218.6200 C.3       3 GLY6        0.0000 
     27 CA        137.0400  310.5000  220.5700 C.3       3 GLY6        0.0000 
     28 CA        137.5000  310.0400  221.9200 C.3       3 GLY6        0.0000 
     29 CA        137.6800  311.8400  220.8200 C.3       3 GLY6        0.0000 
     30 DU        135.1300  306.4900  219.8400 H         4 CUB7        0.0000 
     31 DU        135.5900  306.0300  221.1900 H         4 CUB7        0.0000 
     32 DU        134.9500  307.8600  222.0400 H         4 CUB7        0.0000 
     33 DU        133.6700  308.3600  222.6500 H         4 CUB7        0.0000 
     34 DU        135.1300  309.6600  220.9400 H         4 CUB7        0.0000 
@<TRIPOS>BOND
@<TRIPOS>SUBSTRUCTURE
     1 ALA2        1 GROUP   
     2 PHE5        4 GROUP   
     3 GLY6       10 GROUP   
     4 CUB7       30 GROUP   
@<TRIPOS>SET

