#    Name: 6kac_36_LUT_CAVITY_N1_6
#    Modification time : Fri May 22 19:35:07 2020

@<TRIPOS>MOLECULE
6kac_36_LUT_CAVITY_N1_6
  116     0     7     0     0
SMALL
NO_CHARGES


@<TRIPOS>ATOM
      1 OG        210.2900  107.4800  219.0500 O.3       1 SER1        0.0000 
      2 OG        207.7400  108.4700  220.2700 O.3       1 SER1        0.0000 
      3 OG        209.4700  107.5100  221.0100 O.3       1 SER1        0.0000 
      4 OG        209.1900  109.7800  218.5500 O.3       1 SER1        0.0000 
      5 OG        209.6500  109.3100  219.9000 O.3       1 SER1        0.0000 
      6 OG        208.3700  109.8100  220.5100 O.3       1 SER1        0.0000 
      7 OG        204.6400  110.4100  226.9900 O.3       1 SER1        0.0000 
      8 N         211.1100  110.6100  218.1900 N.am      2 ALA2        0.0000 
      9 N         211.5600  110.1500  219.5400 N.am      2 ALA2        0.0000 
     10 N         210.2900  110.6500  220.1500 N.am      2 ALA2        0.0000 
     11 N         212.0200  109.6800  220.8900 N.am      2 ALA2        0.0000 
     12 N         210.7500  110.1800  221.5000 N.am      2 ALA2        0.0000 
     13 N         212.4800  109.2200  222.2400 N.am      2 ALA2        0.0000 
     14 N         211.7400  111.9500  218.4300 N.am      2 ALA2        0.0000 
     15 N         210.9200  111.9800  220.3900 N.am      2 ALA2        0.0000 
     16 N         211.3800  111.5200  221.7400 N.am      2 ALA2        0.0000 
     17 N         213.1200  110.5500  222.4900 N.am      2 ALA2        0.0000 
     18 N         212.3800  113.2900  218.6800 N.am      2 ALA2        0.0000 
     19 N         212.8400  112.8200  220.0300 N.am      2 ALA2        0.0000 
     20 N         213.3000  112.3600  221.3800 N.am      2 ALA2        0.0000 
     21 N         213.4700  114.1600  220.2700 N.am      2 ALA2        0.0000 
     22 N         212.1100  115.1300  227.7400 N.am      2 ALA2        0.0000 
     23 N         210.8400  115.6300  228.3400 N.am      2 ALA2        0.0000 
     24 O         211.3000  115.1600  229.6900 O.2       2 ALA2        0.0000 
     25 N         212.7500  116.4600  227.9800 N.am      2 ALA2        0.0000 
     26 OD1       211.1000  113.7800  219.2800 O.co2     3 ASP3        0.0000 
     27 OD1       211.5600  113.3200  220.6400 O.co2     3 ASP3        0.0000 
     28 OD1       212.2000  114.6600  220.8800 O.co2     3 ASP3        0.0000 
     29 OD1       212.6600  114.1900  222.2300 O.co2     3 ASP3        0.0000 
     30 OD1       211.8400  114.2200  224.1900 O.co2     3 ASP3        0.0000 
     31 OD1       213.2900  115.5300  222.4700 O.co2     3 ASP3        0.0000 
     32 NZ        210.7500  107.0100  220.4000 N.4       4 LYS4        0.0000 
     33 NZ        210.9300  108.8100  219.3000 N.4       4 LYS4        0.0000 
     34 NZ        211.3900  108.3500  220.6500 N.4       4 LYS4        0.0000 
     35 NZ        211.8500  107.8800  222.0000 N.4       4 LYS4        0.0000 
     36 NZ        208.5500  111.6100  219.4000 N.4       4 LYS4        0.0000 
     37 NZ        209.0100  111.1500  220.7500 N.4       4 LYS4        0.0000 
     38 NZ        207.7300  111.6400  221.3600 N.4       4 LYS4        0.0000 
     39 NZ        208.1900  111.1800  222.7100 N.4       4 LYS4        0.0000 
     40 NZ        209.1900  112.9500  219.6500 N.4       4 LYS4        0.0000 
     41 NZ        209.6500  112.4800  221.0000 N.4       4 LYS4        0.0000 
     42 NZ        210.1000  112.0200  222.3500 N.4       4 LYS4        0.0000 
     43 NZ        210.5600  111.5500  223.7000 N.4       4 LYS4        0.0000 
     44 NZ        209.2900  112.0500  224.3000 N.4       4 LYS4        0.0000 
     45 NZ        210.7400  113.3500  222.5900 N.4       4 LYS4        0.0000 
     46 NZ        211.2000  112.8900  223.9400 N.4       4 LYS4        0.0000 
     47 NZ        209.9200  113.3900  224.5500 N.4       4 LYS4        0.0000 
     48 NZ        208.6400  113.8800  225.1500 N.4       4 LYS4        0.0000 
     49 NZ        210.5600  114.7200  224.7900 N.4       4 LYS4        0.0000 
     50 CZ        206.7400  106.7100  223.3300 C.ar      5 PHE5        0.0000 
     51 CZ        208.1900  108.0100  221.6200 C.ar      5 PHE5        0.0000 
     52 CZ        206.9200  108.5100  222.2200 C.ar      5 PHE5        0.0000 
     53 CZ        205.2700  111.7400  227.2300 C.ar      5 PHE5        0.0000 
     54 CZ        211.8400  111.0500  223.0900 C.ar      5 PHE5        0.0000 
     55 CZ        213.5800  110.0900  223.8400 C.ar      5 PHE5        0.0000 
     56 CZ        212.3000  110.5900  224.4400 C.ar      5 PHE5        0.0000 
     57 CZ        212.0200  112.8500  221.9900 C.ar      5 PHE5        0.0000 
     58 CZ        212.4800  112.3900  223.3400 C.ar      5 PHE5        0.0000 
     59 CZ        211.6600  112.4200  225.2900 C.ar      5 PHE5        0.0000 
     60 CZ        213.9300  113.6900  221.6200 C.ar      5 PHE5        0.0000 
     61 CZ        213.1200  113.7300  223.5800 C.ar      5 PHE5        0.0000 
     62 CZ        212.3000  113.7600  225.5400 C.ar      5 PHE5        0.0000 
     63 CZ        214.5700  115.0300  221.8700 C.ar      5 PHE5        0.0000 
     64 CZ        213.7500  115.0600  223.8200 C.ar      5 PHE5        0.0000 
     65 CZ        214.2100  114.6000  225.1700 C.ar      5 PHE5        0.0000 
     66 CZ        213.3900  114.6300  227.1300 C.ar      5 PHE5        0.0000 
     67 CA        208.8400  106.1700  220.7700 C.3       6 GLY6        0.0000 
     68 CA        208.0200  106.2100  222.7200 C.3       6 GLY6        0.0000 
     69 CA        211.2100  106.5500  221.7500 C.3       6 GLY6        0.0000 
     70 CA        209.9300  107.0400  222.3600 C.3       6 GLY6        0.0000 
     71 CA        208.6500  107.5400  222.9700 C.3       6 GLY6        0.0000 
     72 CA        211.6700  106.0800  223.1000 C.3       6 GLY6        0.0000 
     73 CA        207.0900  110.3100  221.1200 C.3       6 GLY6        0.0000 
     74 CA        207.5500  109.8400  222.4700 C.3       6 GLY6        0.0000 
     75 CA        205.4600  110.3700  225.0300 C.3       6 GLY6        0.0000 
     76 CA        207.3700  111.2100  224.6700 C.3       6 GLY6        0.0000 
     77 CA        206.0900  111.7100  225.2700 C.3       6 GLY6        0.0000 
     78 CA        204.8100  112.2100  225.8800 C.3       6 GLY6        0.0000 
     79 CA        208.0100  112.5500  224.9100 C.3       6 GLY6        0.0000 
     80 CA        206.7300  113.0500  225.5200 C.3       6 GLY6        0.0000 
     81 CA        207.1900  112.5800  226.8700 C.3       6 GLY6        0.0000 
     82 CA        209.1000  113.4200  226.5000 C.3       6 GLY6        0.0000 
     83 CA        211.0200  114.2600  226.1400 C.3       6 GLY6        0.0000 
     84 CA        209.7400  114.7600  226.7500 C.3       6 GLY6        0.0000 
     85 CA        210.2000  114.2900  228.1000 C.3       6 GLY6        0.0000 
     86 CA        210.6600  113.8300  229.4500 C.3       6 GLY6        0.0000 
     87 CA        211.1200  113.3600  230.8000 C.3       6 GLY6        0.0000 
     88 CA        212.4700  115.5600  224.4300 C.3       6 GLY6        0.0000 
     89 CA        212.9300  115.1000  225.7800 C.3       6 GLY6        0.0000 
     90 CA        211.6500  115.5900  226.3900 C.3       6 GLY6        0.0000 
     91 CA        212.5700  114.6600  229.0900 C.3       6 GLY6        0.0000 
     92 CA        213.2100  116.0000  229.3300 C.3       6 GLY6        0.0000 
     93 DU        207.3800  108.0400  223.5700 H         7 CUB7        0.0000 
     94 DU        206.1000  108.5400  224.1800 H         7 CUB7        0.0000 
     95 DU        210.1100  108.8500  221.2500 H         7 CUB7        0.0000 
     96 DU        208.8300  109.3400  221.8600 H         7 CUB7        0.0000 
     97 DU        210.5700  108.3800  222.6000 H         7 CUB7        0.0000 
     98 DU        206.7300  109.8800  224.4200 H         7 CUB7        0.0000 
     99 DU        212.3100  107.4200  223.3500 H         7 CUB7        0.0000 
    100 DU        211.0300  107.9200  223.9500 H         7 CUB7        0.0000 
    101 DU        209.8300  111.1100  218.8000 H         7 CUB7        0.0000 
    102 DU        209.4700  110.6800  222.1000 H         7 CUB7        0.0000 
    103 DU        211.2100  109.7200  222.8500 H         7 CUB7        0.0000 
    104 DU        209.9300  110.2200  223.4500 H         7 CUB7        0.0000 
    105 DU        208.6500  110.7100  224.0600 H         7 CUB7        0.0000 
    106 DU        212.9400  108.7500  223.5900 H         7 CUB7        0.0000 
    107 DU        211.6600  109.2500  224.2000 H         7 CUB7        0.0000 
    108 DU        207.8300  110.7500  226.0200 H         7 CUB7        0.0000 
    109 DU        206.5500  111.2500  226.6200 H         7 CUB7        0.0000 
    110 DU        210.4600  112.4500  219.0400 H         7 CUB7        0.0000 
    111 DU        211.0200  111.0900  225.0500 H         7 CUB7        0.0000 
    112 DU        209.7400  111.5900  225.6500 H         7 CUB7        0.0000 
    113 DU        208.4700  112.0800  226.2600 H         7 CUB7        0.0000 
    114 DU        210.3800  112.9200  225.9000 H         7 CUB7        0.0000 
    115 DU        211.4800  113.7900  227.4900 H         7 CUB7        0.0000 
    116 DU        214.0300  115.9700  227.3700 H         7 CUB7        0.0000 
@<TRIPOS>BOND
@<TRIPOS>SUBSTRUCTURE
     1 SER1        1 GROUP   
     2 ALA2        8 GROUP   
     3 ASP3       26 GROUP   
     4 LYS4       32 GROUP   
     5 PHE5       50 GROUP   
     6 GLY6       67 GROUP   
     7 CUB7       93 GROUP   
@<TRIPOS>SET

