#    Name: 6kac_34_NEX
#    Modification time : Fri May 22 19:35:00 2020

@<TRIPOS>MOLECULE
6kac_34_NEX
   44    46     1     0     0
SMALL
NO_CHARGES


@<TRIPOS>ATOM
      1 C1        266.4070   81.6120  219.1050 C.3       1 NEX1623     0.0000 
      2 C2        266.4570   81.5710  217.5860 C.3       1 NEX1623     0.0000 
      3 C3        265.0970   81.2140  217.0210 C.3       1 NEX1623     0.0000 
      4 C4        264.2020   82.4030  217.3100 C.3       1 NEX1623     0.0000 
      5 C5        263.9480   82.5460  218.8120 C.3       1 NEX1623     0.0000 
      6 C6        265.2750   82.4620  219.6090 C.2       1 NEX1623     0.0000 
      7 C7        265.3970   83.0970  220.6970 C.1       1 NEX1623     0.0000 
      8 C8        265.4160   83.7190  221.7940 C.2       1 NEX1623     0.0000 
      9 C9        265.6780   85.1700  221.8030 C.2       1 NEX1623     0.0000 
     10 C10       265.4650   85.8610  222.9310 C.2       1 NEX1623     0.0000 
     11 C11       265.7530   87.2880  223.0670 C.2       1 NEX1623     0.0000 
     12 C12       265.0390   88.0280  223.9080 C.2       1 NEX1623     0.0000 
     13 C13       265.3310   89.4630  224.0780 C.2       1 NEX1623     0.0000 
     14 C14       264.4710   90.2460  224.7500 C.2       1 NEX1623     0.0000 
     15 C15       264.7720   91.6610  224.9430 C.2       1 NEX1623     0.0000 
     16 C16       267.7410   82.1720  219.5840 C.3       1 NEX1623     0.0000 
     17 C17       266.2520   80.2080  219.6610 C.3       1 NEX1623     0.0000 
     18 C18       263.2330   83.8850  218.9980 C.3       1 NEX1623     0.0000 
     19 C19       266.2510   85.8710  220.5980 C.3       1 NEX1623     0.0000 
     20 C20       266.5820   90.0370  223.4760 C.3       1 NEX1623     0.0000 
     21 O3        265.1880   81.0090  215.6060 O.3       1 NEX1623     0.0000 
     22 O4        263.0770   81.4880  219.2540 O.3       1 NEX1623     0.0000 
     23 C21       260.1860   99.4540  231.8490 C.3       1 NEX1623     0.0000 
     24 C22       259.6490  100.1030  233.1060 C.3       1 NEX1623     0.0000 
     25 C23       259.7660   99.1560  234.2730 C.3       1 NEX1623     0.0000 
     26 C24       261.2360   99.1100  234.6180 C.3       1 NEX1623     0.0000 
     27 C25       262.1090   98.6060  233.4670 C.3       1 NEX1623     0.0000 
     28 C26       261.5790   98.8110  232.0280 C.3       1 NEX1623     0.0000 
     29 C27       262.6590   99.2270  231.0450 C.2       1 NEX1623     0.0000 
     30 C28       263.0550   98.3920  230.0910 C.2       1 NEX1623     0.0000 
     31 C29       264.0940   98.8400  229.1520 C.2       1 NEX1623     0.0000 
     32 C30       264.5300   98.0250  228.1860 C.2       1 NEX1623     0.0000 
     33 C31       264.0110   96.6720  228.0580 C.2       1 NEX1623     0.0000 
     34 C32       264.2780   95.9840  226.9560 C.2       1 NEX1623     0.0000 
     35 C33       263.7830   94.6060  226.8160 C.2       1 NEX1623     0.0000 
     36 C34       264.4500   93.7780  226.0000 C.2       1 NEX1623     0.0000 
     37 C35       264.0760   92.3850  225.8120 C.2       1 NEX1623     0.0000 
     38 C36       260.1870  100.5140  230.7570 C.3       1 NEX1623     0.0000 
     39 C37       259.2190   98.3640  231.4200 C.3       1 NEX1623     0.0000 
     40 C38       263.6140   98.8430  233.6220 C.3       1 NEX1623     0.0000 
     41 C39       264.6480  100.2270  229.2650 C.3       1 NEX1623     0.0000 
     42 C40       262.5690   94.1580  227.5730 C.3       1 NEX1623     0.0000 
     43 O23       259.0440   99.6970  235.3760 O.3       1 NEX1623     0.0000 
     44 O24       261.6640   97.5230  232.6480 O.3       1 NEX1623     0.0000 
@<TRIPOS>BOND
     1    1    2 1    
     2    1    6 1    
     3    1   16 1    
     4    1   17 1    
     5    2    3 1    
     6    3    4 1    
     7    3   21 1    
     8    4    5 1    
     9    5    6 1    
    10    5   18 1    
    11    5   22 1    
    12    6    7 2    
    13    7    8 2    
    14    8    9 1    
    15    9   10 2    
    16    9   19 1    
    17   10   11 1    
    18   11   12 2    
    19   12   13 1    
    20   13   14 2    
    21   13   20 1    
    22   14   15 1    
    23   15   37 2    
    24   23   24 1    
    25   23   28 1    
    26   23   38 1    
    27   23   39 1    
    28   24   25 1    
    29   25   26 1    
    30   25   43 1    
    31   26   27 1    
    32   27   28 1    
    33   27   40 1    
    34   27   44 1    
    35   28   29 1    
    36   28   44 1    
    37   29   30 2    
    38   30   31 1    
    39   31   32 2    
    40   31   41 1    
    41   32   33 1    
    42   33   34 2    
    43   34   35 1    
    44   35   36 2    
    45   35   42 1    
    46   36   37 1    
@<TRIPOS>SUBSTRUCTURE
     1 NEX1623     1 GROUP   
@<TRIPOS>SET

