#    Name: 6kac_34_NEX_CAVITY_N1_6
#    Modification time : Fri May 22 19:35:00 2020

@<TRIPOS>MOLECULE
6kac_34_NEX_CAVITY_N1_6
   16     0     4     0     0
SMALL
NO_CHARGES


@<TRIPOS>ATOM
      1 N         262.7300   89.3600  218.3100 N.am      1 ALA2        0.0000 
      2 CZ        264.6400   93.3700  219.0400 C.ar      2 PHE5        0.0000 
      3 CZ        265.0900   92.9100  220.3900 C.ar      2 PHE5        0.0000 
      4 CZ        264.4400  101.0800  223.4300 C.ar      2 PHE5        0.0000 
      5 CZ        266.1800  100.1200  224.1700 C.ar      2 PHE5        0.0000 
      6 CA        263.1800   88.9000  219.6600 C.3       3 GLY6        0.0000 
      7 CA        263.3600   90.7000  218.5500 C.3       3 GLY6        0.0000 
      8 CA        263.8200   90.2300  219.9000 C.3       3 GLY6        0.0000 
      9 CA        262.5400   90.7300  220.5100 C.3       3 GLY6        0.0000 
     10 CA        264.0000   92.0300  218.8000 C.3       3 GLY6        0.0000 
     11 CA        262.7200   92.5300  219.4000 C.3       3 GLY6        0.0000 
     12 CA        263.1800   92.0700  220.7500 C.3       3 GLY6        0.0000 
     13 CA        265.0900   99.2500  222.5800 C.3       3 GLY6        0.0000 
     14 CA        267.4600   99.6200  223.5700 C.3       3 GLY6        0.0000 
     15 DU        264.2800   89.7700  221.2500 H         4 CUB7        0.0000 
     16 DU        263.3600   93.8700  219.6500 H         4 CUB7        0.0000 
@<TRIPOS>BOND
@<TRIPOS>SUBSTRUCTURE
     1 ALA2        1 GROUP   
     2 PHE5        2 GROUP   
     3 GLY6        6 GROUP   
     4 CUB7       15 GROUP   
@<TRIPOS>SET

