#    Name: 6kac_6_NEX_CAVITY_N1_6
#    Modification time : Fri May 22 19:33:06 2020

@<TRIPOS>MOLECULE
6kac_6_NEX_CAVITY_N1_6
   20     0     3     0     0
SMALL
NO_CHARGES


@<TRIPOS>ATOM
      1 CZ        202.3100  321.3800  230.4500 C.ar      1 PHE5        0.0000 
      2 CZ        204.0400  320.4200  231.2000 C.ar      1 PHE5        0.0000 
      3 CZ        204.5000  319.9500  232.5500 C.ar      1 PHE5        0.0000 
      4 CZ        202.9400  322.7200  230.7000 C.ar      1 PHE5        0.0000 
      5 CZ        203.4000  322.2500  232.0500 C.ar      1 PHE5        0.0000 
      6 CZ        202.1200  322.7500  232.6500 C.ar      1 PHE5        0.0000 
      7 CZ        199.3600  328.7100  225.6500 C.ar      1 PHE5        0.0000 
      8 CZ        200.0000  330.0500  225.8900 C.ar      1 PHE5        0.0000 
      9 CZ        199.1800  330.0800  227.8500 C.ar      1 PHE5        0.0000 
     10 CA        201.2100  323.6800  229.9500 C.3       2 GLY6        0.0000 
     11 CA        201.6700  323.2200  231.3000 C.3       2 GLY6        0.0000 
     12 CA        205.1400  321.2900  232.7900 C.3       2 GLY6        0.0000 
     13 CA        203.8600  321.7900  233.4000 C.3       2 GLY6        0.0000 
     14 CA        199.8200  328.2500  227.0000 C.3       2 GLY6        0.0000 
     15 CA        201.5600  327.2800  227.7400 C.3       2 GLY6        0.0000 
     16 CA        201.7400  329.0900  226.6300 C.3       2 GLY6        0.0000 
     17 CA        200.4600  329.5800  227.2400 C.3       2 GLY6        0.0000 
     18 CA        200.1800  331.8500  224.7800 C.3       2 GLY6        0.0000 
     19 CA        200.6400  331.3900  226.1300 C.3       2 GLY6        0.0000 
     20 DU        204.6800  321.7600  231.4400 H         3 CUB7        0.0000 
@<TRIPOS>BOND
@<TRIPOS>SUBSTRUCTURE
     1 PHE5        1 GROUP   
     2 GLY6       10 GROUP   
     3 CUB7       20 GROUP   
@<TRIPOS>SET

