#    Name: 6kac_17_LUT_CAVITY_N1_6
#    Modification time : Fri May 22 19:33:56 2020

@<TRIPOS>MOLECULE
6kac_17_LUT_CAVITY_N1_6
   72     0     7     0     0
SMALL
NO_CHARGES


@<TRIPOS>ATOM
      1 OG        194.7900  288.6000  226.7200 O.3       1 SER1        0.0000 
      2 N         185.8600  282.5800  227.6800 N.am      2 ALA2        0.0000 
      3 N         186.4900  283.9100  227.9200 N.am      2 ALA2        0.0000 
      4 N         188.8700  284.2800  228.9100 N.am      2 ALA2        0.0000 
      5 N         192.7700  288.6600  222.4200 N.am      2 ALA2        0.0000 
      6 OD1       185.7600  283.4700  223.0200 O.co2     3 ASP3        0.0000 
      7 NZ        188.3100  285.6500  222.9100 N.4       4 LYS4        0.0000 
      8 NZ        188.9500  286.9800  223.1500 N.4       4 LYS4        0.0000 
      9 NZ        189.4000  286.5200  224.5000 N.4       4 LYS4        0.0000 
     10 NZ        189.8600  286.0500  225.8500 N.4       4 LYS4        0.0000 
     11 NZ        190.8600  287.8200  222.7900 N.4       4 LYS4        0.0000 
     12 NZ        190.0400  287.8500  224.7400 N.4       4 LYS4        0.0000 
     13 CZ        184.4800  283.9700  223.6300 C.ar      5 PHE5        0.0000 
     14 CZ        183.2000  284.4700  224.2400 C.ar      5 PHE5        0.0000 
     15 CZ        184.9400  283.5100  224.9800 C.ar      5 PHE5        0.0000 
     16 CZ        184.5800  283.0700  228.2900 C.ar      5 PHE5        0.0000 
     17 CZ        186.3900  284.8100  223.2700 C.ar      5 PHE5        0.0000 
     18 CZ        185.5700  284.8400  225.2200 C.ar      5 PHE5        0.0000 
     19 CZ        186.0300  284.3800  226.5700 C.ar      5 PHE5        0.0000 
     20 CZ        187.0300  286.1400  223.5100 C.ar      5 PHE5        0.0000 
     21 CZ        187.4900  285.6800  224.8600 C.ar      5 PHE5        0.0000 
     22 CZ        186.6700  285.7100  226.8200 C.ar      5 PHE5        0.0000 
     23 CZ        187.6700  287.4800  223.7600 C.ar      5 PHE5        0.0000 
     24 CZ        186.3900  287.9800  224.3600 C.ar      5 PHE5        0.0000 
     25 CZ        186.8500  287.5100  225.7100 C.ar      5 PHE5        0.0000 
     26 CZ        187.3100  287.0500  227.0600 C.ar      5 PHE5        0.0000 
     27 CZ        193.9700  288.6300  228.6700 C.ar      5 PHE5        0.0000 
     28 CZ        192.7700  291.8300  223.5200 C.ar      5 PHE5        0.0000 
     29 CZ        195.4300  289.9300  226.9600 C.ar      5 PHE5        0.0000 
     30 CA        185.4000  283.0400  226.3300 C.3       6 GLY6        0.0000 
     31 CA        187.3100  283.8800  225.9700 C.3       6 GLY6        0.0000 
     32 CA        187.7700  283.4100  227.3200 C.3       6 GLY6        0.0000 
     33 CA        189.2300  284.7200  225.6100 C.3       6 GLY6        0.0000 
     34 CA        187.9500  285.2100  226.2100 C.3       6 GLY6        0.0000 
     35 CA        189.6900  284.2500  226.9600 C.3       6 GLY6        0.0000 
     36 CA        188.4100  284.7500  227.5600 C.3       6 GLY6        0.0000 
     37 CA        187.5900  284.7800  229.5200 C.3       6 GLY6        0.0000 
     38 CA        191.1400  285.5500  225.2400 C.3       6 GLY6        0.0000 
     39 CA        190.3200  285.5900  227.2000 C.3       6 GLY6        0.0000 
     40 CA        189.5000  285.6200  229.1600 C.3       6 GLY6        0.0000 
     41 CA        191.3200  287.3500  224.1400 C.3       6 GLY6        0.0000 
     42 CA        191.7800  286.8900  225.4900 C.3       6 GLY6        0.0000 
     43 CA        192.2400  286.4200  226.8400 C.3       6 GLY6        0.0000 
     44 CA        190.9600  286.9200  227.4400 C.3       6 GLY6        0.0000 
     45 CA        191.4200  286.4600  228.7900 C.3       6 GLY6        0.0000 
     46 CA        193.6900  287.7300  225.1200 C.3       6 GLY6        0.0000 
     47 CA        194.1500  287.2600  226.4700 C.3       6 GLY6        0.0000 
     48 CA        192.8700  287.7600  227.0800 C.3       6 GLY6        0.0000 
     49 CA        193.3300  287.3000  228.4300 C.3       6 GLY6        0.0000 
     50 CA        192.0600  287.7900  229.0400 C.3       6 GLY6        0.0000 
     51 CA        194.3300  289.0600  225.3700 C.3       6 GLY6        0.0000 
     52 DU        184.1200  283.5400  226.9400 H         7 CUB7        0.0000 
     53 DU        187.1300  285.2500  228.1700 H         7 CUB7        0.0000 
     54 DU        188.1300  287.0200  225.1100 H         7 CUB7        0.0000 
     55 DU        188.5900  286.5500  226.4600 H         7 CUB7        0.0000 
     56 DU        189.0400  286.0900  227.8100 H         7 CUB7        0.0000 
     57 DU        188.2300  286.1200  229.7600 H         7 CUB7        0.0000 
     58 DU        189.5800  288.3200  223.3900 H         7 CUB7        0.0000 
     59 DU        188.3000  288.8200  224.0000 H         7 CUB7        0.0000 
     60 DU        188.7600  288.3500  225.3500 H         7 CUB7        0.0000 
     61 DU        190.5000  287.3900  226.0900 H         7 CUB7        0.0000 
     62 DU        189.6800  287.4200  228.0500 H         7 CUB7        0.0000 
     63 DU        190.1400  286.9600  229.4000 H         7 CUB7        0.0000 
     64 DU        191.5000  289.1600  223.0300 H         7 CUB7        0.0000 
     65 DU        191.9600  288.6900  224.3800 H         7 CUB7        0.0000 
     66 DU        192.4200  288.2300  225.7300 H         7 CUB7        0.0000 
     67 DU        191.6000  288.2600  227.6900 H         7 CUB7        0.0000 
     68 DU        192.1300  290.4900  223.2700 H         7 CUB7        0.0000 
     69 DU        192.5900  290.0300  224.6200 H         7 CUB7        0.0000 
     70 DU        193.0500  289.5600  225.9700 H         7 CUB7        0.0000 
     71 DU        193.5100  289.1000  227.3200 H         7 CUB7        0.0000 
     72 DU        193.2300  291.3600  224.8700 H         7 CUB7        0.0000 
@<TRIPOS>BOND
@<TRIPOS>SUBSTRUCTURE
     1 SER1        1 GROUP   
     2 ALA2        2 GROUP   
     3 ASP3        6 GROUP   
     4 LYS4        7 GROUP   
     5 PHE5       13 GROUP   
     6 GLY6       30 GROUP   
     7 CUB7       52 GROUP   
@<TRIPOS>SET

