#    Name: 6kac_31_NEX_CAVITY_N1_8
#    Modification time : Fri May 22 19:34:53 2020

@<TRIPOS>MOLECULE
6kac_31_NEX_CAVITY_N1_8
   34     0     6     0     0
SMALL
NO_CHARGES


@<TRIPOS>ATOM
      1 N         220.9600  257.8200  225.5500 N.am      1 ALA2        0.0000 
      2 N         221.5900  259.1500  225.7900 N.am      1 ALA2        0.0000 
      3 N         223.3300  258.1900  226.5300 N.am      1 ALA2        0.0000 
      4 N         222.0500  258.6900  227.1400 N.am      1 ALA2        0.0000 
      5 N         223.7900  257.7300  227.8800 N.am      1 ALA2        0.0000 
      6 O         227.9000  257.1400  229.6100 O.2       1 ALA2        0.0000 
      7 N         229.6300  259.3400  231.4500 N.am      1 ALA2        0.0000 
      8 OD1       225.5300  256.7600  228.6300 O.co2     2 ASP3        0.0000 
      9 NZ        223.6100  255.9300  228.9900 N.4       3 LYS4        0.0000 
     10 NZ        224.2500  257.2600  229.2300 N.4       3 LYS4        0.0000 
     11 NZ        225.9900  256.3000  229.9800 N.4       3 LYS4        0.0000 
     12 NZ        224.7100  256.8000  230.5800 N.4       3 LYS4        0.0000 
     13 CZ        226.6200  257.6300  230.2200 C.ar      4 PHE5        0.0000 
     14 CZ        225.3500  258.1300  230.8300 C.ar      4 PHE5        0.0000 
     15 CZ        228.3600  256.6700  230.9600 C.ar      4 PHE5        0.0000 
     16 CZ        225.8000  257.6700  232.1800 C.ar      4 PHE5        0.0000 
     17 CZ        224.5300  258.1700  232.7800 C.ar      4 PHE5        0.0000 
     18 CZ        229.0000  258.0100  231.2100 C.ar      4 PHE5        0.0000 
     19 CZ        227.7200  258.5100  231.8100 C.ar      4 PHE5        0.0000 
     20 CZ        226.4400  259.0000  232.4200 C.ar      4 PHE5        0.0000 
     21 CA        220.5000  258.2800  224.2000 C.3       5 GLY6        0.0000 
     22 CA        222.5100  258.2200  228.4900 C.3       5 GLY6        0.0000 
     23 CA        223.4300  257.2900  231.1900 C.3       5 GLY6        0.0000 
     24 CA        228.3600  259.8400  232.0600 C.3       5 GLY6        0.0000 
     25 DU        224.4300  259.0600  228.1300 H         6 CUB7        0.0000 
     26 DU        226.1600  258.1000  228.8700 H         6 CUB7        0.0000 
     27 DU        224.8900  258.6000  229.4800 H         6 CUB7        0.0000 
     28 DU        228.5400  258.4700  229.8600 H         6 CUB7        0.0000 
     29 DU        227.2600  258.9700  230.4600 H         6 CUB7        0.0000 
     30 DU        225.9800  259.4700  231.0700 H         6 CUB7        0.0000 
     31 DU        227.4400  260.7700  229.3600 H         6 CUB7        0.0000 
     32 DU        229.1800  259.8100  230.1000 H         6 CUB7        0.0000 
     33 DU        227.9000  260.3100  230.7100 H         6 CUB7        0.0000 
     34 DU        229.8100  261.1400  230.3400 H         6 CUB7        0.0000 
@<TRIPOS>BOND
@<TRIPOS>SUBSTRUCTURE
     1 ALA2        1 GROUP   
     2 ASP3        8 GROUP   
     3 LYS4        9 GROUP   
     4 PHE5       13 GROUP   
     5 GLY6       21 GROUP   
     6 CUB7       25 GROUP   
@<TRIPOS>SET

