#    Name: 6kac_31_NEX_CAVITY_N1_6
#    Modification time : Fri May 22 19:34:53 2020

@<TRIPOS>MOLECULE
6kac_31_NEX_CAVITY_N1_6
    9     0     4     0     0
SMALL
NO_CHARGES


@<TRIPOS>ATOM
      1 NZ        224.7100  256.8000  230.5800 N.4       1 LYS4        0.0000 
      2 CZ        225.3500  258.1300  230.8300 C.ar      2 PHE5        0.0000 
      3 CZ        225.8000  257.6700  232.1800 C.ar      2 PHE5        0.0000 
      4 CZ        224.5300  258.1700  232.7800 C.ar      2 PHE5        0.0000 
      5 CZ        227.7200  258.5100  231.8100 C.ar      2 PHE5        0.0000 
      6 CZ        226.4400  259.0000  232.4200 C.ar      2 PHE5        0.0000 
      7 CA        223.4300  257.2900  231.1900 C.3       3 GLY6        0.0000 
      8 CA        228.3600  259.8400  232.0600 C.3       3 GLY6        0.0000 
      9 DU        225.9800  259.4700  231.0700 H         4 CUB7        0.0000 
@<TRIPOS>BOND
@<TRIPOS>SUBSTRUCTURE
     1 LYS4        1 GROUP   
     2 PHE5        2 GROUP   
     3 GLY6        7 GROUP   
     4 CUB7        9 GROUP   
@<TRIPOS>SET

