#    Name: 6kac_8_LUT
#    Modification time : Fri May 22 19:33:13 2020

@<TRIPOS>MOLECULE
6kac_8_LUT
   42    43     1     0     0
SMALL
NO_CHARGES


@<TRIPOS>ATOM
      1 C1        171.3140  300.3910  239.4360 C.3       1 LUT1621     0.0000 
      2 C2        170.6020  300.2240  240.7710 C.3       1 LUT1621     0.0000 
      3 C3        169.1990  300.7810  240.8700 C.3       1 LUT1621     0.0000 
      4 C4        169.1260  302.1110  240.1590 C.3       1 LUT1621     0.0000 
      5 C5        169.4970  301.9200  238.7190 C.2       1 LUT1621     0.0000 
      6 C6        170.5540  301.1780  238.3840 C.2       1 LUT1621     0.0000 
      7 C7        171.0410  301.0750  236.9830 C.2       1 LUT1621     0.0000 
      8 C8        171.8530  301.9850  236.4410 C.2       1 LUT1621     0.0000 
      9 C9        172.3960  301.8990  235.0790 C.2       1 LUT1621     0.0000 
     10 C10       173.4760  302.6490  234.8590 C.2       1 LUT1621     0.0000 
     11 C11       174.2430  302.7290  233.6270 C.2       1 LUT1621     0.0000 
     12 C12       175.2940  303.5360  233.6910 C.2       1 LUT1621     0.0000 
     13 C13       176.2290  303.7130  232.5730 C.2       1 LUT1621     0.0000 
     14 C14       177.2480  304.5690  232.7210 C.2       1 LUT1621     0.0000 
     15 C15       178.2340  304.7640  231.6660 C.2       1 LUT1621     0.0000 
     16 C16       171.5480  299.0060  238.8790 C.3       1 LUT1621     0.0000 
     17 C17       172.6750  301.0090  239.7140 C.3       1 LUT1621     0.0000 
     18 C18       168.6230  302.5940  237.7070 C.3       1 LUT1621     0.0000 
     19 C19       171.7890  301.0290  234.0240 C.3       1 LUT1621     0.0000 
     20 C20       176.0550  302.9110  231.3210 C.3       1 LUT1621     0.0000 
     21 O3        168.8860  300.9970  242.2480 O.3       1 LUT1621     0.0000 
     22 C21       188.7800  309.2220  225.7420 C.3       1 LUT1621     0.0000 
     23 C22       189.6570  309.4740  224.5260 C.3       1 LUT1621     0.0000 
     24 C23       189.3290  310.7760  223.8200 C.3       1 LUT1621     0.0000 
     25 C24       187.8530  310.8590  223.5400 C.2       1 LUT1621     0.0000 
     26 C25       186.9420  310.1960  224.2620 C.2       1 LUT1621     0.0000 
     27 C26       187.2900  309.2550  225.3820 C.3       1 LUT1621     0.0000 
     28 C27       186.4170  309.5670  226.5780 C.2       1 LUT1621     0.0000 
     29 C28       185.6570  308.5880  227.0500 C.2       1 LUT1621     0.0000 
     30 C29       184.7680  308.7590  228.2070 C.2       1 LUT1621     0.0000 
     31 C30       184.1250  307.6730  228.6510 C.2       1 LUT1621     0.0000 
     32 C31       183.2070  307.6560  229.7830 C.2       1 LUT1621     0.0000 
     33 C32       182.1780  306.8130  229.7190 C.2       1 LUT1621     0.0000 
     34 C33       181.1930  306.7080  230.8050 C.2       1 LUT1621     0.0000 
     35 C34       180.1690  305.8450  230.7170 C.2       1 LUT1621     0.0000 
     36 C35       179.1780  305.6960  231.7800 C.2       1 LUT1621     0.0000 
     37 C36       189.1350  310.2230  226.8330 C.3       1 LUT1621     0.0000 
     38 C37       189.1260  307.8320  226.2460 C.3       1 LUT1621     0.0000 
     39 C38       185.5000  310.3800  223.9200 C.3       1 LUT1621     0.0000 
     40 C39       184.6010  310.1020  228.8470 C.3       1 LUT1621     0.0000 
     41 C40       181.3630  307.5770  232.0000 C.3       1 LUT1621     0.0000 
     42 O23       190.0380  310.7900  222.5820 O.3       1 LUT1621     0.0000 
@<TRIPOS>BOND
     1    1    2 1    
     2    1    6 1    
     3    1   16 1    
     4    1   17 1    
     5    2    3 1    
     6    3    4 1    
     7    3   21 1    
     8    4    5 1    
     9    5    6 2    
    10    5   18 1    
    11    6    7 1    
    12    7    8 2    
    13    8    9 1    
    14    9   10 2    
    15    9   19 1    
    16   10   11 1    
    17   11   12 2    
    18   12   13 1    
    19   13   14 2    
    20   13   20 1    
    21   14   15 1    
    22   15   36 2    
    23   22   23 1    
    24   22   27 1    
    25   22   37 1    
    26   22   38 1    
    27   23   24 1    
    28   24   25 1    
    29   24   42 1    
    30   25   26 2    
    31   26   27 1    
    32   26   39 1    
    33   27   28 1    
    34   28   29 2    
    35   29   30 1    
    36   30   31 2    
    37   30   40 1    
    38   31   32 1    
    39   32   33 2    
    40   33   34 1    
    41   34   35 2    
    42   34   41 1    
    43   35   36 1    
@<TRIPOS>SUBSTRUCTURE
     1 LUT1621     1 GROUP   
@<TRIPOS>SET

