#    Name: 6kac_10_NEX
#    Modification time : Fri May 22 19:33:28 2020

@<TRIPOS>MOLECULE
6kac_10_NEX
   44    46     1     0     0
SMALL
NO_CHARGES


@<TRIPOS>ATOM
      1 C1        157.4450  280.4440  223.2000 C.3       1 NEX1623     0.0000 
      2 C2        158.1330  279.6880  222.0670 C.3       1 NEX1623     0.0000 
      3 C3        157.2660  279.5890  220.8260 C.3       1 NEX1623     0.0000 
      4 C4        157.0340  280.9960  220.3080 C.3       1 NEX1623     0.0000 
      5 C5        156.2090  281.8020  221.3110 C.3       1 NEX1623     0.0000 
      6 C6        156.8500  281.7760  222.6620 C.2       1 NEX1623     0.0000 
      7 C7        156.9170  282.8340  223.3620 C.1       1 NEX1623     0.0000 
      8 C8        156.9690  283.8590  224.1030 C.2       1 NEX1623     0.0000 
      9 C9        158.2190  284.6190  224.3460 C.2       1 NEX1623     0.0000 
     10 C10       158.1430  285.7130  225.1170 C.2       1 NEX1623     0.0000 
     11 C11       159.3110  286.5280  225.4280 C.2       1 NEX1623     0.0000 
     12 C12       159.1330  287.8080  225.7270 C.2       1 NEX1623     0.0000 
     13 C13       160.2790  288.6660  226.0670 C.2       1 NEX1623     0.0000 
     14 C14       160.0760  289.8150  226.7240 C.2       1 NEX1623     0.0000 
     15 C15       161.1860  290.6810  227.1020 C.2       1 NEX1623     0.0000 
     16 C16       158.4660  280.6560  224.3040 C.3       1 NEX1623     0.0000 
     17 C17       156.3240  279.6040  223.7640 C.3       1 NEX1623     0.0000 
     18 C18       156.0610  283.2250  220.7480 C.3       1 NEX1623     0.0000 
     19 C19       159.5220  284.1940  223.7320 C.3       1 NEX1623     0.0000 
     20 C20       161.6580  288.2490  225.6730 C.3       1 NEX1623     0.0000 
     21 O3        157.9650  278.8360  219.8360 O.3       1 NEX1623     0.0000 
     22 O4        154.8950  281.2510  221.3700 O.3       1 NEX1623     0.0000 
     23 C21       161.8460  300.2680  233.9620 C.3       1 NEX1623     0.0000 
     24 C22       161.6480  301.1320  235.1940 C.3       1 NEX1623     0.0000 
     25 C23       161.0440  300.3400  236.3270 C.3       1 NEX1623     0.0000 
     26 C24       162.1290  299.3950  236.7830 C.3       1 NEX1623     0.0000 
     27 C25       162.4840  298.3750  235.7030 C.3       1 NEX1623     0.0000 
     28 C26       162.3730  298.8450  234.2350 C.3       1 NEX1623     0.0000 
     29 C27       163.5070  298.3570  233.3480 C.2       1 NEX1623     0.0000 
     30 C28       163.2800  297.4930  232.3640 C.2       1 NEX1623     0.0000 
     31 C29       164.4100  297.0590  231.5250 C.2       1 NEX1623     0.0000 
     32 C30       164.2700  296.1410  230.5680 C.2       1 NEX1623     0.0000 
     33 C31       163.0130  295.4670  230.2730 C.2       1 NEX1623     0.0000 
     34 C32       163.0640  294.4810  229.3840 C.2       1 NEX1623     0.0000 
     35 C33       161.8810  293.6970  228.9960 C.2       1 NEX1623     0.0000 
     36 C34       162.0760  292.5480  228.3400 C.2       1 NEX1623     0.0000 
     37 C35       160.9710  291.6930  227.9330 C.2       1 NEX1623     0.0000 
     38 C36       162.7720  301.0340  233.0230 C.3       1 NEX1623     0.0000 
     39 C37       160.5060  300.1040  233.2680 C.3       1 NEX1623     0.0000 
     40 C38       163.7090  297.5000  235.9890 C.3       1 NEX1623     0.0000 
     41 C39       165.7640  297.6600  231.7210 C.3       1 NEX1623     0.0000 
     42 C40       160.5040  294.1770  229.3350 C.3       1 NEX1623     0.0000 
     43 O23       160.7170  301.2140  237.4080 O.3       1 NEX1623     0.0000 
     44 O24       161.4790  297.8880  234.8110 O.3       1 NEX1623     0.0000 
@<TRIPOS>BOND
     1    1    2 1    
     2    1    6 1    
     3    1   16 1    
     4    1   17 1    
     5    2    3 1    
     6    3    4 1    
     7    3   21 1    
     8    4    5 1    
     9    5    6 1    
    10    5   18 1    
    11    5   22 1    
    12    6    7 2    
    13    7    8 2    
    14    8    9 1    
    15    9   10 2    
    16    9   19 1    
    17   10   11 1    
    18   11   12 2    
    19   12   13 1    
    20   13   14 2    
    21   13   20 1    
    22   14   15 1    
    23   15   37 2    
    24   23   24 1    
    25   23   28 1    
    26   23   38 1    
    27   23   39 1    
    28   24   25 1    
    29   25   26 1    
    30   25   43 1    
    31   26   27 1    
    32   27   28 1    
    33   27   40 1    
    34   27   44 1    
    35   28   29 1    
    36   28   44 1    
    37   29   30 2    
    38   30   31 1    
    39   31   32 2    
    40   31   41 1    
    41   32   33 1    
    42   33   34 2    
    43   34   35 1    
    44   35   36 2    
    45   35   42 1    
    46   36   37 1    
@<TRIPOS>SUBSTRUCTURE
     1 NEX1623     1 GROUP   
@<TRIPOS>SET

