#    Name: 6kac_15_NEX_CAVITY_N1_4
#    Modification time : Fri May 22 19:33:49 2020

@<TRIPOS>MOLECULE
6kac_15_NEX_CAVITY_N1_4
   11     0     4     0     0
SMALL
NO_CHARGES


@<TRIPOS>ATOM
      1 N         137.2200  312.3000  219.4700 N.am      1 ALA2        0.0000 
      2 CZ        133.8600  306.9900  220.4500 C.ar      2 PHE5        0.0000 
      3 CZ        134.4900  308.3300  220.6900 C.ar      2 PHE5        0.0000 
      4 CZ        133.2100  308.8300  221.3000 C.ar      2 PHE5        0.0000 
      5 CA        134.3100  306.5300  221.8000 C.3       3 GLY6        0.0000 
      6 CA        136.2300  307.3600  221.4400 C.3       3 GLY6        0.0000 
      7 CA        134.6700  310.1300  219.5900 C.3       3 GLY6        0.0000 
      8 CA        137.5000  310.0400  221.9200 C.3       3 GLY6        0.0000 
      9 DU        134.9500  307.8600  222.0400 H         4 CUB7        0.0000 
     10 DU        133.6700  308.3600  222.6500 H         4 CUB7        0.0000 
     11 DU        135.1300  309.6600  220.9400 H         4 CUB7        0.0000 
@<TRIPOS>BOND
@<TRIPOS>SUBSTRUCTURE
     1 ALA2        1 GROUP   
     2 PHE5        2 GROUP   
     3 GLY6        5 GROUP   
     4 CUB7        9 GROUP   
@<TRIPOS>SET

