#    Name: 6kac_5_XAT_CAVITY_N1_8
#    Modification time : Fri May 22 19:32:57 2020

@<TRIPOS>MOLECULE
6kac_5_XAT_CAVITY_N1_8
   44     0     5     0     0
SMALL
NO_CHARGES


@<TRIPOS>ATOM
      1 OG        181.9000  313.0800  246.2000 O.3       1 SER1        0.0000 
      2 OG        180.6200  313.5800  246.8100 O.3       1 SER1        0.0000 
      3 OG        182.3600  312.6200  247.5500 O.3       1 SER1        0.0000 
      4 OG        181.2600  314.9200  247.0500 O.3       1 SER1        0.0000 
      5 OG        179.9800  315.4100  247.6600 O.3       1 SER1        0.0000 
      6 OG        181.7100  314.4500  248.4000 O.3       1 SER1        0.0000 
      7 OG        180.4400  314.9500  249.0100 O.3       1 SER1        0.0000 
      8 N         180.1600  314.0400  245.4600 N.am      2 ALA2        0.0000 
      9 N         181.1600  315.8100  242.3900 N.am      2 ALA2        0.0000 
     10 N         181.6200  315.3500  243.7400 N.am      2 ALA2        0.0000 
     11 N         180.3400  315.8500  244.3500 N.am      2 ALA2        0.0000 
     12 N         180.8000  315.3800  245.7000 N.am      2 ALA2        0.0000 
     13 O         181.4300  316.7200  245.9400 O.2       2 ALA2        0.0000 
     14 N         187.4600  313.7900  246.2200 N.am      2 ALA2        0.0000 
     15 N         186.1900  314.2900  246.8300 N.am      2 ALA2        0.0000 
     16 N         181.0700  316.2900  249.2500 N.am      2 ALA2        0.0000 
     17 CZ        182.9900  313.9500  247.7900 C.ar      3 PHE5        0.0000 
     18 CA        182.0800  311.7100  244.0000 C.3       4 GLY6        0.0000 
     19 CA        183.5300  313.0100  242.2900 C.3       4 GLY6        0.0000 
     20 CA        182.2600  313.5100  242.8900 C.3       4 GLY6        0.0000 
     21 CA        180.9800  314.0100  243.5000 C.3       4 GLY6        0.0000 
     22 CA        183.9900  312.5500  243.6400 C.3       4 GLY6        0.0000 
     23 CA        182.7200  313.0500  244.2400 C.3       4 GLY6        0.0000 
     24 CA        181.4400  313.5500  244.8500 C.3       4 GLY6        0.0000 
     25 CA        185.7300  311.5900  244.3800 C.3       4 GLY6        0.0000 
     26 CA        184.4500  312.0800  244.9900 C.3       4 GLY6        0.0000 
     27 CA        183.1800  312.5800  245.5900 C.3       4 GLY6        0.0000 
     28 CA        182.8900  314.8500  243.1400 C.3       4 GLY6        0.0000 
     29 CA        184.6300  313.8900  243.8800 C.3       4 GLY6        0.0000 
     30 CA        183.3500  314.3800  244.4900 C.3       4 GLY6        0.0000 
     31 CA        182.0700  314.8800  245.0900 C.3       4 GLY6        0.0000 
     32 CA        185.0900  313.4200  245.2300 C.3       4 GLY6        0.0000 
     33 CA        183.8100  313.9200  245.8400 C.3       4 GLY6        0.0000 
     34 CA        182.5300  314.4200  246.4400 C.3       4 GLY6        0.0000 
     35 CA        186.8300  312.4600  245.9800 C.3       4 GLY6        0.0000 
     36 CA        185.5500  312.9600  246.5800 C.3       4 GLY6        0.0000 
     37 CA        184.2700  313.4500  247.1900 C.3       4 GLY6        0.0000 
     38 CA        180.9700  317.1800  244.5900 C.3       4 GLY6        0.0000 
     39 CA        187.0000  314.2600  244.8700 C.3       4 GLY6        0.0000 
     40 CA        181.8900  316.2500  247.2900 C.3       4 GLY6        0.0000 
     41 CA        180.6100  316.7500  247.9000 C.3       4 GLY6        0.0000 
     42 CA        180.3300  319.0200  245.4400 C.3       4 GLY6        0.0000 
     43 CA        180.7900  318.5500  246.7900 C.3       4 GLY6        0.0000 
     44 DU        186.3700  312.9200  244.6300 H         5 CUB7        0.0000 
@<TRIPOS>BOND
@<TRIPOS>SUBSTRUCTURE
     1 SER1        1 GROUP   
     2 ALA2        8 GROUP   
     3 PHE5       17 GROUP   
     4 GLY6       18 GROUP   
     5 CUB7       44 GROUP   
@<TRIPOS>SET

