#    Name: 6kac_8_LUT_CAVITY_N1_12
#    Modification time : Fri May 22 19:33:14 2020

@<TRIPOS>MOLECULE
6kac_8_LUT_CAVITY_N1_12
  126     0     7     0     0
SMALL
NO_CHARGES


@<TRIPOS>ATOM
      1 OG        184.4300  306.5900  219.7700 O.3       1 SER1        0.0000 
      2 OG        184.6100  308.3900  218.6700 O.3       1 SER1        0.0000 
      3 OG        185.0700  307.9300  220.0200 O.3       1 SER1        0.0000 
      4 OG        186.8000  306.9600  220.7600 O.3       1 SER1        0.0000 
      5 OG        185.5200  307.4600  221.3700 O.3       1 SER1        0.0000 
      6 OG        186.9800  308.7600  219.6500 O.3       1 SER1        0.0000 
      7 OG        189.6300  310.0400  224.1900 O.3       1 SER1        0.0000 
      8 N         182.8000  303.4900  222.5900 N.am      2 ALA2        0.0000 
      9 O         181.5200  303.9800  223.2000 O.2       2 ALA2        0.0000 
     10 N         180.7000  304.0200  225.1600 N.am      2 ALA2        0.0000 
     11 N         182.9700  305.2900  221.4900 N.am      2 ALA2        0.0000 
     12 N         181.6900  305.7900  222.0900 N.am      2 ALA2        0.0000 
     13 N         183.4300  304.8200  222.8400 N.am      2 ALA2        0.0000 
     14 N         185.2400  309.7300  218.9100 N.am      2 ALA2        0.0000 
     15 N         183.9600  310.2300  219.5200 N.am      2 ALA2        0.0000 
     16 N         185.7000  309.2600  220.2600 N.am      2 ALA2        0.0000 
     17 N         184.4200  309.7600  220.8700 N.am      2 ALA2        0.0000 
     18 N         186.1600  308.8000  221.6100 N.am      2 ALA2        0.0000 
     19 N         184.6000  311.5600  219.7600 N.am      2 ALA2        0.0000 
     20 N         183.7800  311.6000  221.7200 N.am      2 ALA2        0.0000 
     21 N         186.8000  310.1300  221.8500 N.am      2 ALA2        0.0000 
     22 N         185.5200  310.6300  222.4600 N.am      2 ALA2        0.0000 
     23 N         187.2600  309.6700  223.2000 N.am      2 ALA2        0.0000 
     24 N         183.9600  313.4000  220.6100 N.am      2 ALA2        0.0000 
     25 N         182.6800  313.8900  221.2200 N.am      2 ALA2        0.0000 
     26 N         176.7500  315.9200  225.6000 N.am      2 ALA2        0.0000 
     27 O         189.1700  310.5100  222.8400 O.2       2 ALA2        0.0000 
     28 N         187.8900  311.0000  223.4500 N.am      2 ALA2        0.0000 
     29 O         177.6700  314.9900  228.3000 O.2       2 ALA2        0.0000 
     30 N         176.1100  317.7600  226.4500 N.am      2 ALA2        0.0000 
     31 N         176.5700  317.2900  227.8000 N.am      2 ALA2        0.0000 
     32 OD1       182.6900  310.7200  220.1200 O.co2     3 ASP3        0.0000 
     33 OD1       183.3200  312.0600  220.3700 O.co2     3 ASP3        0.0000 
     34 OD1       182.5000  312.0900  222.3200 O.co2     3 ASP3        0.0000 
     35 OD1       181.8600  313.9300  223.1700 O.co2     3 ASP3        0.0000 
     36 OD1       182.0400  315.7300  222.0700 O.co2     3 ASP3        0.0000 
     37 OD1       180.7600  316.2300  222.6700 O.co2     3 ASP3        0.0000 
     38 OD1       179.4800  316.7300  223.2800 O.co2     3 ASP3        0.0000 
     39 OD1       181.2200  315.7600  224.0200 O.co2     3 ASP3        0.0000 
     40 NZ        183.1500  307.0900  220.3800 N.4       4 LYS4        0.0000 
     41 NZ        182.3300  307.1200  222.3400 N.4       4 LYS4        0.0000 
     42 NZ        183.3300  308.8900  219.2700 N.4       4 LYS4        0.0000 
     43 NZ        183.7900  308.4200  220.6200 N.4       4 LYS4        0.0000 
     44 NZ        182.5100  308.9200  221.2300 N.4       4 LYS4        0.0000 
     45 NZ        182.9700  308.4600  222.5800 N.4       4 LYS4        0.0000 
     46 NZ        182.1500  308.4900  224.5400 N.4       4 LYS4        0.0000 
     47 NZ        183.1500  310.2600  221.4700 N.4       4 LYS4        0.0000 
     48 NZ        187.4400  308.3000  221.0000 N.4       4 LYS4        0.0000 
     49 NZ        183.6000  309.7900  222.8200 N.4       4 LYS4        0.0000 
     50 NZ        182.3300  310.2900  223.4300 N.4       4 LYS4        0.0000 
     51 NZ        187.9000  307.8300  222.3500 N.4       4 LYS4        0.0000 
     52 NZ        182.7900  309.8300  224.7800 N.4       4 LYS4        0.0000 
     53 NZ        188.0800  309.6300  221.2500 N.4       4 LYS4        0.0000 
     54 NZ        188.5400  309.1700  222.6000 N.4       4 LYS4        0.0000 
     55 CZ        181.8000  301.7200  225.6600 C.ar      5 PHE5        0.0000 
     56 CZ        184.5300  302.5200  223.3400 C.ar      5 PHE5        0.0000 
     57 CZ        182.4400  303.0500  225.9000 C.ar      5 PHE5        0.0000 
     58 CZ        186.4500  303.3600  222.9700 C.ar      5 PHE5        0.0000 
     59 CZ        185.1700  303.8600  223.5800 C.ar      5 PHE5        0.0000 
     60 CZ        186.6300  305.1600  221.8700 C.ar      5 PHE5        0.0000 
     61 CZ        185.3500  305.6600  222.4700 C.ar      5 PHE5        0.0000 
     62 CZ        184.2400  311.1300  223.0700 C.ar      5 PHE5        0.0000 
     63 CZ        182.9600  311.6300  223.6700 C.ar      5 PHE5        0.0000 
     64 CZ        185.9800  310.1700  223.8100 C.ar      5 PHE5        0.0000 
     65 CZ        184.7000  310.6700  224.4200 C.ar      5 PHE5        0.0000 
     66 CZ        183.4200  311.1600  225.0200 C.ar      5 PHE5        0.0000 
     67 CZ        182.1400  311.6600  225.6300 C.ar      5 PHE5        0.0000 
     68 CZ        184.4200  312.9300  221.9600 C.ar      5 PHE5        0.0000 
     69 CZ        183.1400  313.4300  222.5700 C.ar      5 PHE5        0.0000 
     70 CZ        182.3200  313.4600  224.5200 C.ar      5 PHE5        0.0000 
     71 CZ        182.7800  313.0000  225.8700 C.ar      5 PHE5        0.0000 
     72 CZ        187.0700  311.0400  225.4000 C.ar      5 PHE5        0.0000 
     73 CZ        183.7800  314.7700  222.8100 C.ar      5 PHE5        0.0000 
     74 CZ        182.5000  315.2600  223.4200 C.ar      5 PHE5        0.0000 
     75 CZ        182.9600  314.8000  224.7700 C.ar      5 PHE5        0.0000 
     76 CZ        182.1400  314.8300  226.7200 C.ar      5 PHE5        0.0000 
     77 CZ        178.8400  318.5600  224.1300 C.ar      5 PHE5        0.0000 
     78 CZ        183.1400  316.6000  223.6600 C.ar      5 PHE5        0.0000 
     79 CZ        181.8600  317.1000  224.2700 C.ar      5 PHE5        0.0000 
     80 CZ        183.6000  316.1400  225.0100 C.ar      5 PHE5        0.0000 
     81 CZ        184.0500  315.6700  226.3600 C.ar      5 PHE5        0.0000 
     82 CA        183.2500  303.0200  223.9400 C.3       6 GLY6        0.0000 
     83 CA        181.9800  303.5200  224.5500 C.3       6 GLY6        0.0000 
     84 CA        182.1500  305.3200  223.4400 C.3       6 GLY6        0.0000 
     85 CA        180.8800  305.8200  224.0500 C.3       6 GLY6        0.0000 
     86 CA        181.3400  305.3500  225.4000 C.3       6 GLY6        0.0000 
     87 CA        180.0600  305.8500  226.0100 C.3       6 GLY6        0.0000 
     88 CA        184.8900  306.1200  221.1200 C.3       6 GLY6        0.0000 
     89 CA        183.6100  306.6200  221.7300 C.3       6 GLY6        0.0000 
     90 CA        182.7900  306.6600  223.6900 C.3       6 GLY6        0.0000 
     91 CA        187.2600  306.5000  222.1100 C.3       6 GLY6        0.0000 
     92 CA        187.7200  306.0300  223.4600 C.3       6 GLY6        0.0000 
     93 CA        178.0300  315.4200  224.9900 C.3       6 GLY6        0.0000 
     94 CA        181.0400  313.9600  225.1300 C.3       6 GLY6        0.0000 
     95 CA        179.7700  314.4600  225.7400 C.3       6 GLY6        0.0000 
     96 CA        177.2100  315.4600  226.9500 C.3       6 GLY6        0.0000 
     97 CA        181.5000  313.5000  226.4800 C.3       6 GLY6        0.0000 
     98 CA        183.3200  315.2300  221.4600 C.3       6 GLY6        0.0000 
     99 CA        176.9300  317.7200  224.4900 C.3       6 GLY6        0.0000 
    100 CA        179.9400  316.2600  224.6300 C.3       6 GLY6        0.0000 
    101 CA        178.6600  316.7600  225.2400 C.3       6 GLY6        0.0000 
    102 CA        180.4000  315.8000  225.9800 C.3       6 GLY6        0.0000 
    103 CA        179.1200  316.2900  226.5900 C.3       6 GLY6        0.0000 
    104 CA        182.6800  317.0700  222.3100 C.3       6 GLY6        0.0000 
    105 CA        177.5600  319.0600  224.7400 C.3       6 GLY6        0.0000 
    106 DU        183.8900  304.3600  224.1900 H         7 CUB7        0.0000 
    107 DU        182.6100  304.8600  224.7900 H         7 CUB7        0.0000 
    108 DU        184.0700  306.1600  223.0800 H         7 CUB7        0.0000 
    109 DU        183.2500  306.1900  225.0400 H         7 CUB7        0.0000 
    110 DU        181.9700  306.6900  225.6400 H         7 CUB7        0.0000 
    111 DU        184.2500  307.9600  221.9700 H         7 CUB7        0.0000 
    112 DU        185.9800  307.0000  222.7200 H         7 CUB7        0.0000 
    113 DU        183.4300  307.9900  223.9300 H         7 CUB7        0.0000 
    114 DU        184.8800  309.3000  222.2200 H         7 CUB7        0.0000 
    115 DU        186.6200  308.3300  222.9600 H         7 CUB7        0.0000 
    116 DU        184.0600  309.3300  224.1700 H         7 CUB7        0.0000 
    117 DU        188.9900  308.7000  223.9500 H         7 CUB7        0.0000 
    118 DU        177.3900  317.2600  225.8400 H         7 CUB7        0.0000 
    119 DU        181.6800  315.3000  225.3700 H         7 CUB7        0.0000 
    120 DU        177.8500  316.7900  227.1900 H         7 CUB7        0.0000 
    121 DU        180.8600  315.3300  227.3300 H         7 CUB7        0.0000 
    122 DU        180.5800  317.6000  224.8700 H         7 CUB7        0.0000 
    123 DU        179.3000  318.1000  225.4800 H         7 CUB7        0.0000 
    124 DU        178.0200  318.5900  226.0900 H         7 CUB7        0.0000 
    125 DU        182.3200  316.6300  225.6200 H         7 CUB7        0.0000 
    126 DU        182.7800  316.1700  226.9700 H         7 CUB7        0.0000 
@<TRIPOS>BOND
@<TRIPOS>SUBSTRUCTURE
     1 SER1        1 GROUP   
     2 ALA2        8 GROUP   
     3 ASP3       32 GROUP   
     4 LYS4       40 GROUP   
     5 PHE5       55 GROUP   
     6 GLY6       82 GROUP   
     7 CUB7      106 GROUP   
@<TRIPOS>SET

