#    Name: 6kac_5_XAT_CAVITY_N1_4
#    Modification time : Fri May 22 19:32:57 2020

@<TRIPOS>MOLECULE
6kac_5_XAT_CAVITY_N1_4
   12     0     3     0     0
SMALL
NO_CHARGES


@<TRIPOS>ATOM
      1 N         187.4600  313.7900  246.2200 N.am      1 ALA2        0.0000 
      2 N         186.1900  314.2900  246.8300 N.am      1 ALA2        0.0000 
      3 CA        185.7300  311.5900  244.3800 C.3       2 GLY6        0.0000 
      4 CA        184.4500  312.0800  244.9900 C.3       2 GLY6        0.0000 
      5 CA        184.6300  313.8900  243.8800 C.3       2 GLY6        0.0000 
      6 CA        185.0900  313.4200  245.2300 C.3       2 GLY6        0.0000 
      7 CA        183.8100  313.9200  245.8400 C.3       2 GLY6        0.0000 
      8 CA        186.8300  312.4600  245.9800 C.3       2 GLY6        0.0000 
      9 CA        185.5500  312.9600  246.5800 C.3       2 GLY6        0.0000 
     10 CA        184.2700  313.4500  247.1900 C.3       2 GLY6        0.0000 
     11 CA        187.0000  314.2600  244.8700 C.3       2 GLY6        0.0000 
     12 DU        186.3700  312.9200  244.6300 H         3 CUB7        0.0000 
@<TRIPOS>BOND
@<TRIPOS>SUBSTRUCTURE
     1 ALA2        1 GROUP   
     2 GLY6        3 GROUP   
     3 CUB7       12 GROUP   
@<TRIPOS>SET

