#    Name: 6kac_6_NEX_CAVITY_N1_8
#    Modification time : Fri May 22 19:33:06 2020

@<TRIPOS>MOLECULE
6kac_6_NEX_CAVITY_N1_8
   54     0     5     0     0
SMALL
NO_CHARGES


@<TRIPOS>ATOM
      1 O         202.9500  319.5500  229.6000 O.2       1 ALA2        0.0000 
      2 O         203.4100  319.0800  230.9500 O.2       1 ALA2        0.0000 
      3 N         200.2900  324.6100  227.2500 N.am      1 ALA2        0.0000 
      4 N         200.4600  326.4100  226.1500 N.am      1 ALA2        0.0000 
      5 NZ        201.2100  320.5100  228.8600 N.4       2 LYS4        0.0000 
      6 NZ        200.1100  322.8100  228.3600 N.4       2 LYS4        0.0000 
      7 NZ        201.8500  321.8500  229.1000 N.4       2 LYS4        0.0000 
      8 NZ        200.5700  322.3500  229.7100 N.4       2 LYS4        0.0000 
      9 CZ        203.5800  320.8800  229.8500 C.ar      3 PHE5        0.0000 
     10 CZ        202.3100  321.3800  230.4500 C.ar      3 PHE5        0.0000 
     11 CZ        204.0400  320.4200  231.2000 C.ar      3 PHE5        0.0000 
     12 CZ        204.5000  319.9500  232.5500 C.ar      3 PHE5        0.0000 
     13 CZ        202.9400  322.7200  230.7000 C.ar      3 PHE5        0.0000 
     14 CZ        203.4000  322.2500  232.0500 C.ar      3 PHE5        0.0000 
     15 CZ        202.1200  322.7500  232.6500 C.ar      3 PHE5        0.0000 
     16 CZ        202.2000  325.4500  226.8900 C.ar      3 PHE5        0.0000 
     17 CZ        203.9400  324.4900  227.6300 C.ar      3 PHE5        0.0000 
     18 CZ        199.3600  328.7100  225.6500 C.ar      3 PHE5        0.0000 
     19 CZ        202.3800  327.2500  225.7800 C.ar      3 PHE5        0.0000 
     20 CZ        202.8400  326.7900  227.1300 C.ar      3 PHE5        0.0000 
     21 CZ        200.0000  330.0500  225.8900 C.ar      3 PHE5        0.0000 
     22 CZ        203.0200  328.5900  226.0300 C.ar      3 PHE5        0.0000 
     23 CZ        199.1800  330.0800  227.8500 C.ar      3 PHE5        0.0000 
     24 CA        204.6900  318.5800  230.3500 C.3       4 GLY6        0.0000 
     25 CA        204.8600  320.3900  229.2400 C.3       4 GLY6        0.0000 
     26 CA        205.3200  319.9200  230.5900 C.3       4 GLY6        0.0000 
     27 CA        205.7800  319.4600  231.9400 C.3       4 GLY6        0.0000 
     28 CA        200.7500  324.1500  228.6000 C.3       4 GLY6        0.0000 
     29 CA        201.2100  323.6800  229.9500 C.3       4 GLY6        0.0000 
     30 CA        201.6700  323.2200  231.3000 C.3       4 GLY6        0.0000 
     31 CA        207.2400  320.7600  230.2300 C.3       4 GLY6        0.0000 
     32 CA        205.9600  321.2600  230.8300 C.3       4 GLY6        0.0000 
     33 CA        205.1400  321.2900  232.7900 C.3       4 GLY6        0.0000 
     34 CA        203.8600  321.7900  233.4000 C.3       4 GLY6        0.0000 
     35 CA        200.0100  326.8800  224.8000 C.3       4 GLY6        0.0000 
     36 CA        200.9200  325.9500  227.5000 C.3       4 GLY6        0.0000 
     37 CA        200.1800  328.6800  223.6900 C.3       4 GLY6        0.0000 
     38 CA        200.6400  328.2100  225.0400 C.3       4 GLY6        0.0000 
     39 CA        201.1000  327.7500  226.3900 C.3       4 GLY6        0.0000 
     40 CA        199.8200  328.2500  227.0000 C.3       4 GLY6        0.0000 
     41 CA        201.5600  327.2800  227.7400 C.3       4 GLY6        0.0000 
     42 CA        200.8200  330.0200  223.9300 C.3       4 GLY6        0.0000 
     43 CA        201.2800  329.5500  225.2800 C.3       4 GLY6        0.0000 
     44 CA        201.7400  329.0900  226.6300 C.3       4 GLY6        0.0000 
     45 CA        200.4600  329.5800  227.2400 C.3       4 GLY6        0.0000 
     46 CA        200.1800  331.8500  224.7800 C.3       4 GLY6        0.0000 
     47 CA        200.6400  331.3900  226.1300 C.3       4 GLY6        0.0000 
     48 DU        203.1300  321.3500  228.5000 H         5 CUB7        0.0000 
     49 DU        202.0200  323.6500  228.0000 H         5 CUB7        0.0000 
     50 DU        202.4800  323.1800  229.3500 H         5 CUB7        0.0000 
     51 DU        205.5000  321.7200  229.4800 H         5 CUB7        0.0000 
     52 DU        204.2200  322.2200  230.0900 H         5 CUB7        0.0000 
     53 DU        204.6800  321.7600  231.4400 H         5 CUB7        0.0000 
     54 DU        202.6600  324.9800  228.2400 H         5 CUB7        0.0000 
@<TRIPOS>BOND
@<TRIPOS>SUBSTRUCTURE
     1 ALA2        1 GROUP   
     2 LYS4        5 GROUP   
     3 PHE5        9 GROUP   
     4 GLY6       24 GROUP   
     5 CUB7       48 GROUP   
@<TRIPOS>SET

