#    Name: 6kac_1_PHO
#    Modification time : Fri May 22 19:32:25 2020

@<TRIPOS>MOLECULE
6kac_1_PHO
   64    69     1     0     0
SMALL
NO_CHARGES


@<TRIPOS>ATOM
      1 CHA       176.4050  224.7890  232.9350 C.2       1 PHO408      0.0000 
      2 CHB       177.2930  222.6960  237.1730 C.2       1 PHO408      0.0000 
      3 CHC       172.5580  221.5430  237.6990 C.2       1 PHO408      0.0000 
      4 CHD       171.5840  223.6100  233.4150 C.2       1 PHO408      0.0000 
      5 NA        176.5940  223.5830  235.0050 N.2       1 PHO408      0.0000 
      6 C1A       177.1480  224.3750  233.9730 C.2       1 PHO408      0.0000 
      7 C2A       178.6090  224.6200  234.2450 C.3       1 PHO408      0.0000 
      8 C3A       178.9020  223.6670  235.4250 C.3       1 PHO408      0.0000 
      9 C4A       177.5050  223.2960  235.8950 C.2       1 PHO408      0.0000 
     10 CMA       179.6640  222.4600  234.9710 C.3       1 PHO408      0.0000 
     11 CAA       178.9110  226.0270  234.6600 C.3       1 PHO408      0.0000 
     12 CBA       180.3130  226.2950  234.2050 C.3       1 PHO408      0.0000 
     13 CGA       181.0000  227.1760  235.1770 C.2       1 PHO408      0.0000 
     14 O1A       180.5110  227.9950  235.9490 O.2       1 PHO408      0.0000 
     15 O2A       182.3490  226.9940  235.1560 O.3       1 PHO408      0.0000 
     16 NB        174.8440  222.3510  237.1360 N.pl3     1 PHO408      0.0000 
     17 C1B       176.1070  222.2860  237.6940 C.2       1 PHO408      0.0000 
     18 C2B       175.9500  221.6140  239.0110 C.2       1 PHO408      0.0000 
     19 C3B       174.6270  221.2860  239.1680 C.2       1 PHO408      0.0000 
     20 C4B       173.8870  221.7240  237.9490 C.2       1 PHO408      0.0000 
     21 CMB       177.1150  221.3640  239.8530 C.3       1 PHO408      0.0000 
     22 CAB       173.9390  220.5790  240.2130 C.2       1 PHO408      0.0000 
     23 CBB       174.0810  220.7480  241.5260 C.2       1 PHO408      0.0000 
     24 NC        172.3580  222.6420  235.5410 N.2       1 PHO408      0.0000 
     25 C1C       171.8260  221.9760  236.5390 C.2       1 PHO408      0.0000 
     26 C2C       170.3790  221.7570  236.2740 C.2       1 PHO408      0.0000 
     27 C3C       170.1000  222.3570  235.0610 C.2       1 PHO408      0.0000 
     28 C4C       171.3740  222.9290  234.5730 C.2       1 PHO408      0.0000 
     29 CMC       169.4910  221.0410  237.1770 C.3       1 PHO408      0.0000 
     30 CAC       168.8300  222.4210  234.3240 C.3       1 PHO408      0.0000 
     31 CBC       168.1800  223.7830  234.3130 C.3       1 PHO408      0.0000 
     32 ND        174.0250  224.0460  233.5960 N.pl3     1 PHO408      0.0000 
     33 C1D       172.8000  224.1600  232.9360 C.2       1 PHO408      0.0000 
     34 C2D       173.0170  224.8640  231.7220 C.2       1 PHO408      0.0000 
     35 C3D       174.4040  225.1320  231.6580 C.2       1 PHO408      0.0000 
     36 C4D       174.9850  224.5940  232.8480 C.2       1 PHO408      0.0000 
     37 CMD       171.9730  225.2110  230.7660 C.3       1 PHO408      0.0000 
     38 CAD       175.4710  225.7230  230.8810 C.2       1 PHO408      0.0000 
     39 OBD       175.4240  226.2890  229.8090 O.2       1 PHO408      0.0000 
     40 CBD       176.7950  225.5340  231.6840 C.3       1 PHO408      0.0000 
     41 CGD       177.8730  224.8730  230.8700 C.2       1 PHO408      0.0000 
     42 O1D       178.8200  225.4030  230.2990 O.2       1 PHO408      0.0000 
     43 O2D       177.7610  223.5190  230.8040 O.3       1 PHO408      0.0000 
     44 CED       178.6080  222.8390  229.8760 C.3       1 PHO408      0.0000 
     45 C1        183.1320  228.1210  235.5730 C.3       1 PHO408      0.0000 
     46 C2        183.7070  227.7940  236.9010 C.2       1 PHO408      0.0000 
     47 C3        184.8990  227.1950  237.0390 C.2       1 PHO408      0.0000 
     48 C4        185.7450  226.8050  235.8890 C.3       1 PHO408      0.0000 
     49 C5        185.4630  226.8800  238.3740 C.3       1 PHO408      0.0000 
     50 C6        184.9000  227.7530  239.4760 C.3       1 PHO408      0.0000 
     51 C7        184.9120  226.9970  240.7780 C.3       1 PHO408      0.0000 
     52 C8        184.2480  227.7560  241.9070 C.3       1 PHO408      0.0000 
     53 C9        184.8530  229.1330  242.0500 C.3       1 PHO408      0.0000 
     54 C10       184.4190  226.9080  243.1570 C.3       1 PHO408      0.0000 
     55 C11       184.1690  227.6300  244.4630 C.3       1 PHO408      0.0000 
     56 C12       182.7010  227.8150  244.7720 C.3       1 PHO408      0.0000 
     57 C13       181.8350  226.5920  244.5350 C.3       1 PHO408      0.0000 
     58 C14       180.4080  227.0590  244.5580 C.3       1 PHO408      0.0000 
     59 C15       182.0560  225.5220  245.5920 C.3       1 PHO408      0.0000 
     60 C16       181.1220  224.3480  245.4220 C.3       1 PHO408      0.0000 
     61 C17       181.3040  223.3550  246.5500 C.3       1 PHO408      0.0000 
     62 C18       180.0530  222.6120  247.0020 C.3       1 PHO408      0.0000 
     63 C19       178.7490  223.2890  246.6450 C.3       1 PHO408      0.0000 
     64 C20       180.0720  221.1790  246.5310 C.3       1 PHO408      0.0000 
@<TRIPOS>BOND
     1    1    6 2    
     2    1   36 1    
     3    1   40 1    
     4    2    9 1    
     5    2   17 2    
     6    3   20 2    
     7    3   25 1    
     8    4   28 2    
     9    4   33 1    
    10    5    6 1    
    11    5    9 2    
    12    6    7 1    
    13    7    8 1    
    14    7   11 1    
    15    8    9 1    
    16    8   10 1    
    17   11   12 1    
    18   12   13 1    
    19   13   14 2    
    20   13   15 1    
    21   15   45 1    
    22   16   17 1    
    23   16   20 1    
    24   17   18 1    
    25   18   19 2    
    26   18   21 1    
    27   19   20 1    
    28   19   22 1    
    29   22   23 2    
    30   24   25 2    
    31   24   28 1    
    32   25   26 1    
    33   26   27 2    
    34   26   29 1    
    35   27   28 1    
    36   27   30 1    
    37   30   31 1    
    38   32   33 1    
    39   32   36 1    
    40   33   34 2    
    41   34   35 1    
    42   34   37 1    
    43   35   36 2    
    44   35   38 1    
    45   38   39 2    
    46   38   40 1    
    47   40   41 1    
    48   41   42 2    
    49   41   43 1    
    50   43   44 1    
    51   45   46 1    
    52   46   47 2    
    53   47   48 1    
    54   47   49 1    
    55   49   50 1    
    56   50   51 1    
    57   51   52 1    
    58   52   53 1    
    59   52   54 1    
    60   54   55 1    
    61   55   56 1    
    62   56   57 1    
    63   57   58 1    
    64   57   59 1    
    65   59   60 1    
    66   60   61 1    
    67   61   62 1    
    68   62   63 1    
    69   62   64 1    
@<TRIPOS>SUBSTRUCTURE
     1 PHO408      1 GROUP   
@<TRIPOS>SET

