#    Name: 6kac_17_LUT
#    Modification time : Fri May 22 19:33:55 2020

@<TRIPOS>MOLECULE
6kac_17_LUT
   42    43     1     0     0
SMALL
NO_CHARGES


@<TRIPOS>ATOM
      1 C1        199.8500  282.2270  241.4120 C.3       1 LUT1621     0.0000 
      2 C2        199.8120  281.7320  242.8480 C.3       1 LUT1621     0.0000 
      3 C3        200.2600  280.3070  243.0740 C.3       1 LUT1621     0.0000 
      4 C4        199.5450  279.3990  242.1090 C.3       1 LUT1621     0.0000 
      5 C5        199.6840  279.8510  240.6870 C.2       1 LUT1621     0.0000 
      6 C6        199.7470  281.1480  240.3520 C.2       1 LUT1621     0.0000 
      7 C7        199.7670  281.5760  238.9270 C.2       1 LUT1621     0.0000 
      8 C8        198.6660  281.7040  238.1790 C.2       1 LUT1621     0.0000 
      9 C9        198.7120  282.1400  236.7820 C.2       1 LUT1621     0.0000 
     10 C10       197.6160  282.7300  236.3090 C.2       1 LUT1621     0.0000 
     11 C11       197.4620  283.2520  234.9620 C.2       1 LUT1621     0.0000 
     12 C12       196.3210  283.8990  234.7910 C.2       1 LUT1621     0.0000 
     13 C13       195.8770  284.5680  233.5660 C.2       1 LUT1621     0.0000 
     14 C14       194.6300  285.0420  233.5320 C.2       1 LUT1621     0.0000 
     15 C15       194.1410  285.7510  232.3620 C.2       1 LUT1621     0.0000 
     16 C16       201.1760  282.9120  241.1760 C.3       1 LUT1621     0.0000 
     17 C17       198.7530  283.2740  241.3010 C.3       1 LUT1621     0.0000 
     18 C18       199.7540  278.7420  239.6830 C.3       1 LUT1621     0.0000 
     19 C19       199.9250  281.9270  235.9390 C.3       1 LUT1621     0.0000 
     20 C20       196.7990  284.7360  232.4010 C.3       1 LUT1621     0.0000 
     21 O3        199.8610  279.9180  244.3880 O.3       1 LUT1621     0.0000 
     22 C21       186.3520  292.4740  224.8790 C.3       1 LUT1621     0.0000 
     23 C22       186.0250  293.1540  223.5630 C.3       1 LUT1621     0.0000 
     24 C23       185.1750  292.2810  222.6610 C.3       1 LUT1621     0.0000 
     25 C24       185.8060  290.9200  222.5170 C.2       1 LUT1621     0.0000 
     26 C25       186.5520  290.3700  223.4830 C.2       1 LUT1621     0.0000 
     27 C26       187.0850  291.1530  224.6490 C.3       1 LUT1621     0.0000 
     28 C27       187.0510  290.2920  225.8910 C.2       1 LUT1621     0.0000 
     29 C28       188.1740  290.0560  226.5530 C.2       1 LUT1621     0.0000 
     30 C29       188.1910  289.2280  227.7630 C.2       1 LUT1621     0.0000 
     31 C30       189.3110  289.2440  228.4810 C.2       1 LUT1621     0.0000 
     32 C31       189.5210  288.4920  229.7040 C.2       1 LUT1621     0.0000 
     33 C32       190.7490  288.0250  229.8510 C.2       1 LUT1621     0.0000 
     34 C33       191.1610  287.2540  231.0240 C.2       1 LUT1621     0.0000 
     35 C34       192.4110  286.7990  231.0910 C.2       1 LUT1621     0.0000 
     36 C35       192.8600  286.0550  232.2570 C.2       1 LUT1621     0.0000 
     37 C36       185.0790  292.3020  225.7020 C.3       1 LUT1621     0.0000 
     38 C37       187.2870  293.3980  225.6360 C.3       1 LUT1621     0.0000 
     39 C38       186.9010  288.9200  223.3890 C.3       1 LUT1621     0.0000 
     40 C39       187.0040  288.4110  228.1550 C.3       1 LUT1621     0.0000 
     41 C40       190.1890  287.0120  232.1290 C.3       1 LUT1621     0.0000 
     42 O23       185.1100  292.9140  221.3830 O.3       1 LUT1621     0.0000 
@<TRIPOS>BOND
     1    1    2 1    
     2    1    6 1    
     3    1   16 1    
     4    1   17 1    
     5    2    3 1    
     6    3    4 1    
     7    3   21 1    
     8    4    5 1    
     9    5    6 2    
    10    5   18 1    
    11    6    7 1    
    12    7    8 2    
    13    8    9 1    
    14    9   10 2    
    15    9   19 1    
    16   10   11 1    
    17   11   12 2    
    18   12   13 1    
    19   13   14 2    
    20   13   20 1    
    21   14   15 1    
    22   15   36 2    
    23   22   23 1    
    24   22   27 1    
    25   22   37 1    
    26   22   38 1    
    27   23   24 1    
    28   24   25 1    
    29   24   42 1    
    30   25   26 2    
    31   26   27 1    
    32   26   39 1    
    33   27   28 1    
    34   28   29 2    
    35   29   30 1    
    36   30   31 2    
    37   30   40 1    
    38   31   32 1    
    39   32   33 2    
    40   33   34 1    
    41   34   35 2    
    42   34   41 1    
    43   35   36 1    
@<TRIPOS>SUBSTRUCTURE
     1 LUT1621     1 GROUP   
@<TRIPOS>SET

