#    Name: 6kac_6_NEX_CAVITY_N1_4
#    Modification time : Fri May 22 19:33:06 2020

@<TRIPOS>MOLECULE
6kac_6_NEX_CAVITY_N1_4
    3     0     2     0     0
SMALL
NO_CHARGES


@<TRIPOS>ATOM
      1 CZ        202.1200  322.7500  232.6500 C.ar      1 PHE5        0.0000 
      2 CZ        199.1800  330.0800  227.8500 C.ar      1 PHE5        0.0000 
      3 CA        203.8600  321.7900  233.4000 C.3       2 GLY6        0.0000 
@<TRIPOS>BOND
@<TRIPOS>SUBSTRUCTURE
     1 PHE5        1 GROUP   
     2 GLY6        3 GROUP   
@<TRIPOS>SET

