#    Name: 6kac_5_XAT_CAVITY_N1_6
#    Modification time : Fri May 22 19:32:57 2020

@<TRIPOS>MOLECULE
6kac_5_XAT_CAVITY_N1_6
   25     0     5     0     0
SMALL
NO_CHARGES


@<TRIPOS>ATOM
      1 OG        181.9000  313.0800  246.2000 O.3       1 SER1        0.0000 
      2 OG        182.3600  312.6200  247.5500 O.3       1 SER1        0.0000 
      3 N         187.4600  313.7900  246.2200 N.am      2 ALA2        0.0000 
      4 N         186.1900  314.2900  246.8300 N.am      2 ALA2        0.0000 
      5 CZ        182.9900  313.9500  247.7900 C.ar      3 PHE5        0.0000 
      6 CA        182.0800  311.7100  244.0000 C.3       4 GLY6        0.0000 
      7 CA        183.5300  313.0100  242.2900 C.3       4 GLY6        0.0000 
      8 CA        182.2600  313.5100  242.8900 C.3       4 GLY6        0.0000 
      9 CA        183.9900  312.5500  243.6400 C.3       4 GLY6        0.0000 
     10 CA        182.7200  313.0500  244.2400 C.3       4 GLY6        0.0000 
     11 CA        185.7300  311.5900  244.3800 C.3       4 GLY6        0.0000 
     12 CA        184.4500  312.0800  244.9900 C.3       4 GLY6        0.0000 
     13 CA        183.1800  312.5800  245.5900 C.3       4 GLY6        0.0000 
     14 CA        182.8900  314.8500  243.1400 C.3       4 GLY6        0.0000 
     15 CA        184.6300  313.8900  243.8800 C.3       4 GLY6        0.0000 
     16 CA        183.3500  314.3800  244.4900 C.3       4 GLY6        0.0000 
     17 CA        182.0700  314.8800  245.0900 C.3       4 GLY6        0.0000 
     18 CA        185.0900  313.4200  245.2300 C.3       4 GLY6        0.0000 
     19 CA        183.8100  313.9200  245.8400 C.3       4 GLY6        0.0000 
     20 CA        182.5300  314.4200  246.4400 C.3       4 GLY6        0.0000 
     21 CA        186.8300  312.4600  245.9800 C.3       4 GLY6        0.0000 
     22 CA        185.5500  312.9600  246.5800 C.3       4 GLY6        0.0000 
     23 CA        184.2700  313.4500  247.1900 C.3       4 GLY6        0.0000 
     24 CA        187.0000  314.2600  244.8700 C.3       4 GLY6        0.0000 
     25 DU        186.3700  312.9200  244.6300 H         5 CUB7        0.0000 
@<TRIPOS>BOND
@<TRIPOS>SUBSTRUCTURE
     1 SER1        1 GROUP   
     2 ALA2        3 GROUP   
     3 PHE5        5 GROUP   
     4 GLY6        6 GROUP   
     5 CUB7       25 GROUP   
@<TRIPOS>SET

