#    Name: 6kac_5_XAT
#    Modification time : Fri May 22 19:32:56 2020

@<TRIPOS>MOLECULE
6kac_5_XAT
   44    47     1     0     0
SMALL
NO_CHARGES


@<TRIPOS>ATOM
      1 C1        188.7350  312.6180  245.5200 C.3       1 XAT1622     0.0000 
      2 C2        189.2370  311.8250  246.7110 C.3       1 XAT1622     0.0000 
      3 C3        190.7060  311.5280  246.5420 C.3       1 XAT1622     0.0000 
      4 C4        191.3600  312.8630  246.8020 C.3       1 XAT1622     0.0000 
      5 C5        191.0510  313.8790  245.7050 C.3       1 XAT1622     0.0000 
      6 C6        189.6650  313.7560  245.0380 C.3       1 XAT1622     0.0000 
      7 C7        189.0220  315.0950  244.7280 C.2       1 XAT1622     0.0000 
      8 C8        188.9850  315.4660  243.4570 C.2       1 XAT1622     0.0000 
      9 C9        188.3720  316.7390  243.0590 C.2       1 XAT1622     0.0000 
     10 C10       188.3280  317.0160  241.7570 C.2       1 XAT1622     0.0000 
     11 C11       187.7100  318.2180  241.2320 C.2       1 XAT1622     0.0000 
     12 C12       188.0780  318.6550  240.0380 C.2       1 XAT1622     0.0000 
     13 C13       187.4130  319.8300  239.4640 C.2       1 XAT1622     0.0000 
     14 C14       187.8270  320.2920  238.2810 C.2       1 XAT1622     0.0000 
     15 C15       187.1180  321.4060  237.6820 C.2       1 XAT1622     0.0000 
     16 C16       187.3740  313.1680  245.9120 C.3       1 XAT1622     0.0000 
     17 C17       188.5480  311.6410  244.3670 C.3       1 XAT1622     0.0000 
     18 C18       191.5070  315.3190  245.9750 C.3       1 XAT1622     0.0000 
     19 C19       187.8270  317.6900  244.0820 C.3       1 XAT1622     0.0000 
     20 C20       186.2480  320.4530  240.1820 C.3       1 XAT1622     0.0000 
     21 O3        191.1390  310.5660  247.5090 O.3       1 XAT1622     0.0000 
     22 O4        190.8820  313.4240  244.3600 O.3       1 XAT1622     0.0000 
     23 C21       180.7070  325.8250  227.6420 C.3       1 XAT1622     0.0000 
     24 C22       180.0730  326.6030  226.5010 C.3       1 XAT1622     0.0000 
     25 C23       180.1140  328.0910  226.7560 C.3       1 XAT1622     0.0000 
     26 C24       181.5710  328.4840  226.6340 C.3       1 XAT1622     0.0000 
     27 C25       182.4530  327.8140  227.6890 C.3       1 XAT1622     0.0000 
     28 C26       181.9750  326.4600  228.2560 C.3       1 XAT1622     0.0000 
     29 C27       183.0770  325.4940  228.6430 C.2       1 XAT1622     0.0000 
     30 C28       183.3310  325.3620  229.9340 C.2       1 XAT1622     0.0000 
     31 C29       184.3620  324.4290  230.3980 C.2       1 XAT1622     0.0000 
     32 C30       184.6450  324.3980  231.7010 C.2       1 XAT1622     0.0000 
     33 C31       185.6170  323.4620  232.2390 C.2       1 XAT1622     0.0000 
     34 C32       185.5500  323.2980  233.5490 C.2       1 XAT1622     0.0000 
     35 C33       186.3990  322.3500  234.2710 C.2       1 XAT1622     0.0000 
     36 C34       186.2280  322.2600  235.5900 C.2       1 XAT1622     0.0000 
     37 C35       186.9740  321.2970  236.3740 C.2       1 XAT1622     0.0000 
     38 C36       181.0090  324.4350  227.0950 C.3       1 XAT1622     0.0000 
     39 C37       179.6840  325.6700  228.7560 C.3       1 XAT1622     0.0000 
     40 C38       183.9670  327.8600  227.4450 C.3       1 XAT1622     0.0000 
     41 C39       185.0640  323.5220  229.4370 C.3       1 XAT1622     0.0000 
     42 C40       187.3950  321.4930  233.5510 C.3       1 XAT1622     0.0000 
     43 O23       179.3560  328.7630  225.7460 O.3       1 XAT1622     0.0000 
     44 O24       181.9190  327.6740  229.0100 O.3       1 XAT1622     0.0000 
@<TRIPOS>BOND
     1    1    2 1    
     2    1    6 1    
     3    1   16 1    
     4    1   17 1    
     5    2    3 1    
     6    3    4 1    
     7    3   21 1    
     8    4    5 1    
     9    5    6 1    
    10    5   18 1    
    11    5   22 1    
    12    6    7 1    
    13    6   22 1    
    14    7    8 2    
    15    8    9 1    
    16    9   10 2    
    17    9   19 1    
    18   10   11 1    
    19   11   12 2    
    20   12   13 1    
    21   13   14 2    
    22   13   20 1    
    23   14   15 1    
    24   15   37 2    
    25   23   24 1    
    26   23   28 1    
    27   23   38 1    
    28   23   39 1    
    29   24   25 1    
    30   25   26 1    
    31   25   43 1    
    32   26   27 1    
    33   27   28 1    
    34   27   40 1    
    35   27   44 1    
    36   28   29 1    
    37   28   44 1    
    38   29   30 2    
    39   30   31 1    
    40   31   32 2    
    41   31   41 1    
    42   32   33 1    
    43   33   34 2    
    44   34   35 1    
    45   35   36 2    
    46   35   42 1    
    47   36   37 1    
@<TRIPOS>SUBSTRUCTURE
     1 XAT1622     1 GROUP   
@<TRIPOS>SET

