#    Name: 6kac_19_NEX
#    Modification time : Fri May 22 19:34:06 2020

@<TRIPOS>MOLECULE
6kac_19_NEX
   44    46     1     0     0
SMALL
NO_CHARGES


@<TRIPOS>ATOM
      1 C1        223.7200  278.0800  224.6290 C.3       1 NEX1623     0.0000 
      2 C2        223.2370  277.9860  223.1860 C.3       1 NEX1623     0.0000 
      3 C3        223.8480  276.8210  222.4240 C.3       1 NEX1623     0.0000 
      4 C4        223.4590  275.5270  223.1150 C.3       1 NEX1623     0.0000 
      5 C5        223.9820  275.4660  224.5420 C.3       1 NEX1623     0.0000 
      6 C6        223.5520  276.7180  225.2970 C.2       1 NEX1623     0.0000 
      7 C7        223.0950  276.5920  226.4780 C.1       1 NEX1623     0.0000 
      8 C8        222.6220  276.5330  227.6490 C.2       1 NEX1623     0.0000 
      9 C9        221.2480  276.9130  227.9930 C.2       1 NEX1623     0.0000 
     10 C10       220.8590  276.9220  229.2770 C.2       1 NEX1623     0.0000 
     11 C11       219.4930  277.3190  229.6160 C.2       1 NEX1623     0.0000 
     12 C12       218.8750  276.9640  230.7380 C.2       1 NEX1623     0.0000 
     13 C13       217.5030  277.4750  230.9270 C.2       1 NEX1623     0.0000 
     14 C14       216.6470  276.8500  231.7460 C.2       1 NEX1623     0.0000 
     15 C15       215.2940  277.3630  231.9360 C.2       1 NEX1623     0.0000 
     16 C16       222.9250  279.1830  225.3100 C.3       1 NEX1623     0.0000 
     17 C17       225.1690  278.5480  224.6550 C.3       1 NEX1623     0.0000 
     18 C18       223.4430  274.1790  225.1550 C.3       1 NEX1623     0.0000 
     19 C19       220.2590  277.2560  226.9200 C.3       1 NEX1623     0.0000 
     20 C20       217.0900  278.7200  230.2010 C.3       1 NEX1623     0.0000 
     21 O3        223.3350  276.8000  221.0840 O.3       1 NEX1623     0.0000 
     22 O4        225.4070  275.3350  224.5190 O.3       1 NEX1623     0.0000 
     23 C21       205.6920  273.6360  237.4760 C.3       1 NEX1623     0.0000 
     24 C22       204.8650  273.2270  238.6740 C.3       1 NEX1623     0.0000 
     25 C23       205.6870  273.2290  239.9370 C.3       1 NEX1623     0.0000 
     26 C24       205.9390  274.6800  240.2520 C.3       1 NEX1623     0.0000 
     27 C25       206.7690  275.3700  239.1720 C.3       1 NEX1623     0.0000 
     28 C26       206.6090  274.8500  237.7250 C.3       1 NEX1623     0.0000 
     29 C27       206.5800  275.9710  236.7050 C.2       1 NEX1623     0.0000 
     30 C28       207.5710  276.1210  235.8380 C.2       1 NEX1623     0.0000 
     31 C29       207.4950  277.2320  234.8810 C.2       1 NEX1623     0.0000 
     32 C30       208.5110  277.4920  234.0560 C.2       1 NEX1623     0.0000 
     33 C31       209.7440  276.7170  234.0400 C.2       1 NEX1623     0.0000 
     34 C32       210.7140  277.1710  233.2570 C.2       1 NEX1623     0.0000 
     35 C33       212.0230  276.5150  233.1330 C.2       1 NEX1623     0.0000 
     36 C34       213.0860  277.2740  232.8450 C.2       1 NEX1623     0.0000 
     37 C35       214.4230  276.7130  232.7010 C.2       1 NEX1623     0.0000 
     38 C36       204.7270  273.9000  236.3280 C.3       1 NEX1623     0.0000 
     39 C37       206.5640  272.4570  237.0780 C.3       1 NEX1623     0.0000 
     40 C38       206.8640  276.8940  239.2920 C.3       1 NEX1623     0.0000 
     41 C39       206.2670  278.0870  234.8260 C.3       1 NEX1623     0.0000 
     42 C40       212.1470  275.0360  233.3130 C.3       1 NEX1623     0.0000 
     43 O23       204.9040  272.6720  240.9910 O.3       1 NEX1623     0.0000 
     44 O24       207.7980  274.6530  238.4890 O.3       1 NEX1623     0.0000 
@<TRIPOS>BOND
     1    1    2 1    
     2    1    6 1    
     3    1   16 1    
     4    1   17 1    
     5    2    3 1    
     6    3    4 1    
     7    3   21 1    
     8    4    5 1    
     9    5    6 1    
    10    5   18 1    
    11    5   22 1    
    12    6    7 2    
    13    7    8 2    
    14    8    9 1    
    15    9   10 2    
    16    9   19 1    
    17   10   11 1    
    18   11   12 2    
    19   12   13 1    
    20   13   14 2    
    21   13   20 1    
    22   14   15 1    
    23   15   37 2    
    24   23   24 1    
    25   23   28 1    
    26   23   38 1    
    27   23   39 1    
    28   24   25 1    
    29   25   26 1    
    30   25   43 1    
    31   26   27 1    
    32   27   28 1    
    33   27   40 1    
    34   27   44 1    
    35   28   29 1    
    36   28   44 1    
    37   29   30 2    
    38   30   31 1    
    39   31   32 2    
    40   31   41 1    
    41   32   33 1    
    42   33   34 2    
    43   34   35 1    
    44   35   36 2    
    45   35   42 1    
    46   36   37 1    
@<TRIPOS>SUBSTRUCTURE
     1 NEX1623     1 GROUP   
@<TRIPOS>SET

