#    Name: 6kac_36_LUT
#    Modification time : Fri May 22 19:35:06 2020

@<TRIPOS>MOLECULE
6kac_36_LUT
   42    43     1     0     0
SMALL
NO_CHARGES


@<TRIPOS>ATOM
      1 C1        199.5100  117.1340  241.4120 C.3       1 LUT1621     0.0000 
      2 C2        199.5490  117.6300  242.8480 C.3       1 LUT1621     0.0000 
      3 C3        199.1000  119.0540  243.0740 C.3       1 LUT1621     0.0000 
      4 C4        199.8140  119.9620  242.1080 C.3       1 LUT1621     0.0000 
      5 C5        199.6760  119.5090  240.6870 C.2       1 LUT1621     0.0000 
      6 C6        199.6130  118.2120  240.3520 C.2       1 LUT1621     0.0000 
      7 C7        199.5930  117.7840  238.9270 C.2       1 LUT1621     0.0000 
      8 C8        200.6940  117.6560  238.1790 C.2       1 LUT1621     0.0000 
      9 C9        200.6480  117.2200  236.7820 C.2       1 LUT1621     0.0000 
     10 C10       201.7440  116.6290  236.3090 C.2       1 LUT1621     0.0000 
     11 C11       201.8980  116.1080  234.9620 C.2       1 LUT1621     0.0000 
     12 C12       203.0390  115.4610  234.7910 C.2       1 LUT1621     0.0000 
     13 C13       203.4830  114.7920  233.5660 C.2       1 LUT1621     0.0000 
     14 C14       204.7300  114.3180  233.5320 C.2       1 LUT1621     0.0000 
     15 C15       205.2190  113.6090  232.3620 C.2       1 LUT1621     0.0000 
     16 C16       198.1840  116.4490  241.1780 C.3       1 LUT1621     0.0000 
     17 C17       200.6070  116.0860  241.3020 C.3       1 LUT1621     0.0000 
     18 C18       199.6050  120.6180  239.6830 C.3       1 LUT1621     0.0000 
     19 C19       199.4340  117.4330  235.9390 C.3       1 LUT1621     0.0000 
     20 C20       202.5610  114.6240  232.4000 C.3       1 LUT1621     0.0000 
     21 O3        199.4990  119.4440  244.3880 O.3       1 LUT1621     0.0000 
     22 C21       213.0080  106.8860  224.8790 C.3       1 LUT1621     0.0000 
     23 C22       213.3350  106.2060  223.5630 C.3       1 LUT1621     0.0000 
     24 C23       214.1850  107.0790  222.6620 C.3       1 LUT1621     0.0000 
     25 C24       213.5540  108.4400  222.5170 C.2       1 LUT1621     0.0000 
     26 C25       212.8080  108.9890  223.4830 C.2       1 LUT1621     0.0000 
     27 C26       212.2750  108.2070  224.6490 C.3       1 LUT1621     0.0000 
     28 C27       212.3090  109.0680  225.8910 C.2       1 LUT1621     0.0000 
     29 C28       211.1860  109.3040  226.5530 C.2       1 LUT1621     0.0000 
     30 C29       211.1690  110.1320  227.7630 C.2       1 LUT1621     0.0000 
     31 C30       210.0490  110.1160  228.4810 C.2       1 LUT1621     0.0000 
     32 C31       209.8390  110.8680  229.7040 C.2       1 LUT1621     0.0000 
     33 C32       208.6110  111.3350  229.8510 C.2       1 LUT1621     0.0000 
     34 C33       208.1990  112.1060  231.0240 C.2       1 LUT1621     0.0000 
     35 C34       206.9490  112.5610  231.0910 C.2       1 LUT1621     0.0000 
     36 C35       206.5000  113.3050  232.2570 C.2       1 LUT1621     0.0000 
     37 C36       214.2810  107.0580  225.7020 C.3       1 LUT1621     0.0000 
     38 C37       212.0730  105.9620  225.6360 C.3       1 LUT1621     0.0000 
     39 C38       212.4590  110.4400  223.3890 C.3       1 LUT1621     0.0000 
     40 C39       212.3570  110.9490  228.1550 C.3       1 LUT1621     0.0000 
     41 C40       209.1710  112.3480  232.1290 C.3       1 LUT1621     0.0000 
     42 O23       214.2500  106.4460  221.3830 O.3       1 LUT1621     0.0000 
@<TRIPOS>BOND
     1    1    2 1    
     2    1    6 1    
     3    1   16 1    
     4    1   17 1    
     5    2    3 1    
     6    3    4 1    
     7    3   21 1    
     8    4    5 1    
     9    5    6 2    
    10    5   18 1    
    11    6    7 1    
    12    7    8 2    
    13    8    9 1    
    14    9   10 2    
    15    9   19 1    
    16   10   11 1    
    17   11   12 2    
    18   12   13 1    
    19   13   14 2    
    20   13   20 1    
    21   14   15 1    
    22   15   36 2    
    23   22   23 1    
    24   22   27 1    
    25   22   37 1    
    26   22   38 1    
    27   23   24 1    
    28   24   25 1    
    29   24   42 1    
    30   25   26 2    
    31   26   27 1    
    32   26   39 1    
    33   27   28 1    
    34   28   29 2    
    35   29   30 1    
    36   30   31 2    
    37   30   40 1    
    38   31   32 1    
    39   32   33 2    
    40   33   34 1    
    41   34   35 2    
    42   34   41 1    
    43   35   36 1    
@<TRIPOS>SUBSTRUCTURE
     1 LUT1621     1 GROUP   
@<TRIPOS>SET

