#    Name: 6kac_17_LUT_CAVITY_N1_4
#    Modification time : Fri May 22 19:33:56 2020

@<TRIPOS>MOLECULE
6kac_17_LUT_CAVITY_N1_4
   36     0     4     0     0
SMALL
NO_CHARGES


@<TRIPOS>ATOM
      1 NZ        188.3100  285.6500  222.9100 N.4       1 LYS4        0.0000 
      2 NZ        188.9500  286.9800  223.1500 N.4       1 LYS4        0.0000 
      3 NZ        189.4000  286.5200  224.5000 N.4       1 LYS4        0.0000 
      4 NZ        190.0400  287.8500  224.7400 N.4       1 LYS4        0.0000 
      5 CZ        187.0300  286.1400  223.5100 C.ar      2 PHE5        0.0000 
      6 CZ        187.4900  285.6800  224.8600 C.ar      2 PHE5        0.0000 
      7 CZ        186.6700  285.7100  226.8200 C.ar      2 PHE5        0.0000 
      8 CZ        187.6700  287.4800  223.7600 C.ar      2 PHE5        0.0000 
      9 CZ        186.3900  287.9800  224.3600 C.ar      2 PHE5        0.0000 
     10 CZ        186.8500  287.5100  225.7100 C.ar      2 PHE5        0.0000 
     11 CZ        187.3100  287.0500  227.0600 C.ar      2 PHE5        0.0000 
     12 CZ        193.9700  288.6300  228.6700 C.ar      2 PHE5        0.0000 
     13 CA        187.9500  285.2100  226.2100 C.3       3 GLY6        0.0000 
     14 CA        188.4100  284.7500  227.5600 C.3       3 GLY6        0.0000 
     15 CA        187.5900  284.7800  229.5200 C.3       3 GLY6        0.0000 
     16 CA        190.3200  285.5900  227.2000 C.3       3 GLY6        0.0000 
     17 CA        189.5000  285.6200  229.1600 C.3       3 GLY6        0.0000 
     18 CA        192.2400  286.4200  226.8400 C.3       3 GLY6        0.0000 
     19 CA        190.9600  286.9200  227.4400 C.3       3 GLY6        0.0000 
     20 CA        191.4200  286.4600  228.7900 C.3       3 GLY6        0.0000 
     21 CA        192.8700  287.7600  227.0800 C.3       3 GLY6        0.0000 
     22 CA        193.3300  287.3000  228.4300 C.3       3 GLY6        0.0000 
     23 CA        192.0600  287.7900  229.0400 C.3       3 GLY6        0.0000 
     24 DU        187.1300  285.2500  228.1700 H         4 CUB7        0.0000 
     25 DU        188.1300  287.0200  225.1100 H         4 CUB7        0.0000 
     26 DU        188.5900  286.5500  226.4600 H         4 CUB7        0.0000 
     27 DU        189.0400  286.0900  227.8100 H         4 CUB7        0.0000 
     28 DU        188.2300  286.1200  229.7600 H         4 CUB7        0.0000 
     29 DU        189.5800  288.3200  223.3900 H         4 CUB7        0.0000 
     30 DU        188.3000  288.8200  224.0000 H         4 CUB7        0.0000 
     31 DU        188.7600  288.3500  225.3500 H         4 CUB7        0.0000 
     32 DU        190.5000  287.3900  226.0900 H         4 CUB7        0.0000 
     33 DU        189.6800  287.4200  228.0500 H         4 CUB7        0.0000 
     34 DU        190.1400  286.9600  229.4000 H         4 CUB7        0.0000 
     35 DU        191.6000  288.2600  227.6900 H         4 CUB7        0.0000 
     36 DU        193.5100  289.1000  227.3200 H         4 CUB7        0.0000 
@<TRIPOS>BOND
@<TRIPOS>SUBSTRUCTURE
     1 LYS4        1 GROUP   
     2 PHE5        5 GROUP   
     3 GLY6       13 GROUP   
     4 CUB7       24 GROUP   
@<TRIPOS>SET

