#    Name: 6kac_31_NEX_CAVITY_N1_12
#    Modification time : Fri May 22 19:34:53 2020

@<TRIPOS>MOLECULE
6kac_31_NEX_CAVITY_N1_12
   77     0     6     0     0
SMALL
NO_CHARGES


@<TRIPOS>ATOM
      1 N         221.5000  256.8800  220.0400 N.am      1 ALA2        0.0000 
      2 N         222.1400  258.2200  220.2800 N.am      1 ALA2        0.0000 
      3 N         223.8700  257.2500  221.0300 N.am      1 ALA2        0.0000 
      4 N         222.5900  257.7500  221.6300 N.am      1 ALA2        0.0000 
      5 N         221.7800  257.7900  223.5900 N.am      1 ALA2        0.0000 
      6 O         222.2400  257.3200  224.9400 O.2       1 ALA2        0.0000 
      7 N         220.9600  257.8200  225.5500 N.am      1 ALA2        0.0000 
      8 N         221.5900  259.1500  225.7900 N.am      1 ALA2        0.0000 
      9 N         223.3300  258.1900  226.5300 N.am      1 ALA2        0.0000 
     10 N         222.0500  258.6900  227.1400 N.am      1 ALA2        0.0000 
     11 N         223.7900  257.7300  227.8800 N.am      1 ALA2        0.0000 
     12 O         227.9000  257.1400  229.6100 O.2       1 ALA2        0.0000 
     13 N         229.6300  259.3400  231.4500 N.am      1 ALA2        0.0000 
     14 OD1       226.8100  256.2600  228.0200 O.co2     2 ASP3        0.0000 
     15 OD1       225.5300  256.7600  228.6300 O.co2     2 ASP3        0.0000 
     16 OD1       227.4400  257.6000  228.2600 O.co2     2 ASP3        0.0000 
     17 NZ        224.8900  255.4300  228.3800 N.4       3 LYS4        0.0000 
     18 NZ        223.6100  255.9300  228.9900 N.4       3 LYS4        0.0000 
     19 NZ        224.2500  257.2600  229.2300 N.4       3 LYS4        0.0000 
     20 NZ        225.9900  256.3000  229.9800 N.4       3 LYS4        0.0000 
     21 NZ        224.7100  256.8000  230.5800 N.4       3 LYS4        0.0000 
     22 CZ        222.4100  259.1200  223.8300 C.ar      4 PHE5        0.0000 
     23 CZ        223.8700  260.4200  222.1200 C.ar      4 PHE5        0.0000 
     24 CZ        224.3300  259.9600  223.4700 C.ar      4 PHE5        0.0000 
     25 CZ        224.7900  259.4900  224.8200 C.ar      4 PHE5        0.0000 
     26 CZ        223.5100  259.9900  225.4300 C.ar      4 PHE5        0.0000 
     27 CZ        225.2500  259.0300  226.1700 C.ar      4 PHE5        0.0000 
     28 CZ        223.9700  259.5300  226.7800 C.ar      4 PHE5        0.0000 
     29 CZ        226.6200  257.6300  230.2200 C.ar      4 PHE5        0.0000 
     30 CZ        225.3500  258.1300  230.8300 C.ar      4 PHE5        0.0000 
     31 CZ        228.3600  256.6700  230.9600 C.ar      4 PHE5        0.0000 
     32 CZ        225.8000  257.6700  232.1800 C.ar      4 PHE5        0.0000 
     33 CZ        224.5300  258.1700  232.7800 C.ar      4 PHE5        0.0000 
     34 CZ        225.4200  260.8300  225.0600 C.ar      4 PHE5        0.0000 
     35 CZ        225.8800  260.3700  226.4100 C.ar      4 PHE5        0.0000 
     36 CZ        226.3400  259.9000  227.7600 C.ar      4 PHE5        0.0000 
     37 CZ        229.0000  258.0100  231.2100 C.ar      4 PHE5        0.0000 
     38 CZ        227.7200  258.5100  231.8100 C.ar      4 PHE5        0.0000 
     39 CZ        226.4400  259.0000  232.4200 C.ar      4 PHE5        0.0000 
     40 CZ        227.8000  261.2000  226.0500 C.ar      4 PHE5        0.0000 
     41 CA        221.0400  257.3500  218.6900 C.3       5 GLY6        0.0000 
     42 CA        224.3300  256.7900  222.3800 C.3       5 GLY6        0.0000 
     43 CA        223.0500  257.2900  222.9800 C.3       5 GLY6        0.0000 
     44 CA        220.5000  258.2800  224.2000 C.3       5 GLY6        0.0000 
     45 CA        224.4300  255.8900  227.0300 C.3       5 GLY6        0.0000 
     46 CA        224.9700  258.1200  222.6200 C.3       5 GLY6        0.0000 
     47 CA        223.6900  258.6200  223.2300 C.3       5 GLY6        0.0000 
     48 CA        225.4300  257.6600  223.9700 C.3       5 GLY6        0.0000 
     49 CA        224.1500  258.1600  224.5800 C.3       5 GLY6        0.0000 
     50 CA        224.6100  257.6900  225.9300 C.3       5 GLY6        0.0000 
     51 CA        225.0700  257.2300  227.2800 C.3       5 GLY6        0.0000 
     52 CA        222.5100  258.2200  228.4900 C.3       5 GLY6        0.0000 
     53 CA        223.4300  257.2900  231.1900 C.3       5 GLY6        0.0000 
     54 CA        225.6100  259.4600  222.8600 C.3       5 GLY6        0.0000 
     55 CA        226.0600  259.0000  224.2100 C.3       5 GLY6        0.0000 
     56 CA        226.5200  258.5300  225.5600 C.3       5 GLY6        0.0000 
     57 CA        226.9800  258.0700  226.9100 C.3       5 GLY6        0.0000 
     58 CA        226.7000  260.3300  224.4600 C.3       5 GLY6        0.0000 
     59 CA        228.3600  259.8400  232.0600 C.3       5 GLY6        0.0000 
     60 DU        222.7700  259.5500  220.5300 H         6 CUB7        0.0000 
     61 DU        223.2300  259.0900  221.8800 H         6 CUB7        0.0000 
     62 DU        222.8700  258.6600  225.1800 H         6 CUB7        0.0000 
     63 DU        225.7100  258.5600  227.5200 H         6 CUB7        0.0000 
     64 DU        224.4300  259.0600  228.1300 H         6 CUB7        0.0000 
     65 DU        226.1600  258.1000  228.8700 H         6 CUB7        0.0000 
     66 DU        224.8900  258.6000  229.4800 H         6 CUB7        0.0000 
     67 DU        227.1600  259.8700  225.8100 H         6 CUB7        0.0000 
     68 DU        227.6200  259.4000  227.1600 H         6 CUB7        0.0000 
     69 DU        228.0800  258.9400  228.5100 H         6 CUB7        0.0000 
     70 DU        228.5400  258.4700  229.8600 H         6 CUB7        0.0000 
     71 DU        227.2600  258.9700  230.4600 H         6 CUB7        0.0000 
     72 DU        225.9800  259.4700  231.0700 H         6 CUB7        0.0000 
     73 DU        228.7200  260.2700  228.7500 H         6 CUB7        0.0000 
     74 DU        227.4400  260.7700  229.3600 H         6 CUB7        0.0000 
     75 DU        229.1800  259.8100  230.1000 H         6 CUB7        0.0000 
     76 DU        227.9000  260.3100  230.7100 H         6 CUB7        0.0000 
     77 DU        229.8100  261.1400  230.3400 H         6 CUB7        0.0000 
@<TRIPOS>BOND
@<TRIPOS>SUBSTRUCTURE
     1 ALA2        1 GROUP   
     2 ASP3       14 GROUP   
     3 LYS4       17 GROUP   
     4 PHE5       22 GROUP   
     5 GLY6       41 GROUP   
     6 CUB7       60 GROUP   
@<TRIPOS>SET

