#    Name: 6kac_20_PHO
#    Modification time : Fri May 22 19:34:15 2020

@<TRIPOS>MOLECULE
6kac_20_PHO
   64    69     1     0     0
SMALL
NO_CHARGES


@<TRIPOS>ATOM
      1 CHA       222.9470  174.5690  232.9290 C.2       1 PHO408      0.0000 
      2 CHB       222.0630  176.6620  237.1680 C.2       1 PHO408      0.0000 
      3 CHC       226.7970  177.8120  237.6920 C.2       1 PHO408      0.0000 
      4 CHD       227.7680  175.7480  233.4030 C.2       1 PHO408      0.0000 
      5 NA        222.7610  175.7710  235.0010 N.2       1 PHO408      0.0000 
      6 C1A       222.2040  174.9850  233.9670 C.2       1 PHO408      0.0000 
      7 C2A       220.7410  174.7440  234.2360 C.3       1 PHO408      0.0000 
      8 C3A       220.4520  175.6900  235.4210 C.3       1 PHO408      0.0000 
      9 C4A       221.8500  176.0600  235.8910 C.2       1 PHO408      0.0000 
     10 CMA       219.6900  176.9000  234.9760 C.3       1 PHO408      0.0000 
     11 CAA       220.4350  173.3350  234.6420 C.3       1 PHO408      0.0000 
     12 CBA       219.0250  173.0600  234.2110 C.3       1 PHO408      0.0000 
     13 CGA       218.4000  172.1250  235.1740 C.2       1 PHO408      0.0000 
     14 O1A       218.9490  171.3540  235.9550 O.2       1 PHO408      0.0000 
     15 O2A       217.0410  172.1890  235.1340 O.3       1 PHO408      0.0000 
     16 NB        224.5100  177.0060  237.1320 N.pl3     1 PHO408      0.0000 
     17 C1B       223.2480  177.0720  237.6900 C.2       1 PHO408      0.0000 
     18 C2B       223.4060  177.7450  239.0070 C.2       1 PHO408      0.0000 
     19 C3B       224.7290  178.0720  239.1640 C.2       1 PHO408      0.0000 
     20 C4B       225.4680  177.6320  237.9440 C.2       1 PHO408      0.0000 
     21 CMB       222.2420  177.9960  239.8500 C.3       1 PHO408      0.0000 
     22 CAB       225.4180  178.7780  240.2090 C.2       1 PHO408      0.0000 
     23 CBB       225.2780  178.6060  241.5220 C.2       1 PHO408      0.0000 
     24 NC        226.9940  176.7140  235.5310 N.2       1 PHO408      0.0000 
     25 C1C       227.5270  177.3790  236.5300 C.2       1 PHO408      0.0000 
     26 C2C       228.9730  177.5980  236.2660 C.2       1 PHO408      0.0000 
     27 C3C       229.2520  177.0000  235.0520 C.2       1 PHO408      0.0000 
     28 C4C       227.9780  176.4280  234.5620 C.2       1 PHO408      0.0000 
     29 CMC       229.8620  178.3110  237.1700 C.3       1 PHO408      0.0000 
     30 CAC       230.5230  176.9360  234.3170 C.3       1 PHO408      0.0000 
     31 CBC       231.1710  175.5750  234.3090 C.3       1 PHO408      0.0000 
     32 ND        225.3300  175.3000  233.5910 N.pl3     1 PHO408      0.0000 
     33 C1D       226.5530  175.1930  232.9260 C.2       1 PHO408      0.0000 
     34 C2D       226.3340  174.4870  231.7120 C.2       1 PHO408      0.0000 
     35 C3D       224.9460  174.2170  231.6500 C.2       1 PHO408      0.0000 
     36 C4D       224.3680  174.7570  232.8410 C.2       1 PHO408      0.0000 
     37 CMD       227.3770  174.1390  230.7570 C.3       1 PHO408      0.0000 
     38 CAD       223.8760  173.6210  230.8770 C.2       1 PHO408      0.0000 
     39 OBD       223.9140  173.0350  229.8140 O.2       1 PHO408      0.0000 
     40 CBD       222.5530  173.8260  231.6770 C.3       1 PHO408      0.0000 
     41 CGD       221.4810  174.4960  230.8610 C.2       1 PHO408      0.0000 
     42 O1D       220.5330  173.9720  230.2860 O.2       1 PHO408      0.0000 
     43 O2D       221.6000  175.8490  230.8000 O.3       1 PHO408      0.0000 
     44 CED       220.7530  176.5400  229.8800 C.3       1 PHO408      0.0000 
     45 C1        216.3490  171.0640  235.6930 C.3       1 PHO408      0.0000 
     46 C2        215.7570  171.5030  236.9790 C.2       1 PHO408      0.0000 
     47 C3        214.5900  172.1570  237.0540 C.2       1 PHO408      0.0000 
     48 C4        213.7770  172.5080  235.8670 C.3       1 PHO408      0.0000 
     49 C5        214.0250  172.5760  238.3600 C.3       1 PHO408      0.0000 
     50 C6        214.4150  171.6370  239.4820 C.3       1 PHO408      0.0000 
     51 C7        214.4240  172.3830  240.7900 C.3       1 PHO408      0.0000 
     52 C8        215.1050  171.6160  241.9040 C.3       1 PHO408      0.0000 
     53 C9        214.5110  170.2340  242.0410 C.3       1 PHO408      0.0000 
     54 C10       214.9410  172.4540  243.1610 C.3       1 PHO408      0.0000 
     55 C11       215.1930  171.7210  244.4610 C.3       1 PHO408      0.0000 
     56 C12       216.6610  171.5440  244.7740 C.3       1 PHO408      0.0000 
     57 C13       217.5230  172.7690  244.5350 C.3       1 PHO408      0.0000 
     58 C14       218.9500  172.3050  244.5510 C.3       1 PHO408      0.0000 
     59 C15       217.3050  173.8380  245.5940 C.3       1 PHO408      0.0000 
     60 C16       218.2360  175.0140  245.4200 C.3       1 PHO408      0.0000 
     61 C17       218.0530  176.0100  246.5450 C.3       1 PHO408      0.0000 
     62 C18       219.3050  176.7490  247.0010 C.3       1 PHO408      0.0000 
     63 C19       220.6080  176.0710  246.6450 C.3       1 PHO408      0.0000 
     64 C20       219.2890  178.1830  246.5330 C.3       1 PHO408      0.0000 
@<TRIPOS>BOND
     1    1    6 2    
     2    1   36 1    
     3    1   40 1    
     4    2    9 1    
     5    2   17 2    
     6    3   20 2    
     7    3   25 1    
     8    4   28 2    
     9    4   33 1    
    10    5    6 1    
    11    5    9 2    
    12    6    7 1    
    13    7    8 1    
    14    7   11 1    
    15    8    9 1    
    16    8   10 1    
    17   11   12 1    
    18   12   13 1    
    19   13   14 2    
    20   13   15 1    
    21   15   45 1    
    22   16   17 1    
    23   16   20 1    
    24   17   18 1    
    25   18   19 2    
    26   18   21 1    
    27   19   20 1    
    28   19   22 1    
    29   22   23 2    
    30   24   25 2    
    31   24   28 1    
    32   25   26 1    
    33   26   27 2    
    34   26   29 1    
    35   27   28 1    
    36   27   30 1    
    37   30   31 1    
    38   32   33 1    
    39   32   36 1    
    40   33   34 2    
    41   34   35 1    
    42   34   37 1    
    43   35   36 2    
    44   35   38 1    
    45   38   39 2    
    46   38   40 1    
    47   40   41 1    
    48   41   42 2    
    49   41   43 1    
    50   43   44 1    
    51   45   46 1    
    52   46   47 2    
    53   47   48 1    
    54   47   49 1    
    55   49   50 1    
    56   50   51 1    
    57   51   52 1    
    58   52   53 1    
    59   52   54 1    
    60   54   55 1    
    61   55   56 1    
    62   56   57 1    
    63   57   58 1    
    64   57   59 1    
    65   59   60 1    
    66   60   61 1    
    67   61   62 1    
    68   62   63 1    
    69   62   64 1    
@<TRIPOS>SUBSTRUCTURE
     1 PHO408      1 GROUP   
@<TRIPOS>SET

