#    Name: 6kac_19_NEX_CAVITY_N1_8
#    Modification time : Fri May 22 19:34:07 2020

@<TRIPOS>MOLECULE
6kac_19_NEX_CAVITY_N1_8
   48     0     5     0     0
SMALL
NO_CHARGES


@<TRIPOS>ATOM
      1 N         211.7900  278.9600  225.9500 N.am      1 ALA2        0.0000 
      2 N         210.5100  279.4500  226.5500 N.am      1 ALA2        0.0000 
      3 N         209.2300  279.9500  227.1600 N.am      1 ALA2        0.0000 
      4 NZ        207.9500  280.4500  227.7700 N.4       2 LYS4        0.0000 
      5 NZ        206.6700  280.9500  228.3700 N.4       2 LYS4        0.0000 
      6 CZ        209.2400  276.7800  226.0700 C.ar      3 PHE5        0.0000 
      7 CZ        207.9600  277.2800  226.6700 C.ar      3 PHE5        0.0000 
      8 CZ        202.8400  279.2700  229.1000 C.ar      3 PHE5        0.0000 
      9 CZ        204.5800  278.3100  229.8400 C.ar      3 PHE5        0.0000 
     10 CZ        212.4300  277.1200  225.1000 C.ar      3 PHE5        0.0000 
     11 CZ        211.1500  277.6200  225.7000 C.ar      3 PHE5        0.0000 
     12 CZ        209.8700  278.1200  226.3100 C.ar      3 PHE5        0.0000 
     13 CZ        204.7600  280.1100  228.7300 C.ar      3 PHE5        0.0000 
     14 CZ        206.5000  279.1500  229.4800 C.ar      3 PHE5        0.0000 
     15 CZ        206.9600  278.6800  230.8300 C.ar      3 PHE5        0.0000 
     16 CZ        213.0600  278.4600  225.3400 C.ar      3 PHE5        0.0000 
     17 CZ        214.8000  277.4900  226.0800 C.ar      3 PHE5        0.0000 
     18 CZ        207.1300  280.4800  229.7200 C.ar      3 PHE5        0.0000 
     19 CZ        216.5400  276.5300  226.8300 C.ar      3 PHE5        0.0000 
     20 CA        202.2100  277.9400  228.8500 C.3       4 GLY6        0.0000 
     21 CA        203.9500  276.9700  229.6000 C.3       4 GLY6        0.0000 
     22 CA        212.2500  275.3200  226.2000 C.3       4 GLY6        0.0000 
     23 CA        203.3000  278.8100  230.4500 C.3       4 GLY6        0.0000 
     24 CA        205.0400  277.8500  231.1900 C.3       4 GLY6        0.0000 
     25 CA        213.2500  277.0900  223.1400 C.3       4 GLY6        0.0000 
     26 CA        213.7100  276.6200  224.4900 C.3       4 GLY6        0.0000 
     27 CA        215.4400  275.6600  225.2300 C.3       4 GLY6        0.0000 
     28 CA        214.1700  276.1600  225.8400 C.3       4 GLY6        0.0000 
     29 CA        212.8900  276.6600  226.4500 C.3       4 GLY6        0.0000 
     30 CA        211.6100  277.1500  227.0500 C.3       4 GLY6        0.0000 
     31 CA        210.3300  277.6500  227.6600 C.3       4 GLY6        0.0000 
     32 CA        209.0500  278.1500  228.2700 C.3       4 GLY6        0.0000 
     33 CA        207.7700  278.6500  228.8700 C.3       4 GLY6        0.0000 
     34 CA        213.5200  277.9900  226.6900 C.3       4 GLY6        0.0000 
     35 CA        208.4100  279.9900  229.1200 C.3       4 GLY6        0.0000 
     36 CA        215.2600  277.0300  227.4300 C.3       4 GLY6        0.0000 
     37 DU        202.8500  276.1000  228.0000 H         5 CUB7        0.0000 
     38 DU        206.0400  276.4400  227.0300 H         5 CUB7        0.0000 
     39 DU        203.4900  277.4400  228.2500 H         5 CUB7        0.0000 
     40 DU        205.2200  276.4800  228.9900 H         5 CUB7        0.0000 
     41 DU        206.6800  277.7800  227.2800 H         5 CUB7        0.0000 
     42 DU        205.4000  278.2800  227.8800 H         5 CUB7        0.0000 
     43 DU        204.1200  278.7800  228.4900 H         5 CUB7        0.0000 
     44 DU        207.1400  277.3100  228.6300 H         5 CUB7        0.0000 
     45 DU        205.8600  277.8100  229.2300 H         5 CUB7        0.0000 
     46 DU        208.5900  278.6200  226.9200 H         5 CUB7        0.0000 
     47 DU        207.3200  279.1100  227.5200 H         5 CUB7        0.0000 
     48 DU        206.0400  279.6100  228.1300 H         5 CUB7        0.0000 
@<TRIPOS>BOND
@<TRIPOS>SUBSTRUCTURE
     1 ALA2        1 GROUP   
     2 LYS4        4 GROUP   
     3 PHE5        6 GROUP   
     4 GLY6       20 GROUP   
     5 CUB7       37 GROUP   
@<TRIPOS>SET

