#    Name: 6kac_25_NEX_CAVITY_N1_12
#    Modification time : Fri May 22 19:34:37 2020

@<TRIPOS>MOLECULE
6kac_25_NEX_CAVITY_N1_12
   70     0     6     0     0
SMALL
NO_CHARGES


@<TRIPOS>ATOM
      1 N         197.8600   74.8900  227.0600 N.am      1 ALA2        0.0000 
      2 O         196.5800   78.5600  228.7600 O.2       1 ALA2        0.0000 
      3 O         197.2100   79.9000  229.0000 O.2       1 ALA2        0.0000 
      4 O         195.9400   80.4000  229.6100 O.2       1 ALA2        0.0000 
      5 OD1       193.1100   77.3200  226.1800 O.co2     2 ASP3        0.0000 
      6 OD1       191.8300   77.8200  226.7800 O.co2     2 ASP3        0.0000 
      7 OD1       195.0200   78.1600  225.8100 O.co2     2 ASP3        0.0000 
      8 OD1       193.7400   78.6500  226.4200 O.co2     2 ASP3        0.0000 
      9 OD1       194.3800   79.9900  226.6700 O.co2     2 ASP3        0.0000 
     10 NZ        198.9600   75.7600  228.6500 N.4       3 LYS4        0.0000 
     11 NZ        197.6800   76.2600  229.2600 N.4       3 LYS4        0.0000 
     12 NZ        197.8600   78.0600  228.1500 N.4       3 LYS4        0.0000 
     13 NZ        198.3200   77.6000  229.5000 N.4       3 LYS4        0.0000 
     14 CZ        195.0300   74.9900  224.7200 C.ar      4 PHE5        0.0000 
     15 CZ        192.4700   75.9800  225.9300 C.ar      4 PHE5        0.0000 
     16 CZ        195.4900   74.5200  226.0700 C.ar      4 PHE5        0.0000 
     17 CZ        194.2100   75.0200  226.6800 C.ar      4 PHE5        0.0000 
     18 CZ        197.2200   73.5600  226.8100 C.ar      4 PHE5        0.0000 
     19 CZ        196.8600   76.3000  231.2200 C.ar      4 PHE5        0.0000 
     20 CZ        195.5800   76.7900  231.8200 C.ar      4 PHE5        0.0000 
     21 CZ        197.0400   78.1000  230.1100 C.ar      4 PHE5        0.0000 
     22 CZ        195.7600   78.6000  230.7200 C.ar      4 PHE5        0.0000 
     23 CZ        196.2200   78.1300  232.0700 C.ar      4 PHE5        0.0000 
     24 CA        196.9400   75.8200  224.3600 C.3       5 GLY6        0.0000 
     25 CA        195.6600   76.3200  224.9600 C.3       5 GLY6        0.0000 
     26 CA        190.5500   78.3200  227.3900 C.3       5 GLY6        0.0000 
     27 CA        197.4000   75.3600  225.7100 C.3       5 GLY6        0.0000 
     28 CA        198.3200   74.4300  228.4100 C.3       5 GLY6        0.0000 
     29 CA        198.7800   73.9600  229.7600 C.3       5 GLY6        0.0000 
     30 CA        199.2400   73.5000  231.1100 C.3       5 GLY6        0.0000 
     31 CA        196.3000   77.6600  225.2100 C.3       5 GLY6        0.0000 
     32 CA        192.4700   79.1500  227.0300 C.3       5 GLY6        0.0000 
     33 CA        196.7600   77.1900  226.5600 C.3       5 GLY6        0.0000 
     34 CA        192.9300   78.6900  228.3800 C.3       5 GLY6        0.0000 
     35 CA        191.6500   79.1900  228.9800 C.3       5 GLY6        0.0000 
     36 CA        198.5000   76.2300  227.3000 C.3       5 GLY6        0.0000 
     37 CA        192.1100   78.7200  230.3300 C.3       5 GLY6        0.0000 
     38 CA        193.8400   77.7600  231.0800 C.3       5 GLY6        0.0000 
     39 CA        192.5700   78.2600  231.6800 C.3       5 GLY6        0.0000 
     40 CA        199.4200   75.3000  230.0000 C.3       5 GLY6        0.0000 
     41 CA        198.1400   75.8000  230.6100 C.3       5 GLY6        0.0000 
     42 CA        195.6600   79.4900  226.0600 C.3       5 GLY6        0.0000 
     43 CA        196.1200   79.0300  227.4100 C.3       5 GLY6        0.0000 
     44 CA        194.8400   79.5300  228.0200 C.3       5 GLY6        0.0000 
     45 CA        193.5600   80.0200  228.6200 C.3       5 GLY6        0.0000 
     46 CA        194.0200   79.5600  229.9700 C.3       5 GLY6        0.0000 
     47 CA        192.7400   80.0600  230.5800 C.3       5 GLY6        0.0000 
     48 CA        194.4800   79.0900  231.3200 C.3       5 GLY6        0.0000 
     49 CA        198.7700   77.1300  230.8500 C.3       5 GLY6        0.0000 
     50 CA        196.7600   80.3600  227.6500 C.3       5 GLY6        0.0000 
     51 CA        195.4800   80.8600  228.2600 C.3       5 GLY6        0.0000 
     52 CA        194.6600   80.9000  230.2200 C.3       5 GLY6        0.0000 
     53 DU        191.1900   76.4800  226.5400 H         6 CUB7        0.0000 
     54 DU        194.3900   76.8200  225.5700 H         6 CUB7        0.0000 
     55 DU        196.1200   75.8600  226.3100 H         6 CUB7        0.0000 
     56 DU        194.8500   76.3600  226.9200 H         6 CUB7        0.0000 
     57 DU        193.5700   76.8500  227.5300 H         6 CUB7        0.0000 
     58 DU        192.2900   77.3500  228.1300 H         6 CUB7        0.0000 
     59 DU        191.0100   77.8500  228.7400 H         6 CUB7        0.0000 
     60 DU        196.5800   75.3900  227.6700 H         6 CUB7        0.0000 
     61 DU        195.3000   75.8900  228.2700 H         6 CUB7        0.0000 
     62 DU        197.0400   74.9300  229.0200 H         6 CUB7        0.0000 
     63 DU        195.4800   77.6900  227.1700 H         6 CUB7        0.0000 
     64 DU        194.2000   78.1900  227.7700 H         6 CUB7        0.0000 
     65 DU        197.2200   76.7300  227.9100 H         6 CUB7        0.0000 
     66 DU        195.9400   77.2300  228.5200 H         6 CUB7        0.0000 
     67 DU        193.3900   78.2200  229.7300 H         6 CUB7        0.0000 
     68 DU        196.4000   76.7600  229.8700 H         6 CUB7        0.0000 
     69 DU        195.1200   77.2600  230.4700 H         6 CUB7        0.0000 
     70 DU        195.3000   79.0600  229.3700 H         6 CUB7        0.0000 
@<TRIPOS>BOND
@<TRIPOS>SUBSTRUCTURE
     1 ALA2        1 GROUP   
     2 ASP3        5 GROUP   
     3 LYS4       10 GROUP   
     4 PHE5       14 GROUP   
     5 GLY6       24 GROUP   
     6 CUB7       53 GROUP   
@<TRIPOS>SET

