#    Name: 6kac_25_NEX
#    Modification time : Fri May 22 19:34:36 2020

@<TRIPOS>MOLECULE
6kac_25_NEX
   44    46     1     0     0
SMALL
NO_CHARGES


@<TRIPOS>ATOM
      1 C1        203.2390   60.2110  224.1260 C.3       1 NEX1623     0.0000 
      2 C2        204.1080   59.6380  223.0240 C.3       1 NEX1623     0.0000 
      3 C3        204.4780   60.7100  222.0150 C.3       1 NEX1623     0.0000 
      4 C4        205.3930   61.6860  222.7330 C.3       1 NEX1623     0.0000 
      5 C5        204.6460   62.4190  223.8250 C.3       1 NEX1623     0.0000 
      6 C6        203.8840   61.4470  224.7220 C.2       1 NEX1623     0.0000 
      7 C7        203.7180   61.7240  225.9510 C.1       1 NEX1623     0.0000 
      8 C8        203.5030   62.0350  227.1670 C.2       1 NEX1623     0.0000 
      9 C9        202.9610   63.3540  227.5300 C.2       1 NEX1623     0.0000 
     10 C10       202.7900   63.6660  228.8270 C.2       1 NEX1623     0.0000 
     11 C11       202.2940   64.9750  229.2360 C.2       1 NEX1623     0.0000 
     12 C12       201.9040   65.2250  230.4800 C.2       1 NEX1623     0.0000 
     13 C13       201.4350   66.5840  230.8250 C.2       1 NEX1623     0.0000 
     14 C14       200.6680   66.8000  231.9130 C.2       1 NEX1623     0.0000 
     15 C15       200.2270   68.1590  232.2270 C.2       1 NEX1623     0.0000 
     16 C16       203.0260   59.1290  225.1740 C.3       1 NEX1623     0.0000 
     17 C17       201.8620   60.5880  223.5320 C.3       1 NEX1623     0.0000 
     18 C18       205.6490   63.2470  224.6060 C.3       1 NEX1623     0.0000 
     19 C19       202.6240   64.3780  226.4630 C.3       1 NEX1623     0.0000 
     20 C20       201.8260   67.7250  229.9310 C.3       1 NEX1623     0.0000 
     21 O3        205.1450   60.1130  220.8970 O.3       1 NEX1623     0.0000 
     22 O4        203.7160   63.3310  223.1940 O.3       1 NEX1623     0.0000 
     23 C21       193.1260   74.2670  239.6310 C.3       1 NEX1623     0.0000 
     24 C22       192.6740   74.8730  240.9490 C.3       1 NEX1623     0.0000 
     25 C23       193.3110   74.1420  242.1080 C.3       1 NEX1623     0.0000 
     26 C24       194.7610   74.5670  242.1060 C.3       1 NEX1623     0.0000 
     27 C25       195.4980   74.2210  240.8080 C.3       1 NEX1623     0.0000 
     28 C26       194.6550   74.0920  239.5150 C.3       1 NEX1623     0.0000 
     29 C27       195.3330   74.6900  238.2910 C.2       1 NEX1623     0.0000 
     30 C28       195.7990   73.9050  237.3180 C.2       1 NEX1623     0.0000 
     31 C29       196.4410   74.5310  236.1470 C.2       1 NEX1623     0.0000 
     32 C30       197.0460   73.8060  235.1940 C.2       1 NEX1623     0.0000 
     33 C31       197.1470   72.3490  235.2150 C.2       1 NEX1623     0.0000 
     34 C32       197.7920   71.7660  234.2030 C.2       1 NEX1623     0.0000 
     35 C33       197.9760   70.3050  234.0970 C.2       1 NEX1623     0.0000 
     36 C34       198.8430   69.8440  233.1870 C.2       1 NEX1623     0.0000 
     37 C35       199.1530   68.4320  232.9680 C.2       1 NEX1623     0.0000 
     38 C36       192.5800   75.1370  238.5040 C.3       1 NEX1623     0.0000 
     39 C37       192.4850   72.8920  239.4980 C.3       1 NEX1623     0.0000 
     40 C38       196.8430   74.9300  240.6180 C.3       1 NEX1623     0.0000 
     41 C39       196.4100   76.0240  236.0060 C.3       1 NEX1623     0.0000 
     42 C40       197.2120   69.3640  234.9780 C.3       1 NEX1623     0.0000 
     43 O23       192.7070   74.5510  243.3370 O.3       1 NEX1623     0.0000 
     44 O24       195.2690   72.9690  240.1560 O.3       1 NEX1623     0.0000 
@<TRIPOS>BOND
     1    1    2 1    
     2    1    6 1    
     3    1   16 1    
     4    1   17 1    
     5    2    3 1    
     6    3    4 1    
     7    3   21 1    
     8    4    5 1    
     9    5    6 1    
    10    5   18 1    
    11    5   22 1    
    12    6    7 2    
    13    7    8 2    
    14    8    9 1    
    15    9   10 2    
    16    9   19 1    
    17   10   11 1    
    18   11   12 2    
    19   12   13 1    
    20   13   14 2    
    21   13   20 1    
    22   14   15 1    
    23   15   37 2    
    24   23   24 1    
    25   23   28 1    
    26   23   38 1    
    27   23   39 1    
    28   24   25 1    
    29   25   26 1    
    30   25   43 1    
    31   26   27 1    
    32   27   28 1    
    33   27   40 1    
    34   27   44 1    
    35   28   29 1    
    36   28   44 1    
    37   29   30 2    
    38   30   31 1    
    39   31   32 2    
    40   31   41 1    
    41   32   33 1    
    42   33   34 2    
    43   34   35 1    
    44   35   36 2    
    45   35   42 1    
    46   36   37 1    
@<TRIPOS>SUBSTRUCTURE
     1 NEX1623     1 GROUP   
@<TRIPOS>SET

