#    Name: 6kac_38_NEX_CAVITY_N1_6
#    Modification time : Fri May 22 19:35:18 2020

@<TRIPOS>MOLECULE
6kac_38_NEX_CAVITY_N1_6
   22     0     3     0     0
SMALL
NO_CHARGES


@<TRIPOS>ATOM
      1 CZ        185.4400  121.4800  225.6600 C.ar      1 PHE5        0.0000 
      2 CZ        184.1600  121.9800  226.2700 C.ar      1 PHE5        0.0000 
      3 CZ        182.8900  122.4800  226.8800 C.ar      1 PHE5        0.0000 
      4 CZ        193.6700  120.3000  229.1300 C.ar      1 PHE5        0.0000 
      5 CA        183.7100  122.4400  224.9200 C.3       2 GLY6        0.0000 
      6 CA        182.4300  122.9400  225.5300 C.3       2 GLY6        0.0000 
      7 CA        183.3500  122.0100  228.2300 C.3       2 GLY6        0.0000 
      8 CA        184.3400  123.7800  225.1600 C.3       2 GLY6        0.0000 
      9 CA        183.0600  124.2800  225.7700 C.3       2 GLY6        0.0000 
     10 CA        184.8000  123.3100  226.5100 C.3       2 GLY6        0.0000 
     11 CA        186.5400  122.3500  227.2600 C.3       2 GLY6        0.0000 
     12 CA        185.2600  122.8500  227.8600 C.3       2 GLY6        0.0000 
     13 CA        188.2800  121.3900  228.0000 C.3       2 GLY6        0.0000 
     14 CA        190.0100  120.4200  228.7500 C.3       2 GLY6        0.0000 
     15 CA        191.7500  119.4600  229.4900 C.3       2 GLY6        0.0000 
     16 CA        190.6500  121.7600  228.9900 C.3       2 GLY6        0.0000 
     17 CA        194.7600  121.1700  230.7200 C.3       2 GLY6        0.0000 
     18 DU        190.1900  122.2300  227.6400 H         3 CUB7        0.0000 
     19 DU        191.9300  121.2600  228.3800 H         3 CUB7        0.0000 
     20 DU        192.3900  120.8000  229.7300 H         3 CUB7        0.0000 
     21 DU        194.3000  121.6300  229.3700 H         3 CUB7        0.0000 
     22 DU        193.0200  122.1300  229.9800 H         3 CUB7        0.0000 
@<TRIPOS>BOND
@<TRIPOS>SUBSTRUCTURE
     1 PHE5        1 GROUP   
     2 GLY6        5 GROUP   
     3 CUB7       18 GROUP   
@<TRIPOS>SET

