#    Name: 6kac_25_NEX_CAVITY_N1_8
#    Modification time : Fri May 22 19:34:37 2020

@<TRIPOS>MOLECULE
6kac_25_NEX_CAVITY_N1_8
   34     0     5     0     0
SMALL
NO_CHARGES


@<TRIPOS>ATOM
      1 N         197.8600   74.8900  227.0600 N.am      1 ALA2        0.0000 
      2 O         196.5800   78.5600  228.7600 O.2       1 ALA2        0.0000 
      3 O         195.9400   80.4000  229.6100 O.2       1 ALA2        0.0000 
      4 NZ        198.9600   75.7600  228.6500 N.4       2 LYS4        0.0000 
      5 NZ        197.6800   76.2600  229.2600 N.4       2 LYS4        0.0000 
      6 NZ        198.3200   77.6000  229.5000 N.4       2 LYS4        0.0000 
      7 CZ        197.2200   73.5600  226.8100 C.ar      3 PHE5        0.0000 
      8 CZ        196.8600   76.3000  231.2200 C.ar      3 PHE5        0.0000 
      9 CZ        195.5800   76.7900  231.8200 C.ar      3 PHE5        0.0000 
     10 CZ        197.0400   78.1000  230.1100 C.ar      3 PHE5        0.0000 
     11 CZ        195.7600   78.6000  230.7200 C.ar      3 PHE5        0.0000 
     12 CZ        196.2200   78.1300  232.0700 C.ar      3 PHE5        0.0000 
     13 CA        198.3200   74.4300  228.4100 C.3       4 GLY6        0.0000 
     14 CA        198.7800   73.9600  229.7600 C.3       4 GLY6        0.0000 
     15 CA        199.2400   73.5000  231.1100 C.3       4 GLY6        0.0000 
     16 CA        192.1100   78.7200  230.3300 C.3       4 GLY6        0.0000 
     17 CA        193.8400   77.7600  231.0800 C.3       4 GLY6        0.0000 
     18 CA        192.5700   78.2600  231.6800 C.3       4 GLY6        0.0000 
     19 CA        199.4200   75.3000  230.0000 C.3       4 GLY6        0.0000 
     20 CA        198.1400   75.8000  230.6100 C.3       4 GLY6        0.0000 
     21 CA        194.0200   79.5600  229.9700 C.3       4 GLY6        0.0000 
     22 CA        192.7400   80.0600  230.5800 C.3       4 GLY6        0.0000 
     23 CA        194.4800   79.0900  231.3200 C.3       4 GLY6        0.0000 
     24 CA        198.7700   77.1300  230.8500 C.3       4 GLY6        0.0000 
     25 CA        194.6600   80.9000  230.2200 C.3       4 GLY6        0.0000 
     26 DU        196.5800   75.3900  227.6700 H         5 CUB7        0.0000 
     27 DU        195.3000   75.8900  228.2700 H         5 CUB7        0.0000 
     28 DU        197.0400   74.9300  229.0200 H         5 CUB7        0.0000 
     29 DU        197.2200   76.7300  227.9100 H         5 CUB7        0.0000 
     30 DU        195.9400   77.2300  228.5200 H         5 CUB7        0.0000 
     31 DU        193.3900   78.2200  229.7300 H         5 CUB7        0.0000 
     32 DU        196.4000   76.7600  229.8700 H         5 CUB7        0.0000 
     33 DU        195.1200   77.2600  230.4700 H         5 CUB7        0.0000 
     34 DU        195.3000   79.0600  229.3700 H         5 CUB7        0.0000 
@<TRIPOS>BOND
@<TRIPOS>SUBSTRUCTURE
     1 ALA2        1 GROUP   
     2 LYS4        4 GROUP   
     3 PHE5        7 GROUP   
     4 GLY6       13 GROUP   
     5 CUB7       26 GROUP   
@<TRIPOS>SET

