#    Name: 6kac_12_NEX_CAVITY_N1_8
#    Modification time : Fri May 22 19:33:42 2020

@<TRIPOS>MOLECULE
6kac_12_NEX_CAVITY_N1_8
   28     0     6     0     0
SMALL
NO_CHARGES


@<TRIPOS>ATOM
      1 O         169.5300  141.5100  231.3100 O.2       1 ALA2        0.0000 
      2 N         176.9100  140.7800  225.2100 N.am      1 ALA2        0.0000 
      3 N         176.1000  140.8200  227.1700 N.am      1 ALA2        0.0000 
      4 O         170.9800  142.8100  229.6000 O.2       1 ALA2        0.0000 
      5 N         177.5500  142.1200  225.4600 N.am      1 ALA2        0.0000 
      6 N         175.4500  142.6500  228.0200 N.am      1 ALA2        0.0000 
      7 OD1       173.5400  141.8100  228.3800 O.co2     2 ASP3        0.0000 
      8 NZ        174.1800  143.1500  228.6300 N.4       3 LYS4        0.0000 
      9 NZ        174.6300  142.6800  229.9800 N.4       3 LYS4        0.0000 
     10 NZ        175.0900  142.2200  231.3300 N.4       3 LYS4        0.0000 
     11 CZ        171.2600  140.5400  232.0500 C.ar      4 PHE5        0.0000 
     12 CZ        172.7200  141.8500  230.3400 C.ar      4 PHE5        0.0000 
     13 CZ        171.4400  142.3400  230.9500 C.ar      4 PHE5        0.0000 
     14 CZ        173.1800  141.3800  231.6900 C.ar      4 PHE5        0.0000 
     15 CZ        173.6400  140.9200  233.0400 C.ar      4 PHE5        0.0000 
     16 CZ        175.5500  141.7500  232.6800 C.ar      4 PHE5        0.0000 
     17 CA        168.8900  140.1700  231.0700 C.3       5 GLY6        0.0000 
     18 CA        169.3500  139.7100  232.4200 C.3       5 GLY6        0.0000 
     19 CA        175.9100  142.1900  229.3700 C.3       5 GLY6        0.0000 
     20 CA        176.3700  141.7200  230.7200 C.3       5 GLY6        0.0000 
     21 DU        170.1700  139.6700  230.4600 H         6 CUB7        0.0000 
     22 DU        172.0800  140.5100  230.1000 H         6 CUB7        0.0000 
     23 DU        170.8100  141.0100  230.7000 H         6 CUB7        0.0000 
     24 DU        172.5400  140.0400  231.4500 H         6 CUB7        0.0000 
     25 DU        174.8200  141.3100  227.7800 H         6 CUB7        0.0000 
     26 DU        175.2800  140.8500  229.1300 H         6 CUB7        0.0000 
     27 DU        174.0000  141.3500  229.7300 H         6 CUB7        0.0000 
     28 DU        174.4600  140.8800  231.0800 H         6 CUB7        0.0000 
@<TRIPOS>BOND
@<TRIPOS>SUBSTRUCTURE
     1 ALA2        1 GROUP   
     2 ASP3        7 GROUP   
     3 LYS4        8 GROUP   
     4 PHE5       11 GROUP   
     5 GLY6       17 GROUP   
     6 CUB7       21 GROUP   
@<TRIPOS>SET

