#    Name: 6kac_12_NEX_CAVITY_N1_12
#    Modification time : Fri May 22 19:33:42 2020

@<TRIPOS>MOLECULE
6kac_12_NEX_CAVITY_N1_12
   89     0     6     0     0
SMALL
NO_CHARGES


@<TRIPOS>ATOM
      1 O         169.5300  141.5100  231.3100 O.2       1 ALA2        0.0000 
      2 N         178.5500  140.7200  221.3000 N.am      1 ALA2        0.0000 
      3 N         177.2700  141.2100  221.9100 N.am      1 ALA2        0.0000 
      4 N         177.7300  140.7500  223.2600 N.am      1 ALA2        0.0000 
      5 N         176.9100  140.7800  225.2100 N.am      1 ALA2        0.0000 
      6 N         176.1000  140.8200  227.1700 N.am      1 ALA2        0.0000 
      7 O         170.9800  142.8100  229.6000 O.2       1 ALA2        0.0000 
      8 N         177.5500  142.1200  225.4600 N.am      1 ALA2        0.0000 
      9 N         175.4500  142.6500  228.0200 N.am      1 ALA2        0.0000 
     10 OD1       167.3400  136.5900  227.0300 O.co2     2 ASP3        0.0000 
     11 OD1       169.2500  137.4300  226.6700 O.co2     2 ASP3        0.0000 
     12 OD1       170.7100  138.7300  224.9500 O.co2     2 ASP3        0.0000 
     13 OD1       169.8900  138.7700  226.9100 O.co2     2 ASP3        0.0000 
     14 OD1       171.3500  140.0700  225.2000 O.co2     2 ASP3        0.0000 
     15 OD1       170.0700  140.5700  225.8000 O.co2     2 ASP3        0.0000 
     16 OD1       170.5300  140.1000  227.1500 O.co2     2 ASP3        0.0000 
     17 OD1       171.8000  142.7800  227.6400 O.co2     2 ASP3        0.0000 
     18 OD1       173.5400  141.8100  228.3800 O.co2     2 ASP3        0.0000 
     19 OD1       172.2600  142.3100  228.9900 O.co2     2 ASP3        0.0000 
     20 NZ        174.1800  143.1500  228.6300 N.4       3 LYS4        0.0000 
     21 NZ        174.6300  142.6800  229.9800 N.4       3 LYS4        0.0000 
     22 NZ        175.0900  142.2200  231.3300 N.4       3 LYS4        0.0000 
     23 CZ        170.5300  136.9300  226.0600 C.ar      4 PHE5        0.0000 
     24 CZ        172.4500  137.7700  225.7000 C.ar      4 PHE5        0.0000 
     25 CZ        171.1700  138.2700  226.3000 C.ar      4 PHE5        0.0000 
     26 CZ        176.0000  138.5400  221.4200 C.ar      4 PHE5        0.0000 
     27 CZ        173.9000  139.0700  223.9800 C.ar      4 PHE5        0.0000 
     28 CZ        173.0800  139.1100  225.9400 C.ar      4 PHE5        0.0000 
     29 CZ        173.5400  138.6400  227.2900 C.ar      4 PHE5        0.0000 
     30 CZ        177.1000  139.4100  223.0100 C.ar      4 PHE5        0.0000 
     31 CZ        175.8200  139.9100  223.6200 C.ar      4 PHE5        0.0000 
     32 CZ        174.5400  140.4100  224.2300 C.ar      4 PHE5        0.0000 
     33 CZ        176.2800  139.4500  224.9700 C.ar      4 PHE5        0.0000 
     34 CZ        175.0000  139.9400  225.5800 C.ar      4 PHE5        0.0000 
     35 CZ        175.4600  139.4800  226.9300 C.ar      4 PHE5        0.0000 
     36 CZ        174.1800  139.9800  227.5300 C.ar      4 PHE5        0.0000 
     37 CZ        171.2600  140.5400  232.0500 C.ar      4 PHE5        0.0000 
     38 CZ        172.7200  141.8500  230.3400 C.ar      4 PHE5        0.0000 
     39 CZ        171.4400  142.3400  230.9500 C.ar      4 PHE5        0.0000 
     40 CZ        173.1800  141.3800  231.6900 C.ar      4 PHE5        0.0000 
     41 CZ        173.6400  140.9200  233.0400 C.ar      4 PHE5        0.0000 
     42 CZ        175.5500  141.7500  232.6800 C.ar      4 PHE5        0.0000 
     43 CA        171.9900  138.2400  224.3500 C.3       5 GLY6        0.0000 
     44 CA        169.0700  138.8000  228.8700 C.3       5 GLY6        0.0000 
     45 CA        172.6300  139.5700  224.5900 C.3       5 GLY6        0.0000 
     46 CA        169.2500  140.6000  227.7600 C.3       5 GLY6        0.0000 
     47 CA        169.7100  140.1400  229.1100 C.3       5 GLY6        0.0000 
     48 CA        168.8900  140.1700  231.0700 C.3       5 GLY6        0.0000 
     49 CA        169.3500  139.7100  232.4200 C.3       5 GLY6        0.0000 
     50 CA        175.3600  140.3800  222.2700 C.3       5 GLY6        0.0000 
     51 CA        174.0800  140.8700  222.8800 C.3       5 GLY6        0.0000 
     52 CA        173.2600  140.9100  224.8300 C.3       5 GLY6        0.0000 
     53 CA        171.9800  141.4100  225.4400 C.3       5 GLY6        0.0000 
     54 CA        170.7100  141.9000  226.0500 C.3       5 GLY6        0.0000 
     55 CA        172.4400  140.9400  226.7900 C.3       5 GLY6        0.0000 
     56 CA        171.1600  141.4400  227.4000 C.3       5 GLY6        0.0000 
     57 CA        169.8900  141.9400  228.0000 C.3       5 GLY6        0.0000 
     58 CA        169.0700  141.9700  229.9600 C.3       5 GLY6        0.0000 
     59 CA        176.0000  141.7100  222.5100 C.3       5 GLY6        0.0000 
     60 CA        174.7200  142.2100  223.1200 C.3       5 GLY6        0.0000 
     61 CA        176.4500  141.2500  223.8600 C.3       5 GLY6        0.0000 
     62 CA        175.1800  141.7500  224.4700 C.3       5 GLY6        0.0000 
     63 CA        175.6400  141.2800  225.8200 C.3       5 GLY6        0.0000 
     64 CA        174.3600  141.7800  226.4300 C.3       5 GLY6        0.0000 
     65 CA        173.0800  142.2800  227.0300 C.3       5 GLY6        0.0000 
     66 CA        170.5200  143.2700  228.2500 C.3       5 GLY6        0.0000 
     67 CA        176.2700  142.6200  226.0600 C.3       5 GLY6        0.0000 
     68 CA        174.9900  143.1200  226.6700 C.3       5 GLY6        0.0000 
     69 CA        175.9100  142.1900  229.3700 C.3       5 GLY6        0.0000 
     70 CA        176.3700  141.7200  230.7200 C.3       5 GLY6        0.0000 
     71 DU        168.6200  136.1000  226.4200 H         6 CUB7        0.0000 
     72 DU        170.3500  138.3000  228.2600 H         6 CUB7        0.0000 
     73 DU        171.8100  139.6100  226.5500 H         6 CUB7        0.0000 
     74 DU        172.2700  139.1400  227.9000 H         6 CUB7        0.0000 
     75 DU        170.9900  139.6400  228.5000 H         6 CUB7        0.0000 
     76 DU        170.1700  139.6700  230.4600 H         6 CUB7        0.0000 
     77 DU        177.9200  139.3800  221.0600 H         6 CUB7        0.0000 
     78 DU        176.6400  139.8800  221.6600 H         6 CUB7        0.0000 
     79 DU        173.7200  140.4400  226.1800 H         6 CUB7        0.0000 
     80 DU        172.9000  140.4800  228.1400 H         6 CUB7        0.0000 
     81 DU        171.6200  140.9700  228.7500 H         6 CUB7        0.0000 
     82 DU        170.3500  141.4700  229.3500 H         6 CUB7        0.0000 
     83 DU        172.0800  140.5100  230.1000 H         6 CUB7        0.0000 
     84 DU        170.8100  141.0100  230.7000 H         6 CUB7        0.0000 
     85 DU        172.5400  140.0400  231.4500 H         6 CUB7        0.0000 
     86 DU        174.8200  141.3100  227.7800 H         6 CUB7        0.0000 
     87 DU        175.2800  140.8500  229.1300 H         6 CUB7        0.0000 
     88 DU        174.0000  141.3500  229.7300 H         6 CUB7        0.0000 
     89 DU        174.4600  140.8800  231.0800 H         6 CUB7        0.0000 
@<TRIPOS>BOND
@<TRIPOS>SUBSTRUCTURE
     1 ALA2        1 GROUP   
     2 ASP3       10 GROUP   
     3 LYS4       20 GROUP   
     4 PHE5       23 GROUP   
     5 GLY6       43 GROUP   
     6 CUB7       71 GROUP   
@<TRIPOS>SET

