#    Name: 6vld_2_GDP
#    Modification time : Fri May 22 19:25:48 2020

@<TRIPOS>MOLECULE
6vld_2_GDP
   28    30     1     0     1
SMALL
NO_CHARGES


@<TRIPOS>ATOM
      1 PB         78.4400   62.9730   51.4600 P.3       1 GDP609      0.0000 
      2 O1B        77.2450   63.3410   50.6160 O.co2     1 GDP609      0.0000 
      3 O2B        79.4050   64.1340   51.4660 O.co2     1 GDP609      0.0000 
      4 O3B        79.0980   61.7580   50.8590 O.co2     1 GDP609      0.0000 
      5 O3A        77.9340   62.6970   52.9640 O.3       1 GDP609      0.0000 
      6 PA         78.9280   62.3470   54.1850 P.3       1 GDP609      0.0000 
      7 O1A        80.2980   61.9160   53.7220 O.co2     1 GDP609      0.0000 
      8 O2A        78.3190   61.3210   55.1080 O.co2     1 GDP609      0.0000 
      9 O5'        78.9760   63.7630   54.9380 O.3       1 GDP609      0.0000 
     10 C5'        78.0240   64.7640   54.5890 C.3       1 GDP609      0.0000 
     11 C4'        77.4020   65.2640   55.8800 C.3       1 GDP609      0.0000 
     12 O4'        76.4550   66.3100   55.6440 O.3       1 GDP609      0.0000 
     13 C3'        76.6310   64.1520   56.5660 C.3       1 GDP609      0.0000 
     14 O3'        77.4730   63.3850   57.4270 O.3       1 GDP609      0.0000 
     15 C2'        75.5860   64.9050   57.3510 C.3       1 GDP609      0.0000 
     16 O2'        76.1160   65.2800   58.6260 O.3       1 GDP609      0.0000 
     17 C1'        75.3280   66.1400   56.5080 C.3       1 GDP609      0.0000 
     18 N9         74.1340   65.8460   55.6870 N.pl3     1 GDP609      0.0000 
     19 C8         74.1020   65.7560   54.3450 C.2       1 GDP609      0.0000 
     20 N7         72.8520   65.4500   53.9110 N.2       1 GDP609      0.0000 
     21 C5         72.0640   65.3260   54.9960 C.2       1 GDP609      0.0000 
     22 C6         70.6400   65.0140   55.2580 C.2       1 GDP609      0.0000 
     23 O6         69.8480   64.7850   54.3180 O.2       1 GDP609      0.0000 
     24 N1         70.2250   64.9840   56.5310 N.am      1 GDP609      0.0000 
     25 C2         71.0540   65.2280   57.5640 C.2       1 GDP609      0.0000 
     26 N2         70.5610   65.1820   58.8240 N.pl3     1 GDP609      0.0000 
     27 N3         72.3670   65.5200   57.3970 N.2       1 GDP609      0.0000 
     28 C4         72.9170   65.5810   56.1630 C.2       1 GDP609      0.0000 
@<TRIPOS>BOND
     1    1    2 ar   
     2    1    3 ar   
     3    1    4 ar   
     4    1    5 1    
     5    5    6 1    
     6    6    7 ar   
     7    6    8 ar   
     8    6    9 1    
     9    9   10 1    
    10   10   11 1    
    11   11   12 1    
    12   11   13 1    
    13   12   17 1    
    14   13   14 1    
    15   13   15 1    
    16   15   16 1    
    17   15   17 1    
    18   17   18 1    
    19   18   19 1    
    20   18   28 1    
    21   19   20 2    
    22   20   21 1    
    23   21   22 1    
    24   21   28 2    
    25   22   23 2    
    26   22   24 am   
    27   24   25 1    
    28   25   26 1    
    29   25   27 2    
    30   27   28 1    
@<TRIPOS>SUBSTRUCTURE
     1 GDP609      1 GROUP   
@<TRIPOS>SET
ATOM$ORANGE STATIC     ATOMS   COLORGROUP SYSTEM 
20 10 10 11 11 13 13 15 15 17 17 19 19 21 21 22 22 25 \
25 28 28 

