#    Name: 5zv2_2_LEV
#    Modification time : Fri May 22 19:25:44 2020

@<TRIPOS>MOLECULE
5zv2_2_LEV
   30    33     1     0     0
SMALL
NO_CHARGES


@<TRIPOS>ATOM
      1 C1         21.1260  -54.3250   58.6780           1 LEV801      0.0000 
      2 O2         21.7840  -53.8220   57.5160           1 LEV801      0.0000 
      3 C3         21.1340  -52.9880   56.6640           1 LEV801      0.0000 
      4 C4         20.0820  -53.4760   55.9370           1 LEV801      0.0000 
      5 C5         19.3930  -52.6520   55.0330           1 LEV801      0.0000 
      6 N6         18.3610  -53.1340   54.3330           1 LEV801      0.0000 
      7 C7         17.7110  -52.3710   53.4810           1 LEV801      0.0000 
      8 C8         18.0350  -51.0460   53.2600           1 LEV801      0.0000 
      9 C9         19.1000  -50.4680   53.9520           1 LEV801      0.0000 
     10 C10        19.8000  -51.2950   54.8690           1 LEV801      0.0000 
     11 C11        20.8860  -50.8080   55.6130           1 LEV801      0.0000 
     12 C12        21.5620  -51.6390   56.5040           1 LEV801      0.0000 
     13 C13        22.7080  -51.0660   57.2460           1 LEV801      0.0000 
     14 O14        22.7480  -49.8680   57.4380           1 LEV801      0.0000 
     15 N15        23.7300  -51.8320   57.6940           1 LEV801      0.0000 
     16 O16        19.4950  -49.1760   53.8100           1 LEV801      0.0000 
     17 C17        19.1370  -48.4150   52.7510           1 LEV801      0.0000 
     18 C18        17.8530  -47.8840   52.6920           1 LEV801      0.0000 
     19 C19        17.4840  -47.1170   51.6070           1 LEV801      0.0000 
     20 C20        18.3840  -46.8590   50.5830           1 LEV801      0.0000 
     21 C21        19.6800  -47.3810   50.6570           1 LEV801      0.0000 
     22 C22        20.0500  -48.1670   51.7350           1 LEV801      0.0000 
     23 N23        17.9140  -46.0460   49.5370           1 LEV801      0.0000 
     24 C24        18.2690  -46.1620   48.2390           1 LEV801      0.0000 
     25 O25        19.0550  -47.0120   47.8580           1 LEV801      0.0000 
     26 N26        17.7160  -45.2970   47.3610           1 LEV801      0.0000 
     27 C27        18.0570  -45.3310   45.9450           1 LEV801      0.0000 
     28 C28        17.2190  -44.6050   44.8900           1 LEV801      0.0000 
     29 C29        18.5060  -43.9760   45.4160           1 LEV801      0.0000 
     30 CL         15.8970  -46.4470   51.4960           1 LEV801      0.0000 
@<TRIPOS>BOND
     1    1    2 du   
     2    2    3 du   
     3    3    4 du   
     4    3   12 du   
     5    4    5 du   
     6    5    6 du   
     7    5   10 du   
     8    6    7 du   
     9    7    8 du   
    10    8    9 du   
    11    9   10 du   
    12    9   16 du   
    13   10   11 du   
    14   11   12 du   
    15   12   13 du   
    16   13   14 du   
    17   13   15 du   
    18   16   17 du   
    19   17   18 du   
    20   17   22 du   
    21   18   19 du   
    22   19   20 du   
    23   19   30 du   
    24   20   21 du   
    25   20   23 du   
    26   21   22 du   
    27   23   24 du   
    28   24   25 du   
    29   24   26 du   
    30   26   27 du   
    31   27   28 du   
    32   27   29 du   
    33   28   29 du   
@<TRIPOS>SUBSTRUCTURE
     1 LEV801      1 GROUP   
@<TRIPOS>SET

