#    Name: 5zv2_1_LEV
#    Modification time : Fri May 22 19:25:38 2020

@<TRIPOS>MOLECULE
5zv2_1_LEV
   30    33     1     0     0
SMALL
NO_CHARGES


@<TRIPOS>ATOM
      1 C1          9.1100  -22.0180   25.5560           1 LEV801      0.0000 
      2 O2          9.6460  -21.9820   24.2280           1 LEV801      0.0000 
      3 C3          8.8430  -21.7890   23.1490           1 LEV801      0.0000 
      4 C4          7.8290  -22.6770   22.8950           1 LEV801      0.0000 
      5 C5          6.9980  -22.5110   21.7840           1 LEV801      0.0000 
      6 N6          6.0170  -23.3810   21.5490           1 LEV801      0.0000 
      7 C7          5.2440  -23.2470   20.4910           1 LEV801      0.0000 
      8 C8          5.3630  -22.2040   19.5800           1 LEV801      0.0000 
      9 C9          6.3600  -21.2430   19.7690           1 LEV801      0.0000 
     10 C10         7.2070  -21.4070   20.9030           1 LEV801      0.0000 
     11 C11         8.2470  -20.5070   21.1690           1 LEV801      0.0000 
     12 C12         9.0770  -20.6880   22.2760           1 LEV801      0.0000 
     13 C13        10.1920  -19.7330   22.4730           1 LEV801      0.0000 
     14 O14        10.3880  -18.8770   21.6310           1 LEV801      0.0000 
     15 N15        11.0700  -19.8280   23.4950           1 LEV801      0.0000 
     16 O16         6.5550  -20.1680   18.9520           1 LEV801      0.0000 
     17 C17         6.1550  -20.1560   17.6640           1 LEV801      0.0000 
     18 C18         4.8500  -19.7950   17.3300           1 LEV801      0.0000 
     19 C19         4.4600  -19.7960   16.0050           1 LEV801      0.0000 
     20 C20         5.3630  -20.1610   15.0200           1 LEV801      0.0000 
     21 C21         6.6720  -20.5080   15.3660           1 LEV801      0.0000 
     22 C22         7.0660  -20.5160   16.6870           1 LEV801      0.0000 
     23 N23         4.9140  -20.1320   13.6950           1 LEV801      0.0000 
     24 C24         5.2240  -21.0660   12.7650           1 LEV801      0.0000 
     25 O25         5.9310  -22.0400   13.0030           1 LEV801      0.0000 
     26 N26         4.7010  -20.8650   11.5420           1 LEV801      0.0000 
     27 C27         4.9600  -21.7470   10.4180           1 LEV801      0.0000 
     28 C28         4.0800  -21.7070    9.1680           1 LEV801      0.0000 
     29 C29         5.3920  -20.9250    9.2120           1 LEV801      0.0000 
     30 CL          2.8570  -19.3570   15.5360           1 LEV801      0.0000 
@<TRIPOS>BOND
     1    1    2 du   
     2    2    3 du   
     3    3    4 du   
     4    3   12 du   
     5    4    5 du   
     6    5    6 du   
     7    5   10 du   
     8    6    7 du   
     9    7    8 du   
    10    8    9 du   
    11    9   10 du   
    12    9   16 du   
    13   10   11 du   
    14   11   12 du   
    15   12   13 du   
    16   13   14 du   
    17   13   15 du   
    18   16   17 du   
    19   17   18 du   
    20   17   22 du   
    21   18   19 du   
    22   19   20 du   
    23   19   30 du   
    24   20   21 du   
    25   20   23 du   
    26   21   22 du   
    27   23   24 du   
    28   24   25 du   
    29   24   26 du   
    30   26   27 du   
    31   27   28 du   
    32   27   29 du   
    33   28   29 du   
@<TRIPOS>SUBSTRUCTURE
     1 LEV801      1 GROUP   
@<TRIPOS>SET

