#    Name: 6mfw_2_APC_CAVITY_N1_4
#    Modification time : Fri May 22 19:39:12 2020

@<TRIPOS>MOLECULE
6mfw_2_APC_CAVITY_N1_4
  132     0     7     0     0
SMALL
NO_CHARGES


@<TRIPOS>ATOM
      1 OG         21.0400  -17.5800   -7.8900 O.3       1 SER1        0.0000 
      2 OG         20.1400  -18.0600   -6.7900 O.3       1 SER1        0.0000 
      3 OG         21.3700  -16.3600   -7.0900 O.3       1 SER1        0.0000 
      4 OG         20.2100  -15.6300   -7.7100 O.3       1 SER1        0.0000 
      5 OG         19.0600  -14.9100   -8.3400 O.3       1 SER1        0.0000 
      6 OG         20.4700  -16.8400   -5.9900 O.3       1 SER1        0.0000 
      7 OG         19.3100  -16.1100   -6.6100 O.3       1 SER1        0.0000 
      8 OG         18.1600  -15.3900   -7.2400 O.3       1 SER1        0.0000 
      9 OG         18.4100  -16.5900   -5.5100 O.3       1 SER1        0.0000 
     10 OG         17.9800  -11.7500   -9.8900 O.3       1 SER1        0.0000 
     11 OG         16.8300  -11.0300  -10.5100 O.3       1 SER1        0.0000 
     12 OG         19.3900  -13.6900   -7.5300 O.3       1 SER1        0.0000 
     13 OG         18.3200  -10.5300   -9.0800 O.3       1 SER1        0.0000 
     14 OG         17.4200  -11.0100   -7.9800 O.3       1 SER1        0.0000 
     15 OG         16.2600  -10.2900   -8.6100 O.3       1 SER1        0.0000 
     16 N           9.5800  -17.1400  -15.0200 N.am      2 ALA2        0.0000 
     17 N          13.3700  -18.0900  -12.3400 N.am      2 ALA2        0.0000 
     18 N          12.2200  -17.3700  -12.9600 N.am      2 ALA2        0.0000 
     19 N          11.0700  -16.6400  -13.5900 N.am      2 ALA2        0.0000 
     20 O           9.9100  -15.9200  -14.2200 O.2       2 ALA2        0.0000 
     21 N           8.7600  -15.1900  -14.8400 N.am      2 ALA2        0.0000 
     22 N          13.4500  -15.6700  -13.2600 N.am      2 ALA2        0.0000 
     23 N          12.3000  -14.9400  -13.8800 N.am      2 ALA2        0.0000 
     24 N          13.7000  -16.8700  -11.5300 N.am      2 ALA2        0.0000 
     25 N          15.5800  -13.4800  -14.6500 N.am      2 ALA2        0.0000 
     26 N          14.6800  -13.9600  -13.5500 N.am      2 ALA2        0.0000 
     27 N          13.5300  -13.2400  -14.1800 N.am      2 ALA2        0.0000 
     28 N          15.0100  -12.7400  -12.7500 N.am      2 ALA2        0.0000 
     29 N          14.4500  -12.0000  -10.8400 N.am      2 ALA2        0.0000 
     30 O          17.2600  -15.8700   -6.1400 O.2       2 ALA2        0.0000 
     31 O          16.1100  -15.1400   -6.7700 O.2       2 ALA2        0.0000 
     32 O          17.3400  -13.4400   -7.0600 O.2       2 ALA2        0.0000 
     33 O          16.1800  -12.7100   -7.6900 O.2       2 ALA2        0.0000 
     34 O          18.5700  -11.7400   -7.3500 O.2       2 ALA2        0.0000 
     35 O          17.6700  -12.2200   -6.2500 O.2       2 ALA2        0.0000 
     36 O          16.5200  -11.4900   -6.8800 O.2       2 ALA2        0.0000 
     37 O          15.3600  -10.7700   -7.5100 O.2       2 ALA2        0.0000 
     38 O          18.9000  -10.5200   -6.5500 O.2       2 ALA2        0.0000 
     39 O          18.0000  -11.0000   -5.4500 O.2       2 ALA2        0.0000 
     40 OD1        17.8100  -17.3600  -12.4800 O.co2     3 ASP3        0.0000 
     41 OD1        16.6600  -16.6400  -13.1100 O.co2     3 ASP3        0.0000 
     42 OD1        18.0600  -18.5700  -10.7500 O.co2     3 ASP3        0.0000 
     43 OD1        14.6000  -16.3900  -12.6300 O.co2     3 ASP3        0.0000 
     44 OD1        14.8600  -17.6000  -10.9100 O.co2     3 ASP3        0.0000 
     45 OD1        13.9600  -18.0800   -9.8100 O.co2     3 ASP3        0.0000 
     46 OD1        20.4500  -17.5900  -10.4200 O.co2     3 ASP3        0.0000 
     47 OD1        16.0900  -15.9000  -11.2000 O.co2     3 ASP3        0.0000 
     48 OD1        14.9400  -15.1700  -11.8300 O.co2     3 ASP3        0.0000 
     49 OD1        13.7800  -14.4500  -12.4500 O.co2     3 ASP3        0.0000 
     50 OD1        16.3400  -17.1000   -9.4800 O.co2     3 ASP3        0.0000 
     51 OD1        14.2900  -16.8600   -9.0000 O.co2     3 ASP3        0.0000 
     52 OD1        20.7800  -16.3700   -9.6200 O.co2     3 ASP3        0.0000 
     53 OD1        17.3200  -14.2000  -11.5000 O.co2     3 ASP3        0.0000 
     54 OD1        16.1700  -13.4700  -12.1200 O.co2     3 ASP3        0.0000 
     55 OD1        18.7300  -16.1300   -9.1400 O.co2     3 ASP3        0.0000 
     56 OD1        17.5700  -15.4000   -9.7700 O.co2     3 ASP3        0.0000 
     57 OD1        16.4200  -14.6800  -10.4000 O.co2     3 ASP3        0.0000 
     58 OD1        16.6700  -15.8800   -8.6700 O.co2     3 ASP3        0.0000 
     59 OD1        17.6500  -12.9700  -10.6900 O.co2     3 ASP3        0.0000 
     60 OD1        16.5000  -12.2500  -11.3200 O.co2     3 ASP3        0.0000 
     61 OD1        17.9100  -14.1800   -8.9600 O.co2     3 ASP3        0.0000 
     62 OD1        16.7500  -13.4500   -9.5900 O.co2     3 ASP3        0.0000 
     63 OD1        15.6000  -12.7300  -10.2200 O.co2     3 ASP3        0.0000 
     64 OD1        17.0100  -14.6600   -7.8600 O.co2     3 ASP3        0.0000 
     65 OD1        20.2900  -13.2000   -8.6300 O.co2     3 ASP3        0.0000 
     66 OD1        19.1400  -12.4800   -9.2600 O.co2     3 ASP3        0.0000 
     67 OD1        15.9300  -11.5100   -9.4100 O.co2     3 ASP3        0.0000 
     68 NZ         12.1400  -19.8000  -12.0400 N.4       4 LYS4        0.0000 
     69 NZ         10.9900  -19.0700  -12.6700 N.4       4 LYS4        0.0000 
     70 NZ         15.1700  -17.1300  -14.5400 N.4       4 LYS4        0.0000 
     71 NZ         14.0200  -16.4100  -15.1600 N.4       4 LYS4        0.0000 
     72 NZ         14.2700  -17.6100  -13.4400 N.4       4 LYS4        0.0000 
     73 NZ         12.4700  -18.5800  -11.2400 N.4       4 LYS4        0.0000 
     74 NZ         16.4000  -15.4300  -14.8300 N.4       4 LYS4        0.0000 
     75 NZ         15.2500  -14.7000  -15.4600 N.4       4 LYS4        0.0000 
     76 NZ         15.5000  -15.9100  -13.7300 N.4       4 LYS4        0.0000 
     77 NZ         14.3500  -15.1900  -14.3600 N.4       4 LYS4        0.0000 
     78 NZ         15.3400  -11.5200  -11.9400 N.4       4 LYS4        0.0000 
     79 NZ         14.7800  -10.7800  -10.0400 N.4       4 LYS4        0.0000 
     80 NZ         12.7200  -10.5400   -9.5600 N.4       4 LYS4        0.0000 
     81 NZ         15.1100   -9.5600   -9.2300 N.4       4 LYS4        0.0000 
     82 CZ         11.6300  -17.3800  -15.5000 C.ar      5 PHE5        0.0000 
     83 CZ         10.4800  -16.6600  -16.1200 C.ar      5 PHE5        0.0000 
     84 CZ         13.0400  -19.3200  -13.1400 C.ar      5 PHE5        0.0000 
     85 CZ         11.8900  -18.5900  -13.7700 C.ar      5 PHE5        0.0000 
     86 CZ         10.7300  -17.8600  -14.4000 C.ar      5 PHE5        0.0000 
     87 CZ         13.1200  -16.8900  -14.0600 C.ar      5 PHE5        0.0000 
     88 CZ         11.9700  -16.1600  -14.6900 C.ar      5 PHE5        0.0000 
     89 CZ         10.8100  -15.4400  -15.3200 C.ar      5 PHE5        0.0000 
     90 CZ         13.2000  -14.4600  -14.9800 C.ar      5 PHE5        0.0000 
     91 CZ         11.1400  -14.2100  -14.5100 C.ar      5 PHE5        0.0000 
     92 CZ         17.7500   -9.7900   -7.1700 C.ar      5 PHE5        0.0000 
     93 CZ         16.5900   -9.0600   -7.8000 C.ar      5 PHE5        0.0000 
     94 CZ         16.8500  -10.2700   -6.0800 C.ar      5 PHE5        0.0000 
     95 CZ         14.5400   -8.8200   -7.3300 C.ar      5 PHE5        0.0000 
     96 CA         13.8600  -21.2600  -13.3200 C.3       6 GLY6        0.0000 
     97 CA          9.3300  -15.9300  -16.7500 C.3       6 GLY6        0.0000 
     98 CA         14.1900  -20.0400  -12.5200 C.3       6 GLY6        0.0000 
     99 CA          8.4300  -16.4100  -15.6500 C.3       6 GLY6        0.0000 
    100 CA         15.4300  -18.3400  -12.8100 C.3       6 GLY6        0.0000 
    101 CA          9.6600  -14.7100  -15.9400 C.3       6 GLY6        0.0000 
    102 CA         15.6800  -19.5500  -11.0900 C.3       6 GLY6        0.0000 
    103 CA         14.5300  -18.8200  -11.7100 C.3       6 GLY6        0.0000 
    104 CA         11.3200  -17.8500  -11.8600 C.3       6 GLY6        0.0000 
    105 CA         16.9100  -17.8400  -11.3800 C.3       6 GLY6        0.0000 
    106 CA         15.7600  -17.1200  -12.0100 C.3       6 GLY6        0.0000 
    107 CA         10.2400  -14.7000  -13.4100 C.3       6 GLY6        0.0000 
    108 CA         15.4400  -17.5900   -8.3800 C.3       6 GLY6        0.0000 
    109 CA         17.0700  -12.9900  -13.2200 C.3       6 GLY6        0.0000 
    110 CA         15.7800  -16.3600   -7.5700 C.3       6 GLY6        0.0000 
    111 CA         14.8800  -16.8400   -6.4700 C.3       6 GLY6        0.0000 
    112 CA         15.0300  -11.9900   -8.3100 C.3       6 GLY6        0.0000 
    113 CA         13.8800  -11.2600   -8.9400 C.3       6 GLY6        0.0000 
    114 CA         11.8200  -11.0200   -8.4600 C.3       6 GLY6        0.0000 
    115 CA         19.4700  -11.2600   -8.4500 C.3       6 GLY6        0.0000 
    116 CA         14.2100  -10.0400   -8.1300 C.3       6 GLY6        0.0000 
    117 CA         13.0600   -9.3100   -8.7600 C.3       6 GLY6        0.0000 
    118 CA         13.3100  -10.5200   -7.0300 C.3       6 GLY6        0.0000 
    119 DU         16.0100  -18.3300  -10.2800 H         7 CUB7        0.0000 
    120 DU         15.8400  -14.6900  -12.9300 H         7 CUB7        0.0000 
    121 DU         19.5500  -18.0800   -9.3200 H         7 CUB7        0.0000 
    122 DU         18.4000  -17.3500   -9.9500 H         7 CUB7        0.0000 
    123 DU         17.2400  -16.6200  -10.5800 H         7 CUB7        0.0000 
    124 DU         18.6500  -18.5600   -8.2200 H         7 CUB7        0.0000 
    125 DU         16.6000  -18.3100   -7.7500 H         7 CUB7        0.0000 
    126 DU         19.8800  -16.8500   -8.5200 H         7 CUB7        0.0000 
    127 DU         18.9800  -17.3400   -7.4200 H         7 CUB7        0.0000 
    128 DU         17.8300  -16.6100   -8.0400 H         7 CUB7        0.0000 
    129 DU         18.0800  -17.8200   -6.3200 H         7 CUB7        0.0000 
    130 DU         16.9300  -17.0900   -6.9400 H         7 CUB7        0.0000 
    131 DU         18.2400  -12.9600   -8.1600 H         7 CUB7        0.0000 
    132 DU         17.0800  -12.2300   -8.7900 H         7 CUB7        0.0000 
@<TRIPOS>BOND
@<TRIPOS>SUBSTRUCTURE
     1 SER1        1 GROUP   
     2 ALA2       16 GROUP   
     3 ASP3       40 GROUP   
     4 LYS4       68 GROUP   
     5 PHE5       82 GROUP   
     6 GLY6       96 GROUP   
     7 CUB7      119 GROUP   
@<TRIPOS>SET

