#    Name: 6mfw_2_APC
#    Modification time : Fri May 22 19:39:11 2020

@<TRIPOS>MOLECULE
6mfw_2_APC
   45    47     1     0     0
SMALL
NO_CHARGES


@<TRIPOS>ATOM
      1 PG         20.0600  -13.8990   -8.3060 P.3       1 APC1303     0.0000 
      2 O1G        19.7320  -12.7510   -7.3190 O.co2     1 APC1303     0.0000 
      3 O2G        20.6060  -13.2830   -9.6330 O.co2     1 APC1303     0.0000 
      4 O3G        21.1310  -14.8310   -7.6970 O.co2     1 APC1303     0.0000 
      5 PB         17.5660  -14.2990   -9.8220 P.3       1 APC1303     0.0000 
      6 O1B        18.1380  -14.6740  -11.1850 O.co2     1 APC1303     0.0000 
      7 O2B        16.2540  -14.9720   -9.6420 O.co2     1 APC1303     0.0000 
      8 O3B        18.6650  -14.7670   -8.6250 O.3       1 APC1303     0.0000 
      9 PA         16.1190  -11.8680  -11.1050 P.3       1 APC1303     0.0000 
     10 O1A        15.2630  -10.8780  -10.4900 O.co2     1 APC1303     0.0000 
     11 O2A        16.8720  -11.2630  -12.2810 O.co2     1 APC1303     0.0000 
     12 C3A        17.3400  -12.4540   -9.7700 C.3       1 APC1303     0.0000 
     13 O5'        15.2410  -13.1470  -11.6100 O.3       1 APC1303     0.0000 
     14 C5'        15.1510  -13.4810  -13.0240 C.3       1 APC1303     0.0000 
     15 C4'        15.1380  -14.9900  -13.1740 C.3       1 APC1303     0.0000 
     16 O4'        13.8720  -15.6320  -12.3950 O.3       1 APC1303     0.0000 
     17 C3'        15.0270  -15.3230  -14.4430 C.3       1 APC1303     0.0000 
     18 O3'        16.3530  -15.6130  -15.0510 O.3       1 APC1303     0.0000 
     19 C2'        14.1760  -16.6040  -14.4180 C.3       1 APC1303     0.0000 
     20 O2'        14.9380  -17.6870  -14.1110 O.3       1 APC1303     0.0000 
     21 C1'        13.1940  -16.3300  -13.2710 C.3       1 APC1303     0.0000 
     22 N9         11.9890  -15.5260  -13.7440 N.pl3     1 APC1303     0.0000 
     23 C8         11.8540  -14.1960  -13.7930 C.2       1 APC1303     0.0000 
     24 N7         10.6360  -13.9090  -14.2740 N.2       1 APC1303     0.0000 
     25 C5          9.9790  -15.0860  -14.5310 C.ar      1 APC1303     0.0000 
     26 C6          8.6850  -15.4290  -15.0420 C.ar      1 APC1303     0.0000 
     27 N6          7.7110  -14.3870  -15.4250 N.pl3     1 APC1303     0.0000 
     28 N1          8.3830  -16.7400  -15.1620 N.ar      1 APC1303     0.0000 
     29 C2          9.2360  -17.6950  -14.8260 C.ar      1 APC1303     0.0000 
     30 N3         10.4540  -17.3980  -14.3440 N.ar      1 APC1303     0.0000 
     31 C4         10.8410  -16.1140  -14.1930 C.ar      1 APC1303     0.0000 
     32 H3A1       17.0050  -12.1990   -8.8960 H         1 APC1303     0.0000 
     33 H3A2       18.1980  -12.0230   -9.9090 H         1 APC1303     0.0000 
     34 H5'1       14.3340  -13.1110  -13.3930 H         1 APC1303     0.0000 
     35 H5'2       15.9180  -13.1150  -13.4930 H         1 APC1303     0.0000 
     36 H4'        15.9540  -15.3720  -12.8140 H         1 APC1303     0.0000 
     37 H3'        14.5930  -14.6090  -14.9370 H         1 APC1303     0.0000 
     38 HO3'       16.4070  -15.2380  -15.8110 H         1 APC1303     0.0000 
     39 H2'        13.7350  -16.7510  -15.2700 H         1 APC1303     0.0000 
     40 HO2'       14.7120  -18.3410  -14.6050 H         1 APC1303     0.0000 
     41 H1'        12.9010  -17.1740  -12.8940 H         1 APC1303     0.0000 
     42 H8         12.4960  -13.5740  -13.5360 H         1 APC1303     0.0000 
     43 HN61        7.3050  -13.9330  -14.8180 H         1 APC1303     0.0000 
     44 HN62        7.5490  -14.2320  -16.2550 H         1 APC1303     0.0000 
     45 H2          8.9870  -18.5860  -14.9240 H         1 APC1303     0.0000 
@<TRIPOS>BOND
     1    1    2 ar   
     2    1    3 ar   
     3    1    4 ar   
     4    1    8 1    
     5    5    6 ar   
     6    5    7 ar   
     7    5    8 1    
     8    5   12 1    
     9    9   10 ar   
    10    9   11 ar   
    11    9   12 1    
    12    9   13 1    
    13   12   32 1    
    14   12   33 1    
    15   13   14 1    
    16   14   15 1    
    17   14   34 1    
    18   14   35 1    
    19   15   16 1    
    20   15   17 1    
    21   15   36 1    
    22   17   37 1    
    23   16   21 1    
    24   17   18 1    
    25   17   19 1    
    26   19   20 1    
    27   18   38 1    
    28   19   21 1    
    29   19   39 1    
    30   20   40 1    
    31   21   22 1    
    32   21   41 1    
    33   22   23 1    
    34   22   31 1    
    35   23   24 2    
    36   24   25 1    
    37   23   42 1    
    38   25   26 ar   
    39   25   31 ar   
    40   26   27 1    
    41   26   28 ar   
    42   28   29 ar   
    43   27   43 1    
    44   27   44 1    
    45   29   30 ar   
    46   30   31 ar   
    47   29   45 1    
@<TRIPOS>SUBSTRUCTURE
     1 APC1303     1 GROUP   
@<TRIPOS>SET

