#    Name: 6mfw_1_FON
#    Modification time : Fri May 22 19:39:01 2020

@<TRIPOS>MOLECULE
6mfw_1_FON
   55    57     1     0     0
SMALL
NO_CHARGES


@<TRIPOS>ATOM
      1 N1         36.4290  -20.7260  -60.1400 N.pl3     1 FON1302     0.0000 
      2 C2         36.2640  -19.3640  -60.7410 C.2       1 FON1302     0.0000 
      3 NA2        37.4320  -18.6330  -61.1990 N.pl3     1 FON1302     0.0000 
      4 N3         35.0720  -18.8400  -60.8530 N.2       1 FON1302     0.0000 
      5 C4         33.8910  -19.5660  -60.3980 C.2       1 FON1302     0.0000 
      6 O4         32.8140  -19.0830  -60.5010 O.2       1 FON1302     0.0000 
      7 C4A        34.0470  -20.9120  -59.8080 C.2       1 FON1302     0.0000 
      8 N5         32.8170  -21.7180  -59.3010 N.am      1 FON1302     0.0000 
      9 C6         33.1280  -22.6960  -58.2320 C.3       1 FON1302     0.0000 
     10 C7         34.3350  -23.3780  -58.6440 C.3       1 FON1302     0.0000 
     11 N8         35.4330  -22.7540  -59.1170 N.pl3     1 FON1302     0.0000 
     12 C8A        35.2690  -21.4520  -59.6860 C.2       1 FON1302     0.0000 
     13 C9         33.4470  -21.8580  -56.9870 C.3       1 FON1302     0.0000 
     14 N10        33.5840  -22.7550  -55.8660 N.pl3     1 FON1302     0.0000 
     15 C11        35.3390  -21.4710  -52.3000 C.ar      1 FON1302     0.0000 
     16 C12        34.8770  -22.7670  -52.4160 C.ar      1 FON1302     0.0000 
     17 C13        34.3030  -23.1790  -53.5960 C.ar      1 FON1302     0.0000 
     18 C14        34.1920  -22.2900  -54.6450 C.ar      1 FON1302     0.0000 
     19 C15        34.6510  -20.9870  -54.5320 C.ar      1 FON1302     0.0000 
     20 C16        35.2300  -20.5710  -53.3480 C.ar      1 FON1302     0.0000 
     21 C          35.9660  -21.0230  -50.9980 C.2       1 FON1302     0.0000 
     22 O          36.9090  -21.5910  -50.5580 O.2       1 FON1302     0.0000 
     23 N          35.3840  -19.8940  -50.3120 N.am      1 FON1302     0.0000 
     24 CA         35.9600  -19.4340  -49.0660 C.3       1 FON1302     0.0000 
     25 CB         36.5490  -18.0430  -49.2890 C.3       1 FON1302     0.0000 
     26 CG         37.2320  -17.9640  -50.6550 C.3       1 FON1302     0.0000 
     27 CD         38.5000  -17.1220  -50.5200 C.2       1 FON1302     0.0000 
     28 OE1        38.5910  -16.0130  -51.1120 O.co2     1 FON1302     0.0000 
     29 OE2        39.4500  -17.5440  -49.8100 O.co2     1 FON1302     0.0000 
     30 CT         34.8660  -19.4050  -48.0060 C.2       1 FON1302     0.0000 
     31 O1         33.6550  -19.4900  -48.3390 O.co2     1 FON1302     0.0000 
     32 O2         35.1810  -19.3050  -46.7910 O.co2     1 FON1302     0.0000 
     33 CP1        31.4690  -21.5360  -59.8070 C.2       1 FON1302     0.0000 
     34 O3         30.5790  -22.1890  -59.3640 O.2       1 FON1302     0.0000 
     35 HN1        37.2130  -21.0740  -60.0660 H         1 FON1302     0.0000 
     36 HN21       38.2130  -18.9870  -61.1360 H         1 FON1302     0.0000 
     37 HN22       37.3420  -17.8450  -61.5340 H         1 FON1302     0.0000 
     38 H61        32.4120  -23.3300  -58.0680 H         1 FON1302     0.0000 
     39 H7         34.0630  -23.9980  -59.3390 H         1 FON1302     0.0000 
     40 HC72       34.6310  -23.8810  -57.8680 H         1 FON1302     0.0000 
     41 HN8        36.2070  -23.1270  -59.0790 H         1 FON1302     0.0000 
     42 H91        32.7260  -21.2310  -56.8200 H         1 FON1302     0.0000 
     43 H92        34.2740  -21.3710  -57.1220 H         1 FON1302     0.0000 
     44 HN0        33.3040  -23.5660  -55.9260 H         1 FON1302     0.0000 
     45 H12        34.9530  -23.3570  -51.7010 H         1 FON1302     0.0000 
     46 H13        33.9910  -24.0500  -53.6860 H         1 FON1302     0.0000 
     47 H15        34.5710  -20.3980  -55.2470 H         1 FON1302     0.0000 
     48 H16        35.5410  -19.6990  -53.2560 H         1 FON1302     0.0000 
     49 HN         34.6970  -19.4970  -50.6430 H         1 FON1302     0.0000 
     50 HA         36.6670  -20.0270  -48.7650 H         1 FON1302     0.0000 
     51 HB1        37.2010  -17.8570  -48.5960 H         1 FON1302     0.0000 
     52 HB2        35.8380  -17.3850  -49.2490 H         1 FON1302     0.0000 
     53 HG1        37.4620  -18.8560  -50.9570 H         1 FON1302     0.0000 
     54 HG2        36.6320  -17.5510  -51.2960 H         1 FON1302     0.0000 
     55 HCP1       31.3010  -20.9110  -60.4750 H         1 FON1302     0.0000 
@<TRIPOS>BOND
     1    1    2 1    
     2    1   12 1    
     3    2    3 1    
     4    1   35 1    
     5    2    4 2    
     6    4    5 1    
     7    3   36 1    
     8    3   37 1    
     9    5    6 2    
    10    5    7 1    
    11    7    8 1    
    12    7   12 2    
    13    8    9 1    
    14    8   33 am   
    15    9   10 1    
    16    9   13 1    
    17    9   38 1    
    18   10   11 1    
    19   10   39 1    
    20   10   40 1    
    21   11   12 1    
    22   13   14 1    
    23   11   41 1    
    24   13   42 1    
    25   13   43 1    
    26   14   18 1    
    27   15   16 ar   
    28   14   44 1    
    29   15   20 ar   
    30   15   21 1    
    31   16   17 ar   
    32   17   18 ar   
    33   16   45 1    
    34   18   19 ar   
    35   17   46 1    
    36   19   20 ar   
    37   21   22 2    
    38   19   47 1    
    39   20   48 1    
    40   21   23 am   
    41   23   24 1    
    42   24   25 1    
    43   23   49 1    
    44   24   30 1    
    45   24   50 1    
    46   25   26 1    
    47   25   51 1    
    48   25   52 1    
    49   26   27 1    
    50   26   53 1    
    51   26   54 1    
    52   27   28 ar   
    53   27   29 ar   
    54   30   31 ar   
    55   30   32 ar   
    56   33   34 2    
    57   33   55 1    
@<TRIPOS>SUBSTRUCTURE
     1 FON1302     1 GROUP   
@<TRIPOS>SET

