#    Name: 6ade_1_NAD
#    Modification time : Fri May 22 19:30:14 2020

@<TRIPOS>MOLECULE
6ade_1_NAD
   44    48     1     0     1
SMALL
NO_CHARGES


@<TRIPOS>ATOM
      1 PA         -3.8300   18.4790  101.3520 P.3       1 NAD401      0.0000 
      2 O1A        -3.3440   18.9270  102.7010 O.co2     1 NAD401      0.0000 
      3 O2A        -2.7880   17.6620  100.6200 O.co2     1 NAD401      0.0000 
      4 O5B        -4.3600   19.7890  100.5340 O.3       1 NAD401      0.0000 
      5 C5B        -4.1320   21.1650  100.8610 C.3       1 NAD401      0.0000 
      6 C4B        -3.2250   21.7920   99.8030 C.3       1 NAD401      0.0000 
      7 O4B        -3.6210   23.1260   99.4880 O.3       1 NAD401      0.0000 
      8 C3B        -1.7940   21.8690  100.3150 C.3       1 NAD401      0.0000 
      9 O3B        -0.8420   21.6270   99.2710 O.3       1 NAD401      0.0000 
     10 C2B        -1.6680   23.2860  100.7960 C.3       1 NAD401      0.0000 
     11 O2B        -0.2810   23.6320  100.7680 O.3       1 NAD401      0.0000 
     12 C1B        -2.5690   24.0360   99.8110 C.3       1 NAD401      0.0000 
     13 N9A        -3.1600   25.3060  100.2980 N.pl3     1 NAD401      0.0000 
     14 C8A        -3.5690   25.5580  101.5580 C.2       1 NAD401      0.0000 
     15 N7A        -4.0880   26.8190  101.6660 N.2       1 NAD401      0.0000 
     16 C5A        -4.0190   27.4060  100.4530 C.ar      1 NAD401      0.0000 
     17 C6A        -4.3990   28.7310   99.8740 C.ar      1 NAD401      0.0000 
     18 N6A        -4.9510   29.6750  100.6620 N.pl3     1 NAD401      0.0000 
     19 N1A        -4.1860   28.9650   98.5530 N.ar      1 NAD401      0.0000 
     20 C2A        -3.6360   28.0020   97.7760 C.ar      1 NAD401      0.0000 
     21 N3A        -3.2560   26.7770   98.2360 N.ar      1 NAD401      0.0000 
     22 C4A        -3.4120   26.4040   99.5470 C.ar      1 NAD401      0.0000 
     23 O3         -5.2450   17.6540  101.3780 O.3       1 NAD401      0.0000 
     24 PN         -6.3860   17.5230  100.1900 P.3       1 NAD401      0.0000 
     25 O1N        -5.8810   18.1280   98.8870 O.co2     1 NAD401      0.0000 
     26 O2N        -6.8300   16.0650  100.1920 O.co2     1 NAD401      0.0000 
     27 O5D        -7.7350   18.3600  100.6660 O.3       1 NAD401      0.0000 
     28 C5D        -8.7050   19.0120   99.7890 C.3       1 NAD401      0.0000 
     29 C4D       -10.2330   19.0070  100.1360 C.3       1 NAD401      0.0000 
     30 O4D       -10.9710   18.0260   99.3850 O.3       1 NAD401      0.0000 
     31 C3D       -10.6860   18.7640  101.5850 C.3       1 NAD401      0.0000 
     32 O3D       -11.4240   19.8920  102.0490 O.3       1 NAD401      0.0000 
     33 C2D       -11.6470   17.5790  101.6220 C.3       1 NAD401      0.0000 
     34 O2D       -12.8580   17.8560  102.3300 O.3       1 NAD401      0.0000 
     35 C1D       -11.9950   17.3350  100.1640 C.3       1 NAD401      0.0000 
     36 N1N       -12.0760   15.8990   99.8170 N.pl3     1 NAD401      0.0000 
     37 C2N       -11.0340   15.1130  100.1480 C.ar      1 NAD401      0.0000 
     38 C3N       -10.9960   13.7650   99.8450 C.ar      1 NAD401      0.0000 
     39 C7N        -9.7790   12.9980  100.2880 C.2       1 NAD401      0.0000 
     40 O7N        -9.0150   13.5390  101.0970 O.2       1 NAD401      0.0000 
     41 N7N        -9.5540   11.7730   99.8020 N.am      1 NAD401      0.0000 
     42 C4N       -12.0690   13.2300   99.1570 C.ar      1 NAD401      0.0000 
     43 C5N       -13.1350   14.0600   98.8140 C.ar      1 NAD401      0.0000 
     44 C6N       -13.1300   15.3990   99.1550 C.ar      1 NAD401      0.0000 
@<TRIPOS>BOND
     1    1    2 ar   
     2    1    3 ar   
     3    1    4 1    
     4    1   23 1    
     5    4    5 1    
     6    5    6 1    
     7    6    7 1    
     8    6    8 1    
     9    7   12 1    
    10    8    9 1    
    11    8   10 1    
    12   10   11 1    
    13   10   12 1    
    14   12   13 1    
    15   13   14 1    
    16   13   22 1    
    17   14   15 2    
    18   15   16 1    
    19   16   17 ar   
    20   16   22 ar   
    21   17   18 1    
    22   17   19 ar   
    23   19   20 ar   
    24   20   21 ar   
    25   21   22 ar   
    26   23   24 1    
    27   24   25 ar   
    28   24   26 ar   
    29   24   27 1    
    30   27   28 1    
    31   28   29 1    
    32   29   30 1    
    33   29   31 1    
    34   30   35 1    
    35   31   32 1    
    36   31   33 1    
    37   33   34 1    
    38   33   35 1    
    39   35   36 1    
    40   36   37 ar   
    41   36   44 ar   
    42   37   38 ar   
    43   38   39 1    
    44   38   42 ar   
    45   39   40 2    
    46   39   41 am   
    47   42   43 ar   
    48   43   44 ar   
@<TRIPOS>SUBSTRUCTURE
     1 NAD401      1 GROUP   
@<TRIPOS>SET
ATOM$ORANGE STATIC     ATOMS   COLORGROUP SYSTEM 
42 5 5 6 6 8 8 10 10 12 12 14 14 16 16 17 17 20 \
20 22 22 28 28 29 29 31 31 33 33 35 35 37 37 38 38 39 \
39 42 42 43 43 44 44 

