#    Name: 6gjz_1_ANP_CAVITY_N1_4
#    Modification time : Fri May 22 19:23:18 2020

@<TRIPOS>MOLECULE
6gjz_1_ANP_CAVITY_N1_4
   93     0     6     0     0
SMALL
NO_CHARGES


@<TRIPOS>ATOM
      1 OG         93.7800  136.7000  122.4800 O.3       1 SER1        0.0000 
      2 OG         94.2800  138.2200  123.8600 O.3       1 SER1        0.0000 
      3 OG         94.5600  137.1800  124.9100 O.3       1 SER1        0.0000 
      4 OG         94.8300  136.1400  125.9500 O.3       1 SER1        0.0000 
      5 OG         95.0400  137.4100  122.8500 O.3       1 SER1        0.0000 
      6 O          93.5100  137.7300  121.4300 O.2       2 ALA2        0.0000 
      7 N          93.7400  140.3000  121.7600 N.am      2 ALA2        0.0000 
      8 O          95.2600  138.6700  119.7500 O.2       2 ALA2        0.0000 
      9 O          96.0200  137.8500  118.7500 O.2       2 ALA2        0.0000 
     10 O          96.5200  139.3800  120.1300 O.2       2 ALA2        0.0000 
     11 O          97.2800  138.5600  119.1200 O.2       2 ALA2        0.0000 
     12 O          99.0700  135.8900  118.1600 O.2       2 ALA2        0.0000 
     13 O         100.3300  136.6000  118.5400 O.2       2 ALA2        0.0000 
     14 OD1        95.5300  137.6300  120.8000 O.co2     3 ASP3        0.0000 
     15 OD1        95.8000  136.5900  121.8500 O.co2     3 ASP3        0.0000 
     16 OD1        96.2900  136.8100  119.8000 O.co2     3 ASP3        0.0000 
     17 OD1        96.8300  134.7400  121.8900 O.co2     3 ASP3        0.0000 
     18 OD1        96.7700  137.0400  117.7400 O.co2     3 ASP3        0.0000 
     19 OD1        97.8600  132.8800  121.9300 O.co2     3 ASP3        0.0000 
     20 OD1        97.8000  135.1800  117.7900 O.co2     3 ASP3        0.0000 
     21 OD1        98.3500  133.1000  119.8800 O.co2     3 ASP3        0.0000 
     22 OD1        97.5500  137.5200  120.1700 O.co2     3 ASP3        0.0000 
     23 OD1        97.8200  136.4900  121.2200 O.co2     3 ASP3        0.0000 
     24 OD1        98.3100  136.7100  119.1700 O.co2     3 ASP3        0.0000 
     25 OD1        98.5800  135.6700  120.2200 O.co2     3 ASP3        0.0000 
     26 OD1        98.8500  134.6300  121.2600 O.co2     3 ASP3        0.0000 
     27 OD1        99.3400  134.8500  119.2100 O.co2     3 ASP3        0.0000 
     28 OD1        99.6100  133.8200  120.2600 O.co2     3 ASP3        0.0000 
     29 OD1        98.3000  141.6200  121.8900 O.co2     3 ASP3        0.0000 
     30 OD1        99.0600  140.8000  120.8800 O.co2     3 ASP3        0.0000 
     31 OD1       100.0800  138.9500  120.9300 O.co2     3 ASP3        0.0000 
     32 OD1       100.8400  138.1300  119.9200 O.co2     3 ASP3        0.0000 
     33 OD1       101.1100  137.0900  120.9700 O.co2     3 ASP3        0.0000 
     34 OD1       100.5900  140.4700  122.3100 O.co2     3 ASP3        0.0000 
     35 OD1       101.0800  140.7000  120.2600 O.co2     3 ASP3        0.0000 
     36 NZ         93.5300  139.0400  124.8600 N.4       4 LYS4        0.0000 
     37 NZ         95.0600  138.7100  126.2900 N.4       4 LYS4        0.0000 
     38 NZ         95.3300  137.6700  127.3400 N.4       4 LYS4        0.0000 
     39 NZ         96.0900  136.8600  126.3300 N.4       4 LYS4        0.0000 
     40 NZ         96.5800  137.0800  124.2800 N.4       4 LYS4        0.0000 
     41 NZ         96.8500  136.0400  125.3300 N.4       4 LYS4        0.0000 
     42 NZ         97.3400  136.2600  123.2700 N.4       4 LYS4        0.0000 
     43 NZ         97.6100  135.2200  124.3200 N.4       4 LYS4        0.0000 
     44 NZ         98.1000  135.4500  122.2700 N.4       4 LYS4        0.0000 
     45 NZ         98.3700  134.4100  123.3200 N.4       4 LYS4        0.0000 
     46 NZ         97.0900  138.6100  125.6600 N.4       4 LYS4        0.0000 
     47 NZ         97.8400  137.7900  124.6600 N.4       4 LYS4        0.0000 
     48 NZ         98.3300  138.0100  122.6000 N.4       4 LYS4        0.0000 
     49 NZ         99.0900  137.2000  121.6000 N.4       4 LYS4        0.0000 
     50 NZ        100.1200  135.3400  121.6400 N.4       4 LYS4        0.0000 
     51 NZ         97.8100  141.3900  123.9400 N.4       4 LYS4        0.0000 
     52 NZ         98.8400  139.5400  123.9800 N.4       4 LYS4        0.0000 
     53 NZ         99.6000  138.7200  122.9800 N.4       4 LYS4        0.0000 
     54 NZ        100.3600  137.9100  121.9800 N.4       4 LYS4        0.0000 
     55 CA         92.7500  138.5500  122.4300 C.3       5 GLY6        0.0000 
     56 CA         94.2600  136.9200  120.4200 C.3       5 GLY6        0.0000 
     57 CA         94.5300  135.8800  121.4700 C.3       5 GLY6        0.0000 
     58 CA         94.0100  139.2600  122.8100 C.3       5 GLY6        0.0000 
     59 CA         94.5000  139.4800  120.7600 C.3       5 GLY6        0.0000 
     60 CA         94.7700  138.4400  121.8000 C.3       5 GLY6        0.0000 
     61 CA         95.3100  136.3700  123.9000 C.3       5 GLY6        0.0000 
     62 CA         95.5800  135.3300  124.9500 C.3       5 GLY6        0.0000 
     63 CA         96.0700  135.5500  122.9000 C.3       5 GLY6        0.0000 
     64 CA         96.3400  134.5100  123.9400 C.3       5 GLY6        0.0000 
     65 CA         97.1000  133.7000  122.9400 C.3       5 GLY6        0.0000 
     66 CA         95.0100  141.0100  122.1400 C.3       5 GLY6        0.0000 
     67 CA         96.0400  139.1600  122.1800 C.3       5 GLY6        0.0000 
     68 CA         96.7900  138.3400  121.1800 C.3       5 GLY6        0.0000 
     69 CA         98.0400  137.7500  118.1200 C.3       5 GLY6        0.0000 
     70 CA         97.0300  140.9100  121.5100 C.3       5 GLY6        0.0000 
     71 CA         97.7900  140.0900  120.5100 C.3       5 GLY6        0.0000 
     72 CA         98.5500  139.2700  119.5000 C.3       5 GLY6        0.0000 
     73 CA         99.5800  137.4200  119.5500 C.3       5 GLY6        0.0000 
     74 CA        100.0600  137.6400  117.4900 C.3       5 GLY6        0.0000 
     75 CA         99.1100  138.5000  125.0300 C.3       5 GLY6        0.0000 
     76 CA         99.8100  139.9800  119.8800 C.3       5 GLY6        0.0000 
     77 CA        100.5700  139.1700  118.8700 C.3       5 GLY6        0.0000 
     78 DU         95.2800  139.9700  123.1900 H         6 CUB7        0.0000 
     79 DU         95.5500  138.9300  124.2300 H         6 CUB7        0.0000 
     80 DU         95.8200  137.8900  125.2800 H         6 CUB7        0.0000 
     81 DU         96.3100  138.1200  123.2300 H         6 CUB7        0.0000 
     82 DU         97.0700  137.3000  122.2300 H         6 CUB7        0.0000 
     83 DU         96.3300  139.4200  126.6600 H         6 CUB7        0.0000 
     84 DU         96.5400  140.6800  123.5600 H         6 CUB7        0.0000 
     85 DU         97.3000  139.8700  122.5600 H         6 CUB7        0.0000 
     86 DU         97.5700  138.8300  123.6100 H         6 CUB7        0.0000 
     87 DU         98.0600  139.0500  121.5500 H         6 CUB7        0.0000 
     88 DU         98.8200  138.2400  120.5500 H         6 CUB7        0.0000 
     89 DU         99.8500  136.3800  120.5900 H         6 CUB7        0.0000 
     90 DU        100.6100  135.5600  119.5900 H         6 CUB7        0.0000 
     91 DU         98.0800  140.3600  124.9900 H         6 CUB7        0.0000 
     92 DU         98.5700  140.5800  122.9400 H         6 CUB7        0.0000 
     93 DU         99.3300  139.7600  121.9300 H         6 CUB7        0.0000 
@<TRIPOS>BOND
@<TRIPOS>SUBSTRUCTURE
     1 SER1        1 GROUP   
     2 ALA2        6 GROUP   
     3 ASP3       14 GROUP   
     4 LYS4       36 GROUP   
     5 GLY6       55 GROUP   
     6 CUB7       78 GROUP   
@<TRIPOS>SET

