#    Name: 6gjz_1_ANP
#    Modification time : Fri May 22 19:23:17 2020

@<TRIPOS>MOLECULE
6gjz_1_ANP
   31    33     1     0     1
SMALL
NO_CHARGES


@<TRIPOS>ATOM
      1 PG         96.6780  137.6560  119.8140 P.3       1 ANP1102     0.0000 
      2 O1G        96.5150  137.9520  118.2750 O.co2     1 ANP1102     0.0000 
      3 O2G        97.9610  138.2540  120.3000 O.co2     1 ANP1102     0.0000 
      4 O3G        96.6470  136.1000  120.0800 O.co2     1 ANP1102     0.0000 
      5 PB         95.2990  137.7040  122.1650 P.3       1 ANP1102     0.0000 
      6 O1B        94.0720  136.7510  122.2160 O.co2     1 ANP1102     0.0000 
      7 O2B        96.5720  136.9820  122.4640 O.co2     1 ANP1102     0.0000 
      8 N3B        95.3710  138.3420  120.6270 N.3       1 ANP1102     0.0000 
      9 PA         94.1380  140.0220  122.7470 P.3       1 ANP1102     0.0000 
     10 O1A        93.5860  139.5770  121.3880 O.co2     1 ANP1102     0.0000 
     11 O2A        94.8240  141.3350  122.7650 O.co2     1 ANP1102     0.0000 
     12 O3A        95.1110  138.8620  123.1810 O.3       1 ANP1102     0.0000 
     13 O5'        93.0250  140.0410  123.8640 O.3       1 ANP1102     0.0000 
     14 C5'        93.3730  140.3330  125.2270 C.3       1 ANP1102     0.0000 
     15 C4'        93.0980  141.7910  125.4880 C.3       1 ANP1102     0.0000 
     16 O4'        92.0410  142.2390  124.6130 O.3       1 ANP1102     0.0000 
     17 C3'        92.6100  142.1060  126.8950 C.3       1 ANP1102     0.0000 
     18 O3'        92.9390  143.4390  127.2630 O.3       1 ANP1102     0.0000 
     19 C2'        91.1010  141.9050  126.7660 C.3       1 ANP1102     0.0000 
     20 O2'        90.3850  142.6870  127.7140 O.3       1 ANP1102     0.0000 
     21 C1'        90.8420  142.4170  125.3450 C.3       1 ANP1102     0.0000 
     22 N9         89.7770  141.7030  124.6520 N.pl3     1 ANP1102     0.0000 
     23 C8         89.9180  140.7290  123.7040 C.2       1 ANP1102     0.0000 
     24 N7         88.7800  140.2550  123.2510 N.2       1 ANP1102     0.0000 
     25 C5         87.8290  140.9660  123.9540 C.ar      1 ANP1102     0.0000 
     26 C6         86.4190  140.9360  123.9380 C.ar      1 ANP1102     0.0000 
     27 N6         85.7000  140.1260  123.1560 N.pl3     1 ANP1102     0.0000 
     28 N1         85.7630  141.7780  124.7690 N.ar      1 ANP1102     0.0000 
     29 C2         86.4730  142.5900  125.5560 C.ar      1 ANP1102     0.0000 
     30 N3         87.8000  142.7060  125.6560 N.ar      1 ANP1102     0.0000 
     31 C4         88.4210  141.8620  124.8300 C.ar      1 ANP1102     0.0000 
@<TRIPOS>BOND
     1    1    2 ar   
     2    1    3 ar   
     3    1    4 ar   
     4    1    8 1    
     5    5    6 ar   
     6    5    7 ar   
     7    5    8 1    
     8    5   12 1    
     9    9   10 ar   
    10    9   11 ar   
    11    9   12 1    
    12    9   13 1    
    13   13   14 1    
    14   14   15 1    
    15   15   16 1    
    16   15   17 1    
    17   16   21 1    
    18   17   18 1    
    19   17   19 1    
    20   19   20 1    
    21   19   21 1    
    22   21   22 1    
    23   22   23 1    
    24   22   31 1    
    25   23   24 2    
    26   24   25 1    
    27   25   26 ar   
    28   25   31 ar   
    29   26   27 1    
    30   26   28 ar   
    31   28   29 ar   
    32   29   30 ar   
    33   30   31 ar   
@<TRIPOS>SUBSTRUCTURE
     1 ANP1102     1 GROUP   
@<TRIPOS>SET
ATOM$ORANGE STATIC     ATOMS   COLORGROUP SYSTEM 
20 14 14 15 15 17 17 19 19 21 21 23 23 25 25 26 26 29 \
29 31 31 

