#    Name: 6bra_1_SER_GLY_ILE_PHE_LEU_GLU_THR_SER
#    Modification time : Fri May 22 19:32:10 2020

@<TRIPOS>MOLECULE
6bra_1_SER_GLY_ILE_PHE_LEU_GLU_THR_SER
   60    91     8     0     0
SMALL
NO_CHARGES


@<TRIPOS>ATOM
      1 N           7.9880   14.0470   16.7110 N.am      1 SER1        0.0000 
      2 CA          8.5130   14.9100   17.7630 C.3       1 SER1        0.0000 
      3 C           9.6800   15.7480   17.2520 C.2       1 SER1        0.0000 
      4 O          10.7590   15.2250   16.9760 O.2       1 SER1        0.0000 
      5 CB          8.9440   14.0790   18.9700 C.3       1 SER1        0.0000 
      6 OG          8.2060   14.4560   20.1190 O.3       1 SER1        0.0000 
      7 N           9.4500   17.0530   17.1180 N.am      2 GLY2        0.0000 
      8 CA         10.4550   17.9420   16.5720 C.3       2 GLY2        0.0000 
      9 C          11.0700   18.8630   17.6060 C.2       2 GLY2        0.0000 
     10 O          10.3640   19.6360   18.2650 O.2       2 GLY2        0.0000 
     11 N          21.0140   25.6720   16.8660 N.4       3 ILE3        0.0000 
     12 CA         19.6950   25.6230   16.2510 C.3       3 ILE3        0.0000 
     13 C          18.9110   24.4690   16.8560 C.2       3 ILE3        0.0000 
     14 O          18.9370   23.3400   16.3440 O.2       3 ILE3        0.0000 
     15 CB         19.8130   25.4830   14.7250 C.3       3 ILE3        0.0000 
     16 CG1        20.8080   26.5020   14.1620 C.3       3 ILE3        0.0000 
     17 CG2        18.4480   25.6190   14.0770 C.3       3 ILE3        0.0000 
     18 CD1        20.3970   27.9430   14.3580 C.3       3 ILE3        0.0000 
     19 N          18.2080   24.7340   17.9550 N.am      4 PHE4        0.0000 
     20 CA         17.6180   23.6680   18.7640 C.3       4 PHE4        0.0000 
     21 C          16.1620   23.3780   18.4260 C.2       4 PHE4        0.0000 
     22 O          15.3140   23.1960   19.3050 O.2       4 PHE4        0.0000 
     23 CB         17.8470   23.9290   20.2450 C.3       4 PHE4        0.0000 
     24 CG         19.2990   24.0680   20.5850 C.ar      4 PHE4        0.0000 
     25 CD1        20.1730   23.0140   20.3720 C.ar      4 PHE4        0.0000 
     26 CD2        19.8070   25.2650   21.0600 C.ar      4 PHE4        0.0000 
     27 CE1        21.5220   23.1410   20.6600 C.ar      4 PHE4        0.0000 
     28 CE2        21.1530   25.4000   21.3500 C.ar      4 PHE4        0.0000 
     29 CZ         22.0120   24.3340   21.1500 C.ar      4 PHE4        0.0000 
     30 N          15.8600   23.3350   17.1310 N.am      5 LEU5        0.0000 
     31 CA         14.6490   22.6830   16.6610 C.3       5 LEU5        0.0000 
     32 C          14.5330   21.3030   17.2940 C.2       5 LEU5        0.0000 
     33 O          15.5170   20.5650   17.3990 O.2       5 LEU5        0.0000 
     34 CB         14.7430   22.5220   15.1430 C.3       5 LEU5        0.0000 
     35 CG         13.6320   21.6830   14.5190 C.3       5 LEU5        0.0000 
     36 CD1        12.3140   22.4290   14.5440 C.3       5 LEU5        0.0000 
     37 CD2        14.0030   21.2340   13.1070 C.3       5 LEU5        0.0000 
     38 N          13.3250   20.9600   17.7300 N.am      6 GLU6        0.0000 
     39 CA         13.0660   19.6100   18.2100 C.3       6 GLU6        0.0000 
     40 C          11.6390   19.2340   17.8450 C.2       6 GLU6        0.0000 
     41 O          10.7070   20.0230   18.0480 O.2       6 GLU6        0.0000 
     42 CB         13.2940   19.4900   19.7200 C.3       6 GLU6        0.0000 
     43 CG         13.1960   18.0720   20.2600 C.3       6 GLU6        0.0000 
     44 CD         11.7680   17.6570   20.5910 C.2       6 GLU6        0.0000 
     45 OE1        11.5420   16.4360   20.7820 O.co2     6 GLU6        0.0000 
     46 OE2        10.8780   18.5400   20.6610 O.co2     6 GLU6        0.0000 
     47 N          11.4780   18.0280   17.3040 N.4       7 THR7        0.0000 
     48 CA         10.1860   17.5750   16.8180 C.3       7 THR7        0.0000 
     49 C           9.9320   16.1410   17.2590 C.2       7 THR7        0.0000 
     50 O          10.8620   15.3600   17.4910 O.2       7 THR7        0.0000 
     51 CB         10.0890   17.6610   15.2820 C.3       7 THR7        0.0000 
     52 OG1        11.0550   16.7880   14.6870 O.3       7 THR7        0.0000 
     53 CG2        10.3330   19.0850   14.7970 C.3       7 THR7        0.0000 
     54 N           8.6520   15.8080   17.3690 N.4       8 SER8        0.0000 
     55 CA          8.2400   14.4240   17.5440 C.3       8 SER8        0.0000 
     56 C           6.8200   14.2310   17.0300 C.2       8 SER8        0.0000 
     57 O           6.1190   15.1890   16.7100 O.2       8 SER8        0.0000 
     58 CB          8.3440   13.9960   19.0070 C.3       8 SER8        0.0000 
     59 OG          7.3640   14.6380   19.8020 O.3       8 SER8        0.0000 
     60 OXT         6.3470   13.1000   16.9150 O.3       8 SER8        0.0000 
@<TRIPOS>BOND
     1    3    7 am   
     2    9   10 2    
     3   49   50 2    
     4   51   52 1    
     5   56   57 2    
     6   31   34 1    
     7   32   33 2    
     8   32   38 am   
     9   34   35 1    
    10   35   36 1    
    11   35   37 1    
    12   38   39 1    
    13   39   40 1    
    14   39   42 1    
    15   40   41 2    
    16   40   47 am   
    17   42   43 1    
    18   43   44 1    
    19   44   45 ar   
    20   44   46 ar   
    21   47   48 1    
    22   48   49 1    
    23   48   51 1    
    24   49   54 am   
    25   51   53 1    
    26   54   55 1    
    27   55   56 1    
    28   55   58 1    
    29   56   60 1    
    30   58   59 1    
    31    1    2 1    
    32    2    3 1    
    33    3    4 2    
    34    1   55 du   
    35    1   56 am   
    36    2    5 1    
    37    2   49 du   
    38    2   54 du   
    39    4   49 2    
    40    2   55 du   
    41    5   59 du   
    42    2   56 du   
    43    6   58 du   
    44    3   48 du   
    45    2   58 du   
    46    6   59 du   
    47    5   58 du   
    48    3   49 du   
    49    3   50 2    
    50    3   54 am   
    51    3   55 du   
    52    4   50 du   
    53    5    6 1    
    54    5   55 du   
    55   10   41 du   
    56   11   12 1    
    57    7    8 1    
    58    7   48 du   
    59    7   49 am   
    60    7   54 du   
    61    8    9 1    
    62    8   47 du   
    63    9   41 2    
    64    8   48 du   
    65    8   49 du   
    66    8   51 du   
    67    9   40 du   
    68    9   47 am   
    69    9   48 du   
    70   10   40 2    
    71   12   13 1    
    72   12   15 1    
    73   13   14 2    
    74   13   19 am   
    75   15   16 1    
    76   15   17 1    
    77   16   18 1    
    78   19   20 1    
    79   20   21 1    
    80   20   23 1    
    81   21   22 2    
    82   21   30 am   
    83   23   24 1    
    84   24   25 ar   
    85   24   26 ar   
    86   25   27 ar   
    87   26   28 ar   
    88   27   29 ar   
    89   28   29 ar   
    90   30   31 1    
    91   31   32 1    
@<TRIPOS>SUBSTRUCTURE
     1 SER1        1 RESIDUE 
     2 GLY2        7 RESIDUE 
     3 ILE3       11 RESIDUE 
     4 PHE4       19 RESIDUE 
     5 LEU5       30 RESIDUE 
     6 GLU6       38 RESIDUE 
     7 THR7       47 RESIDUE 
     8 SER8       54 RESIDUE 
@<TRIPOS>SET

