#    Name: 6myx_2_DTP_CAVITY_N1_4
#    Modification time : Fri May 22 19:31:42 2020

@<TRIPOS>MOLECULE
6myx_2_DTP_CAVITY_N1_4
   62     0     7     0     0
SMALL
NO_CHARGES


@<TRIPOS>ATOM
      1 OG        106.7200  172.8700   98.7500 O.3       1 SER1        0.0000 
      2 OG        105.8700  174.0200   99.2000 O.3       1 SER1        0.0000 
      3 N         102.1800  171.8800   97.7600 N.am      2 ALA2        0.0000 
      4 N         102.0300  171.2400   99.1100 N.am      2 ALA2        0.0000 
      5 N          99.8900  171.6000  104.0600 N.am      2 ALA2        0.0000 
      6 N          99.0400  172.7500  104.5200 N.am      2 ALA2        0.0000 
      7 O         103.4100  172.6000   98.2400 O.2       2 ALA2        0.0000 
      8 O         104.1100  170.8000   99.1300 O.2       2 ALA2        0.0000 
      9 N         100.4200  174.1100  103.6600 N.am      2 ALA2        0.0000 
     10 N         101.1200  172.3100  104.5400 N.am      2 ALA2        0.0000 
     11 N         109.9500  173.0700  104.2200 N.am      2 ALA2        0.0000 
     12 N         108.9600  173.5700  106.0200 N.am      2 ALA2        0.0000 
     13 N         108.1100  174.7200  106.4800 N.am      2 ALA2        0.0000 
     14 OD1        99.9600  171.6800   99.0900 O.co2     3 ASP3        0.0000 
     15 OD1       101.1900  172.3900   99.5700 O.co2     3 ASP3        0.0000 
     16 OD1       101.0400  171.7400  100.9100 O.co2     3 ASP3        0.0000 
     17 OD1       102.5700  173.7500   98.7000 O.co2     3 ASP3        0.0000 
     18 OD1       102.4200  173.1000  100.0500 O.co2     3 ASP3        0.0000 
     19 OD1       101.5700  174.2500  100.5100 O.co2     3 ASP3        0.0000 
     20 OD1       101.4200  173.6000  101.8500 O.co2     3 ASP3        0.0000 
     21 OD1       101.2700  172.9600  103.2000 O.co2     3 ASP3        0.0000 
     22 OD1       103.8000  174.4600   99.1800 O.co2     3 ASP3        0.0000 
     23 OD1       103.6500  173.8100  100.5300 O.co2     3 ASP3        0.0000 
     24 OD1       103.4900  173.1700  101.8700 O.co2     3 ASP3        0.0000 
     25 OD1       104.8700  174.5200  101.0100 O.co2     3 ASP3        0.0000 
     26 OD1       104.7200  173.8800  102.3500 O.co2     3 ASP3        0.0000 
     27 OD1       107.3300  175.9500  101.9700 O.co2     3 ASP3        0.0000 
     28 NZ         99.1900  173.4000  103.1800 N.4       4 LYS4        0.0000 
     29 CZ        101.8800  170.5900  100.4500 C.ar      5 PHE5        0.0000 
     30 CZ        100.8800  171.0900  102.2600 C.ar      5 PHE5        0.0000 
     31 CZ        103.2600  171.9500   99.5900 C.ar      5 PHE5        0.0000 
     32 CZ        102.2600  172.4500  101.3900 C.ar      5 PHE5        0.0000 
     33 CZ        102.1100  171.8100  102.7400 C.ar      5 PHE5        0.0000 
     34 CZ        104.3400  172.0100  101.4100 C.ar      5 PHE5        0.0000 
     35 CZ        104.1900  171.3700  102.7600 C.ar      5 PHE5        0.0000 
     36 CZ        103.3400  172.5200  103.2200 C.ar      5 PHE5        0.0000 
     37 CZ        103.1900  171.8700  104.5600 C.ar      5 PHE5        0.0000 
     38 CZ        106.5700  172.2200  100.0900 C.ar      5 PHE5        0.0000 
     39 CZ        105.7200  173.3700  100.5500 C.ar      5 PHE5        0.0000 
     40 CZ        105.5700  172.7300  101.8900 C.ar      5 PHE5        0.0000 
     41 CZ        105.4200  172.0800  103.2400 C.ar      5 PHE5        0.0000 
     42 CZ        107.6500  172.2900  101.9200 C.ar      5 PHE5        0.0000 
     43 CZ        106.8000  173.4400  102.3700 C.ar      5 PHE5        0.0000 
     44 CZ        108.0300  174.1500  102.8500 C.ar      5 PHE5        0.0000 
     45 CZ        109.2600  174.8600  103.3400 C.ar      5 PHE5        0.0000 
     46 CA        100.3400  173.5400  100.0300 C.3       6 GLY6        0.0000 
     47 CA        105.4900  172.1600   98.2700 C.3       6 GLY6        0.0000 
     48 CA        105.3400  171.5100   99.6100 C.3       6 GLY6        0.0000 
     49 CA        104.4900  172.6600  100.0700 C.3       6 GLY6        0.0000 
     50 CA        106.4200  171.5800  101.4400 C.3       6 GLY6        0.0000 
     51 CA        104.5700  173.2300  103.7000 C.3       6 GLY6        0.0000 
     52 CA        106.6500  172.7900  103.7200 C.3       6 GLY6        0.0000 
     53 CA        108.7200  172.3500  103.7400 C.3       6 GLY6        0.0000 
     54 CA        107.8800  173.5000  104.2000 C.3       6 GLY6        0.0000 
     55 CA        107.0300  174.6600  104.6600 C.3       6 GLY6        0.0000 
     56 CA        108.2600  175.3700  105.1400 C.3       6 GLY6        0.0000 
     57 CA        107.4200  176.5200  105.6000 C.3       6 GLY6        0.0000 
     58 DU        101.3400  173.0400   98.2200 H         7 CUB7        0.0000 
     59 DU        100.1900  172.8900  101.3700 H         7 CUB7        0.0000 
     60 DU        100.0400  172.2500  102.7200 H         7 CUB7        0.0000 
     61 DU        104.6400  173.3100   98.7200 H         7 CUB7        0.0000 
     62 DU        109.1100  174.2200  104.6800 H         7 CUB7        0.0000 
@<TRIPOS>BOND
@<TRIPOS>SUBSTRUCTURE
     1 SER1        1 GROUP   
     2 ALA2        3 GROUP   
     3 ASP3       14 GROUP   
     4 LYS4       28 GROUP   
     5 PHE5       29 GROUP   
     6 GLY6       46 GROUP   
     7 CUB7       58 GROUP   
@<TRIPOS>SET

