#    Name: 6myx_8_DTP_CAVITY_N1_12
#    Modification time : Fri May 22 19:32:51 2020

@<TRIPOS>MOLECULE
6myx_8_DTP_CAVITY_N1_12
   70     0     7     0     0
SMALL
NO_CHARGES


@<TRIPOS>ATOM
      1 OG        136.3200  173.9900  194.6200 O.3       1 SER1        0.0000 
      2 OG        136.1700  173.3400  195.9600 O.3       1 SER1        0.0000 
      3 N         133.0900  173.7900  189.1400 N.am      2 ALA2        0.0000 
      4 N         132.9300  173.1500  190.4800 N.am      2 ALA2        0.0000 
      5 N         132.0900  174.3000  190.9400 N.am      2 ALA2        0.0000 
      6 N         134.4700  175.1500  188.2800 N.am      2 ALA2        0.0000 
      7 N         134.3200  174.5100  189.6200 N.am      2 ALA2        0.0000 
      8 N         141.2400  171.3900  190.5700 N.am      2 ALA2        0.0000 
      9 O         138.9400  171.1100  196.8700 O.2       2 ALA2        0.0000 
     10 N         142.4700  172.1100  191.0500 N.am      2 ALA2        0.0000 
     11 OD1       133.6200  176.3000  188.7300 O.co2     3 ASP3        0.0000 
     12 OD1       137.3200  173.4900  192.8100 O.co2     3 ASP3        0.0000 
     13 OD1       135.6300  175.7900  193.7300 O.co2     3 ASP3        0.0000 
     14 OD1       137.1700  172.8400  194.1600 O.co2     3 ASP3        0.0000 
     15 OD1       139.3900  173.0500  192.8300 O.co2     3 ASP3        0.0000 
     16 OD1       139.2400  172.4000  194.1800 O.co2     3 ASP3        0.0000 
     17 OD1       138.4000  173.5500  194.6400 O.co2     3 ASP3        0.0000 
     18 OD1       137.5500  174.7000  195.1000 O.co2     3 ASP3        0.0000 
     19 OD1       143.1600  170.3100  191.9400 O.co2     3 ASP3        0.0000 
     20 OD1       141.4700  172.6100  192.8500 O.co2     3 ASP3        0.0000 
     21 OD1       142.1600  170.8100  193.7400 O.co2     3 ASP3        0.0000 
     22 OD1       141.3200  171.9600  194.2000 O.co2     3 ASP3        0.0000 
     23 OD1       140.4700  173.1100  194.6600 O.co2     3 ASP3        0.0000 
     24 OD1       141.1700  171.3200  195.5400 O.co2     3 ASP3        0.0000 
     25 OD1       143.3900  171.5200  194.2200 O.co2     3 ASP3        0.0000 
     26 OD1       141.7000  173.8200  195.1400 O.co2     3 ASP3        0.0000 
     27 OD1       142.4000  172.0300  196.0200 O.co2     3 ASP3        0.0000 
     28 OD1       145.4700  171.0800  194.2400 O.co2     3 ASP3        0.0000 
     29 OD1       144.6200  172.2400  194.7000 O.co2     3 ASP3        0.0000 
     30 NZ        143.7000  172.8200  191.5300 N.4       4 LYS4        0.0000 
     31 NZ        144.3900  171.0200  192.4200 N.4       4 LYS4        0.0000 
     32 NZ        143.5500  172.1700  192.8800 N.4       4 LYS4        0.0000 
     33 NZ        144.7700  172.8800  193.3600 N.4       4 LYS4        0.0000 
     34 CZ        131.2400  175.4500  191.4000 C.ar      5 PHE5        0.0000 
     35 CZ        134.1600  173.8600  190.9600 C.ar      5 PHE5        0.0000 
     36 CZ        133.3200  175.0100  191.4200 C.ar      5 PHE5        0.0000 
     37 CZ        137.0900  172.2700  190.5300 C.ar      5 PHE5        0.0000 
     38 CZ        134.5500  175.7200  191.9000 C.ar      5 PHE5        0.0000 
     39 CZ        136.9300  171.6200  191.8700 C.ar      5 PHE5        0.0000 
     40 CZ        136.0900  172.7700  192.3300 C.ar      5 PHE5        0.0000 
     41 CZ        135.9400  172.1300  193.6800 C.ar      5 PHE5        0.0000 
     42 CZ        138.1600  172.3400  192.3500 C.ar      5 PHE5        0.0000 
     43 CZ        138.0100  171.6900  193.7000 C.ar      5 PHE5        0.0000 
     44 CZ        136.0200  172.7000  197.3000 C.ar      5 PHE5        0.0000 
     45 CZ        140.2400  171.9000  192.3700 C.ar      5 PHE5        0.0000 
     46 CZ        139.9400  170.6000  195.0600 C.ar      5 PHE5        0.0000 
     47 CZ        139.0900  171.7500  195.5200 C.ar      5 PHE5        0.0000 
     48 CZ        142.3200  171.4600  192.4000 C.ar      5 PHE5        0.0000 
     49 CZ        146.0000  173.5900  193.8400 C.ar      5 PHE5        0.0000 
     50 CZ        145.8500  172.9500  195.1800 C.ar      5 PHE5        0.0000 
     51 CA        132.2400  174.9500  189.6000 C.3       6 GLY6        0.0000 
     52 CA        135.0100  172.7100  190.5100 C.3       6 GLY6        0.0000 
     53 CA        134.8600  172.0600  191.8500 C.3       6 GLY6        0.0000 
     54 CA        134.7000  176.3700  190.5600 C.3       6 GLY6        0.0000 
     55 CA        136.2400  173.4200  190.9900 C.3       6 GLY6        0.0000 
     56 CA        135.3900  174.5700  191.4500 C.3       6 GLY6        0.0000 
     57 CA        135.7900  171.4800  195.0200 C.3       6 GLY6        0.0000 
     58 CA        137.8600  171.0400  195.0400 C.3       6 GLY6        0.0000 
     59 CA        137.0200  172.1900  195.5000 C.3       6 GLY6        0.0000 
     60 CA        143.3100  170.9500  190.5900 C.3       6 GLY6        0.0000 
     61 CA        142.7000  173.3200  193.3300 C.3       6 GLY6        0.0000 
     62 CA        143.9300  174.0300  193.8100 C.3       6 GLY6        0.0000 
     63 CA        143.7800  173.3900  195.1600 C.3       6 GLY6        0.0000 
     64 CA        142.9300  174.5400  195.6200 C.3       6 GLY6        0.0000 
     65 CA        145.0100  174.1000  195.6400 C.3       6 GLY6        0.0000 
     66 DU        133.4700  175.6600  190.0800 H         7 CUB7        0.0000 
     67 DU        138.2500  172.9000  195.9800 H         7 CUB7        0.0000 
     68 DU        140.3200  172.4700  196.0000 H         7 CUB7        0.0000 
     69 DU        142.5500  172.6700  194.6800 H         7 CUB7        0.0000 
     70 DU        141.5500  173.1800  196.4800 H         7 CUB7        0.0000 
@<TRIPOS>BOND
@<TRIPOS>SUBSTRUCTURE
     1 SER1        1 GROUP   
     2 ALA2        3 GROUP   
     3 ASP3       11 GROUP   
     4 LYS4       30 GROUP   
     5 PHE5       34 GROUP   
     6 GLY6       51 GROUP   
     7 CUB7       66 GROUP   
@<TRIPOS>SET

