#    Name: 6myx_5_DTP
#    Modification time : Fri May 22 19:32:22 2020

@<TRIPOS>MOLECULE
6myx_5_DTP
   30    32     1     0     0
SMALL
NO_CHARGES


@<TRIPOS>ATOM
      1 PG        163.4850  138.4770  184.0840 P.3       1 DTP1001     0.0000 
      2 O1G       162.1500  138.9620  183.5810 O.co2     1 DTP1001     0.0000 
      3 O2G       163.6650  138.8970  185.5190 O.co2     1 DTP1001     0.0000 
      4 O3G       163.5720  136.9810  183.9780 O.co2     1 DTP1001     0.0000 
      5 PB        164.6750  139.4170  181.5720 P.3       1 DTP1001     0.0000 
      6 O1B       165.8890  138.7680  180.9620 O.co2     1 DTP1001     0.0000 
      7 O2B       164.7220  140.9030  181.3350 O.co2     1 DTP1001     0.0000 
      8 O3B       164.6300  139.1210  183.1850 O.3       1 DTP1001     0.0000 
      9 PA        162.0080  139.4540  180.1790 P.3       1 DTP1001     0.0000 
     10 O1A       162.1340  139.3530  178.6790 O.co2     1 DTP1001     0.0000 
     11 O2A       161.8720  140.8900  180.6100 O.co2     1 DTP1001     0.0000 
     12 O3A       163.3250  138.7780  180.8880 O.3       1 DTP1001     0.0000 
     13 O5'       160.6810  138.6220  180.6570 O.3       1 DTP1001     0.0000 
     14 C5'       160.8860  137.3120  181.0770 C.3       1 DTP1001     0.0000 
     15 C4'       160.0140  136.4000  180.2580 C.3       1 DTP1001     0.0000 
     16 O4'       158.6690  136.9390  180.1980 O.3       1 DTP1001     0.0000 
     17 C3'       160.5820  136.3370  178.8470 C.3       1 DTP1001     0.0000 
     18 O3'       161.0940  135.0270  178.6340 O.3       1 DTP1001     0.0000 
     19 C2'       159.3740  136.5750  177.9210 C.3       1 DTP1001     0.0000 
     20 C1'       158.2900  137.1460  178.8460 C.3       1 DTP1001     0.0000 
     21 N9        158.0740  138.5740  178.6090 N.pl3     1 DTP1001     0.0000 
     22 C8        158.6500  139.8030  178.5630 C.2       1 DTP1001     0.0000 
     23 N7        157.7110  140.6980  178.2330 N.2       1 DTP1001     0.0000 
     24 C5        156.5490  140.0550  178.0640 C.ar      1 DTP1001     0.0000 
     25 C6        155.2760  140.4730  177.7230 C.ar      1 DTP1001     0.0000 
     26 N6        155.0090  141.7620  177.4870 N.pl3     1 DTP1001     0.0000 
     27 N1        154.2920  139.5910  177.6280 N.ar      1 DTP1001     0.0000 
     28 C2        154.6070  138.3050  177.8740 C.ar      1 DTP1001     0.0000 
     29 N3        155.7760  137.8070  178.2040 N.ar      1 DTP1001     0.0000 
     30 C4        156.7840  138.6950  178.3010 C.ar      1 DTP1001     0.0000 
@<TRIPOS>BOND
     1    1    2 ar   
     2    1    3 ar   
     3    1    4 ar   
     4    1    8 1    
     5    5    6 ar   
     6    5    7 ar   
     7    5    8 1    
     8    5   12 1    
     9    9   10 ar   
    10    9   11 ar   
    11    9   12 1    
    12    9   13 1    
    13   13   14 1    
    14   14   15 1    
    15   15   16 1    
    16   15   17 1    
    17   16   20 1    
    18   17   18 1    
    19   17   19 1    
    20   19   20 1    
    21   20   21 1    
    22   21   22 1    
    23   21   30 1    
    24   22   23 2    
    25   23   24 1    
    26   24   25 ar   
    27   24   30 ar   
    28   25   26 1    
    29   25   27 ar   
    30   27   28 ar   
    31   28   29 ar   
    32   29   30 ar   
@<TRIPOS>SUBSTRUCTURE
     1 DTP1001     1 GROUP   
@<TRIPOS>SET

