#    Name: 6myx_4_DTP_CAVITY_N1_6
#    Modification time : Fri May 22 19:32:07 2020

@<TRIPOS>MOLECULE
6myx_4_DTP_CAVITY_N1_6
   76     0     7     0     0
SMALL
NO_CHARGES


@<TRIPOS>ATOM
      1 OG         69.7800   98.2400  154.0700 O.3       1 SER1        0.0000 
      2 OG         73.6400   91.1200  159.4400 O.3       1 SER1        0.0000 
      3 N          69.3900   96.3800  153.1300 N.am      2 ALA2        0.0000 
      4 N          74.3200   88.8300  151.7200 N.am      2 ALA2        0.0000 
      5 N          73.4700   89.9800  152.1800 N.am      2 ALA2        0.0000 
      6 N          69.2400   95.7300  154.4700 N.am      2 ALA2        0.0000 
      7 N          74.7000   90.6900  152.6600 N.am      2 ALA2        0.0000 
      8 O          73.8600   91.8400  153.1200 O.2       2 ALA2        0.0000 
      9 N          76.2400   87.7400  153.0900 N.am      2 ALA2        0.0000 
     10 N          72.1000   94.0600  159.0100 N.am      2 ALA2        0.0000 
     11 O          74.0200   92.9800  160.3800 O.2       2 ALA2        0.0000 
     12 OD1        73.9300   86.9600  150.7800 O.co2     3 ASP3        0.0000 
     13 OD1        75.1600   87.6800  151.2600 O.co2     3 ASP3        0.0000 
     14 OD1        75.0100   87.0300  152.6100 O.co2     3 ASP3        0.0000 
     15 OD1        69.0900   95.0800  155.8200 O.co2     3 ASP3        0.0000 
     16 OD1        73.0200   88.0400  156.2100 O.co2     3 ASP3        0.0000 
     17 OD1        72.0100   93.5000  155.3800 O.co2     3 ASP3        0.0000 
     18 OD1        70.3200   95.8000  156.3000 O.co2     3 ASP3        0.0000 
     19 OD1        69.4800   96.9500  156.7600 O.co2     3 ASP3        0.0000 
     20 OD1        73.5500   90.5500  155.8100 O.co2     3 ASP3        0.0000 
     21 OD1        72.7100   91.7000  156.2700 O.co2     3 ASP3        0.0000 
     22 OD1        71.8600   92.8500  156.7300 O.co2     3 ASP3        0.0000 
     23 OD1        71.0200   94.0000  157.1800 O.co2     3 ASP3        0.0000 
     24 OD1        70.1700   95.1500  157.6400 O.co2     3 ASP3        0.0000 
     25 OD1        69.3300   96.3000  158.1000 O.co2     3 ASP3        0.0000 
     26 OD1        68.4800   97.4500  158.5600 O.co2     3 ASP3        0.0000 
     27 OD1        72.5600   91.0500  157.6100 O.co2     3 ASP3        0.0000 
     28 OD1        71.7100   92.2000  158.0700 O.co2     3 ASP3        0.0000 
     29 OD1        70.8700   93.3500  158.5300 O.co2     3 ASP3        0.0000 
     30 OD1        71.5500   96.5100  156.7800 O.co2     3 ASP3        0.0000 
     31 OD1        71.4000   95.8600  158.1200 O.co2     3 ASP3        0.0000 
     32 OD1        70.4000   96.3700  159.9300 O.co2     3 ASP3        0.0000 
     33 NZ         67.0200   95.5200  155.8000 N.4       4 LYS4        0.0000 
     34 NZ         68.4000   96.8800  154.9300 N.4       4 LYS4        0.0000 
     35 NZ         68.2500   96.2400  156.2800 N.4       4 LYS4        0.0000 
     36 NZ         69.6300   97.5900  155.4100 N.4       4 LYS4        0.0000 
     37 CZ         67.2500   96.7400  158.0800 C.ar      5 PHE5        0.0000 
     38 CZ         73.8700   86.8900  155.7500 C.ar      5 PHE5        0.0000 
     39 CZ         71.4700   95.9400  153.1500 C.ar      5 PHE5        0.0000 
     40 CZ         71.3200   95.2900  154.4900 C.ar      5 PHE5        0.0000 
     41 CZ         70.4700   96.4400  154.9500 C.ar      5 PHE5        0.0000 
     42 CZ         71.1700   94.6500  155.8400 C.ar      5 PHE5        0.0000 
     43 CZ         76.0900   87.0900  154.4300 C.ar      5 PHE5        0.0000 
     44 CZ         75.2500   88.2500  154.8900 C.ar      5 PHE5        0.0000 
     45 CZ         74.4000   89.4000  155.3500 C.ar      5 PHE5        0.0000 
     46 CZ         73.4000   89.9000  157.1500 C.ar      5 PHE5        0.0000 
     47 CZ         71.7000   97.1600  155.4300 C.ar      5 PHE5        0.0000 
     48 CZ         74.9300   91.9100  154.9400 C.ar      5 PHE5        0.0000 
     49 CZ         74.0900   93.0600  155.4000 C.ar      5 PHE5        0.0000 
     50 CZ         75.6300   90.1100  155.8300 C.ar      5 PHE5        0.0000 
     51 CZ         74.7800   91.2600  156.2900 C.ar      5 PHE5        0.0000 
     52 CZ         73.9400   92.4100  156.7500 C.ar      5 PHE5        0.0000 
     53 CZ         73.0900   93.5600  157.2100 C.ar      5 PHE5        0.0000 
     54 CZ         72.2500   94.7100  157.6600 C.ar      5 PHE5        0.0000 
     55 CZ         74.6300   90.6100  157.6300 C.ar      5 PHE5        0.0000 
     56 CA         73.0900   88.1100  151.2400 C.3       6 GLY6        0.0000 
     57 CA         72.9400   87.4700  152.5800 C.3       6 GLY6        0.0000 
     58 CA         74.1700   88.1800  153.0600 C.3       6 GLY6        0.0000 
     59 CA         74.0200   87.5300  154.4100 C.3       6 GLY6        0.0000 
     60 CA         68.9400   94.4400  157.1600 C.3       6 GLY6        0.0000 
     61 CA         68.1000   95.5900  157.6200 C.3       6 GLY6        0.0000 
     62 CA         68.7900   93.7900  158.5100 C.3       6 GLY6        0.0000 
     63 CA         70.6200   97.0900  153.6100 C.3       6 GLY6        0.0000 
     64 CA         75.4000   88.8900  153.5400 C.3       6 GLY6        0.0000 
     65 CA         74.5500   90.0400  154.0000 C.3       6 GLY6        0.0000 
     66 CA         73.7000   91.1900  154.4600 C.3       6 GLY6        0.0000 
     67 CA         72.8600   92.3400  154.9200 C.3       6 GLY6        0.0000 
     68 CA         76.6300   89.6000  154.0200 C.3       6 GLY6        0.0000 
     69 CA         75.7800   90.7600  154.4800 C.3       6 GLY6        0.0000 
     70 CA         73.7900   91.7600  158.0900 C.3       6 GLY6        0.0000 
     71 CA         75.0200   92.4700  158.5700 C.3       6 GLY6        0.0000 
     72 CA         74.1700   93.6300  159.0300 C.3       6 GLY6        0.0000 
     73 CA         74.8700   91.8300  159.9200 C.3       6 GLY6        0.0000 
     74 CA         74.7200   91.1800  161.2600 C.3       6 GLY6        0.0000 
     75 DU         74.8600   86.3800  153.9500 H         7 CUB7        0.0000 
     76 DU         72.9400   92.9100  158.5500 H         7 CUB7        0.0000 
@<TRIPOS>BOND
@<TRIPOS>SUBSTRUCTURE
     1 SER1        1 GROUP   
     2 ALA2        3 GROUP   
     3 ASP3       12 GROUP   
     4 LYS4       33 GROUP   
     5 PHE5       37 GROUP   
     6 GLY6       56 GROUP   
     7 CUB7       75 GROUP   
@<TRIPOS>SET

