#    Name: 6myx_7_DTP
#    Modification time : Fri May 22 19:32:43 2020

@<TRIPOS>MOLECULE
6myx_7_DTP
   30    32     1     0     0
SMALL
NO_CHARGES


@<TRIPOS>ATOM
      1 PG        165.0980  133.0590  147.6060 P.3       1 DTP1001     0.0000 
      2 O1G       165.5100  132.8430  146.1730 O.co2     1 DTP1001     0.0000 
      3 O2G       164.2530  134.2970  147.7110 O.co2     1 DTP1001     0.0000 
      4 O3G       164.3320  131.8580  148.0970 O.co2     1 DTP1001     0.0000 
      5 PB        166.5940  133.0270  150.1310 P.3       1 DTP1001     0.0000 
      6 O1B       167.5350  131.8790  150.3700 O.co2     1 DTP1001     0.0000 
      7 O2B       167.1550  134.2800  150.7510 O.co2     1 DTP1001     0.0000 
      8 O3B       166.3920  133.2430  148.5170 O.3       1 DTP1001     0.0000 
      9 PA        164.4920  131.3650  151.4980 P.3       1 DTP1001     0.0000 
     10 O1A       165.2640  130.1460  151.0680 O.co2     1 DTP1001     0.0000 
     11 O2A       164.5180  131.5140  152.9990 O.co2     1 DTP1001     0.0000 
     12 O3A       165.1280  132.7080  150.8010 O.3       1 DTP1001     0.0000 
     13 O5'       162.9370  131.2170  151.0060 O.3       1 DTP1001     0.0000 
     14 C5'       162.3030  132.3820  150.5860 C.3       1 DTP1001     0.0000 
     15 C4'       161.0490  132.5680  151.3950 C.3       1 DTP1001     0.0000 
     16 O4'       160.3120  131.3200  151.4430 O.3       1 DTP1001     0.0000 
     17 C3'       161.4490  132.9570  152.8120 C.3       1 DTP1001     0.0000 
     18 O3'       161.0540  134.3060  153.0290 O.3       1 DTP1001     0.0000 
     19 C2'       160.6300  132.0280  153.7270 C.3       1 DTP1001     0.0000 
     20 C1'       160.1270  130.9170  152.7920 C.3       1 DTP1001     0.0000 
     21 N9        160.8250  129.6530  153.0280 N.pl3     1 DTP1001     0.0000 
     22 C8        162.0310  129.0310  153.0820 C.2       1 DTP1001     0.0000 
     23 N7        161.8310  127.7480  153.4040 N.2       1 DTP1001     0.0000 
     24 C5        160.5160  127.5480  153.5610 C.ar      1 DTP1001     0.0000 
     25 C6        159.7590  126.4380  153.8900 C.ar      1 DTP1001     0.0000 
     26 N6        160.3330  125.2530  154.1250 N.pl3     1 DTP1001     0.0000 
     27 N1        158.4410  126.5360  153.9740 N.ar      1 DTP1001     0.0000 
     28 C2        157.9080  127.7480  153.7300 C.ar      1 DTP1001     0.0000 
     29 N3        158.5340  128.8560  153.4110 N.ar      1 DTP1001     0.0000 
     30 C4        159.8740  128.7690  153.3250 C.ar      1 DTP1001     0.0000 
@<TRIPOS>BOND
     1    1    2 ar   
     2    1    3 ar   
     3    1    4 ar   
     4    1    8 1    
     5    5    6 ar   
     6    5    7 ar   
     7    5    8 1    
     8    5   12 1    
     9    9   10 ar   
    10    9   11 ar   
    11    9   12 1    
    12    9   13 1    
    13   13   14 1    
    14   14   15 1    
    15   15   16 1    
    16   15   17 1    
    17   16   20 1    
    18   17   18 1    
    19   17   19 1    
    20   19   20 1    
    21   20   21 1    
    22   21   22 1    
    23   21   30 1    
    24   22   23 2    
    25   23   24 1    
    26   24   25 ar   
    27   24   30 ar   
    28   25   26 1    
    29   25   27 ar   
    30   27   28 ar   
    31   28   29 ar   
    32   29   30 ar   
@<TRIPOS>SUBSTRUCTURE
     1 DTP1001     1 GROUP   
@<TRIPOS>SET

