#    Name: 6myx_6_DTP_CAVITY_N1_6
#    Modification time : Fri May 22 19:32:28 2020

@<TRIPOS>MOLECULE
6myx_6_DTP_CAVITY_N1_6
   85     0     7     0     0
SMALL
NO_CHARGES


@<TRIPOS>ATOM
      1 OG        165.8100   90.0700  135.7900 O.3       1 SER1        0.0000 
      2 OG        166.5100   88.2800  136.6800 O.3       1 SER1        0.0000 
      3 OG        165.6600   89.4300  137.1400 O.3       1 SER1        0.0000 
      4 OG        169.2700   96.4400  140.9200 O.3       1 SER1        0.0000 
      5 O         165.9600   90.7200  134.4500 O.2       2 ALA2        0.0000 
      6 N         165.0600   86.8400  142.5200 N.am      2 ALA2        0.0000 
      7 O         167.1900   91.4300  134.9300 O.2       2 ALA2        0.0000 
      8 O         166.3500   92.5800  135.3900 O.2       2 ALA2        0.0000 
      9 N         165.5900   89.3500  142.1100 N.am      2 ALA2        0.0000 
     10 N         167.5800   93.3000  135.8700 N.am      2 ALA2        0.0000 
     11 N         168.9600   94.6500  135.0000 N.am      2 ALA2        0.0000 
     12 N         168.7400   93.9300  141.3200 N.am      2 ALA2        0.0000 
     13 N         170.8100   93.4900  141.3400 N.am      2 ALA2        0.0000 
     14 N         169.9700   94.6400  141.8000 N.am      2 ALA2        0.0000 
     15 OD1       163.8300   86.1300  142.0400 O.co2     3 ASP3        0.0000 
     16 OD1       164.5200   84.3300  142.9200 O.co2     3 ASP3        0.0000 
     17 OD1       166.3600   87.6300  138.0300 O.co2     3 ASP3        0.0000 
     18 OD1       165.7500   85.0400  143.4000 O.co2     3 ASP3        0.0000 
     19 OD1       167.0400   90.7900  136.2700 O.co2     3 ASP3        0.0000 
     20 OD1       166.8900   90.1400  137.6200 O.co2     3 ASP3        0.0000 
     21 OD1       166.7400   89.4900  138.9600 O.co2     3 ASP3        0.0000 
     22 OD1       168.2700   91.5000  136.7600 O.co2     3 ASP3        0.0000 
     23 OD1       168.1200   90.8500  138.1000 O.co2     3 ASP3        0.0000 
     24 OD1       167.1200   91.3500  139.9000 O.co2     3 ASP3        0.0000 
     25 OD1       168.8100   94.0100  136.3500 O.co2     3 ASP3        0.0000 
     26 OD1       169.5000   92.2100  137.2400 O.co2     3 ASP3        0.0000 
     27 OD1       168.6600   93.3600  137.6900 O.co2     3 ASP3        0.0000 
     28 OD1       168.5000   92.7100  139.0400 O.co2     3 ASP3        0.0000 
     29 OD1       168.3500   92.0700  140.3800 O.co2     3 ASP3        0.0000 
     30 OD1       170.1900   95.3700  135.4800 O.co2     3 ASP3        0.0000 
     31 OD1       170.0400   94.7200  136.8300 O.co2     3 ASP3        0.0000 
     32 OD1       169.8900   94.0700  138.1700 O.co2     3 ASP3        0.0000 
     33 OD1       169.0400   95.2200  138.6300 O.co2     3 ASP3        0.0000 
     34 OD1       170.5800   92.2700  139.0600 O.co2     3 ASP3        0.0000 
     35 OD1       169.7300   93.4300  139.5200 O.co2     3 ASP3        0.0000 
     36 OD1       171.4200   96.0800  135.9700 O.co2     3 ASP3        0.0000 
     37 OD1       171.2700   95.4300  137.3100 O.co2     3 ASP3        0.0000 
     38 OD1       170.2700   95.9400  139.1100 O.co2     3 ASP3        0.0000 
     39 NZ        171.1100   94.7800  138.6500 N.4       4 LYS4        0.0000 
     40 NZ        170.9600   94.1400  140.0000 N.4       4 LYS4        0.0000 
     41 NZ        170.1200   95.2900  140.4600 N.4       4 LYS4        0.0000 
     42 CZ        163.6000   84.9100  139.7500 C.ar      5 PHE5        0.0000 
     43 CZ        164.8300   85.6200  140.2300 C.ar      5 PHE5        0.0000 
     44 CZ        163.9800   86.7700  140.6900 C.ar      5 PHE5        0.0000 
     45 CZ        165.5100   88.7800  138.4800 C.ar      5 PHE5        0.0000 
     46 CZ        164.6700   89.9300  138.9400 C.ar      5 PHE5        0.0000 
     47 CZ        166.2000   91.9400  136.7300 C.ar      5 PHE5        0.0000 
     48 CZ        166.0500   91.2900  138.0800 C.ar      5 PHE5        0.0000 
     49 CZ        165.8900   90.6400  139.4200 C.ar      5 PHE5        0.0000 
     50 CZ        167.4300   92.6500  137.2100 C.ar      5 PHE5        0.0000 
     51 CZ        167.2800   92.0000  138.5600 C.ar      5 PHE5        0.0000 
     52 CZ        167.8100   94.5100  138.1500 C.ar      5 PHE5        0.0000 
     53 CZ        167.5100   93.2200  140.8400 C.ar      5 PHE5        0.0000 
     54 CZ        168.8900   94.5800  139.9800 C.ar      5 PHE5        0.0000 
     55 CZ        168.0400   95.7300  140.4400 C.ar      5 PHE5        0.0000 
     56 CZ        167.8900   95.0800  141.7800 C.ar      5 PHE5        0.0000 
     57 CA        162.7500   86.0600  140.2100 C.3       6 GLY6        0.0000 
     58 CA        163.4500   84.2600  141.1000 C.3       6 GLY6        0.0000 
     59 CA        162.6000   85.4100  141.5600 C.3       6 GLY6        0.0000 
     60 CA        164.7300   90.0100  133.9700 C.3       6 GLY6        0.0000 
     61 CA        163.2800   88.5700  139.8100 C.3       6 GLY6        0.0000 
     62 CA        163.1300   87.9200  141.1500 C.3       6 GLY6        0.0000 
     63 CA        162.9800   87.2800  142.5000 C.3       6 GLY6        0.0000 
     64 CA        164.9700   91.2200  136.2500 C.3       6 GLY6        0.0000 
     65 CA        164.8200   90.5800  137.6000 C.3       6 GLY6        0.0000 
     66 CA        166.2100   86.9800  139.3700 C.3       6 GLY6        0.0000 
     67 CA        165.3600   88.1300  139.8300 C.3       6 GLY6        0.0000 
     68 CA        164.5100   89.2800  140.2900 C.3       6 GLY6        0.0000 
     69 CA        166.0600   86.3300  140.7100 C.3       6 GLY6        0.0000 
     70 CA        165.2100   87.4900  141.1700 C.3       6 GLY6        0.0000 
     71 CA        164.3600   88.6400  141.6300 C.3       6 GLY6        0.0000 
     72 CA        165.7400   90.0000  140.7700 C.3       6 GLY6        0.0000 
     73 CA        166.9700   90.7100  141.2500 C.3       6 GLY6        0.0000 
     74 CA        171.7300   92.4200  135.9100 C.3       6 GLY6        0.0000 
     75 CA        170.7300   92.9200  137.7200 C.3       6 GLY6        0.0000 
     76 CA        172.9600   93.1300  136.3900 C.3       6 GLY6        0.0000 
     77 CA        172.1100   94.2800  136.8500 C.3       6 GLY6        0.0000 
     78 CA        171.9600   93.6300  138.2000 C.3       6 GLY6        0.0000 
     79 CA        171.8100   92.9900  139.5400 C.3       6 GLY6        0.0000 
     80 CA        169.1200   95.7900  142.2600 C.3       6 GLY6        0.0000 
     81 DU        164.6800   84.9800  141.5800 H         7 CUB7        0.0000 
     82 DU        168.4200   92.1400  135.4100 H         7 CUB7        0.0000 
     83 DU        169.6500   92.8600  135.8900 H         7 CUB7        0.0000 
     84 DU        170.8800   93.5700  136.3700 H         7 CUB7        0.0000 
     85 DU        172.2600   94.9300  135.5100 H         7 CUB7        0.0000 
@<TRIPOS>BOND
@<TRIPOS>SUBSTRUCTURE
     1 SER1        1 GROUP   
     2 ALA2        5 GROUP   
     3 ASP3       15 GROUP   
     4 LYS4       39 GROUP   
     5 PHE5       42 GROUP   
     6 GLY6       57 GROUP   
     7 CUB7       81 GROUP   
@<TRIPOS>SET

