#    Name: 6myx_1_DTP
#    Modification time : Fri May 22 19:31:34 2020

@<TRIPOS>MOLECULE
6myx_1_DTP
   30    32     1     0     0
SMALL
NO_CHARGES


@<TRIPOS>ATOM
      1 PG         75.8810  134.6910  147.4610 P.3       1 DTP1001     0.0000 
      2 O1G        76.5810  133.4540  146.9610 O.co2     1 DTP1001     0.0000 
      3 O2G        75.4730  134.4930  148.8970 O.co2     1 DTP1001     0.0000 
      4 O3G        76.7860  135.8850  147.3500 O.co2     1 DTP1001     0.0000 
      5 PB         74.3620  134.7390  144.9510 P.3       1 DTP1001     0.0000 
      6 O1B        73.8590  136.0190  144.3370 O.co2     1 DTP1001     0.0000 
      7 O2B        73.3630  133.6390  144.7190 O.co2     1 DTP1001     0.0000 
      8 O3B        74.5900  134.9410  146.5620 O.3       1 DTP1001     0.0000 
      9 PA         76.3660  132.9760  143.5610 P.3       1 DTP1001     0.0000 
     10 O1A        76.3330  133.1290  142.0610 O.co2     1 DTP1001     0.0000 
     11 O2A        75.5380  131.7960  143.9970 O.co2     1 DTP1001     0.0000 
     12 O3A        75.8030  134.3470  144.2660 O.3       1 DTP1001     0.0000 
     13 O5'        77.9150  132.7500  144.0380 O.3       1 DTP1001     0.0000 
     14 C5'        78.6110  133.8800  144.4540 C.3       1 DTP1001     0.0000 
     15 C4'        79.8650  134.0050  143.6330 C.3       1 DTP1001     0.0000 
     16 O4'        80.5380  132.7220  143.5760 O.3       1 DTP1001     0.0000 
     17 C3'        79.4720  134.4170  142.2210 C.3       1 DTP1001     0.0000 
     18 O3'        79.9320  135.7440  142.0030 O.3       1 DTP1001     0.0000 
     19 C2'        80.2350  133.4500  141.2970 C.3       1 DTP1001     0.0000 
     20 C1'        80.6910  132.3130  142.2250 C.3       1 DTP1001     0.0000 
     21 N9         79.9280  131.0860  141.9940 N.pl3     1 DTP1001     0.0000 
     22 C8         78.6920  130.5250  141.9510 C.2       1 DTP1001     0.0000 
     23 N7         78.8250  129.2340  141.6250 N.2       1 DTP1001     0.0000 
     24 C5         80.1260  128.9690  141.4550 C.ar      1 DTP1001     0.0000 
     25 C6         80.8230  127.8230  141.1180 C.ar      1 DTP1001     0.0000 
     26 N6         80.1890  126.6690  140.8870 N.pl3     1 DTP1001     0.0000 
     27 N1         82.1430  127.8550  141.0220 N.ar      1 DTP1001     0.0000 
     28 C2         82.7390  129.0390  141.2610 C.ar      1 DTP1001     0.0000 
     29 N3         82.1730  130.1760  141.5880 N.ar      1 DTP1001     0.0000 
     30 C4         80.8300  130.1560  141.6870 C.ar      1 DTP1001     0.0000 
@<TRIPOS>BOND
     1    1    2 ar   
     2    1    3 ar   
     3    1    4 ar   
     4    1    8 1    
     5    5    6 ar   
     6    5    7 ar   
     7    5    8 1    
     8    5   12 1    
     9    9   10 ar   
    10    9   11 ar   
    11    9   12 1    
    12    9   13 1    
    13   13   14 1    
    14   14   15 1    
    15   15   16 1    
    16   15   17 1    
    17   16   20 1    
    18   17   18 1    
    19   17   19 1    
    20   19   20 1    
    21   20   21 1    
    22   21   22 1    
    23   21   30 1    
    24   22   23 2    
    25   23   24 1    
    26   24   25 ar   
    27   24   30 ar   
    28   25   26 1    
    29   25   27 ar   
    30   27   28 ar   
    31   28   29 ar   
    32   29   30 ar   
@<TRIPOS>SUBSTRUCTURE
     1 DTP1001     1 GROUP   
@<TRIPOS>SET

