#    Name: 6myx_3_DTP
#    Modification time : Fri May 22 19:31:59 2020

@<TRIPOS>MOLECULE
6myx_3_DTP
   30    32     1     0     0
SMALL
NO_CHARGES


@<TRIPOS>ATOM
      1 PG         77.7900  139.7770  110.6520 P.3       1 DTP1001     0.0000 
      2 O1G        77.6190  140.2000  109.2160 O.co2     1 DTP1001     0.0000 
      3 O2G        77.6450  138.2850  110.7620 O.co2     1 DTP1001     0.0000 
      4 O3G        79.1440  140.2110  111.1480 O.co2     1 DTP1001     0.0000 
      5 PB         76.6480  140.7690  113.1660 P.3       1 DTP1001     0.0000 
      6 O1B        76.6600  142.2550  113.3990 O.co2     1 DTP1001     0.0000 
      7 O2B        75.4120  140.1690  113.7830 O.co2     1 DTP1001     0.0000 
      8 O3B        76.6730  140.4680  111.5540 O.3       1 DTP1001     0.0000 
      9 PA         79.3200  140.7060  114.5480 P.3       1 DTP1001     0.0000 
     10 O1A        79.5100  142.1350  114.1130 O.co2     1 DTP1001     0.0000 
     11 O2A        79.1970  140.6150  116.0480 O.co2     1 DTP1001     0.0000 
     12 O3A        77.9750  140.0800  113.8470 O.3       1 DTP1001     0.0000 
     13 O5'        80.6110  139.8220  114.0660 O.3       1 DTP1001     0.0000 
     14 C5'        80.3550  138.5200  113.6510 C.3       1 DTP1001     0.0000 
     15 C4'        81.1940  137.5770  114.4680 C.3       1 DTP1001     0.0000 
     16 O4'        82.5590  138.0640  114.5210 O.3       1 DTP1001     0.0000 
     17 C3'        80.6310  137.5400  115.8810 C.3       1 DTP1001     0.0000 
     18 O3'        80.0690  136.2520  116.1010 O.3       1 DTP1001     0.0000 
     19 C2'        81.8500  137.7330  116.8020 C.3       1 DTP1001     0.0000 
     20 C1'        82.9530  138.2600  115.8710 C.3       1 DTP1001     0.0000 
     21 N9         83.2240  139.6790  116.1030 N.pl3     1 DTP1001     0.0000 
     22 C8         82.6970  140.9300  116.1480 C.2       1 DTP1001     0.0000 
     23 N7         83.6710  141.7890  116.4720 N.2       1 DTP1001     0.0000 
     24 C5         84.8070  141.1010  116.6370 C.ar      1 DTP1001     0.0000 
     25 C6         86.0970  141.4700  116.9710 C.ar      1 DTP1001     0.0000 
     26 N6         86.4140  142.7490  117.2020 N.pl3     1 DTP1001     0.0000 
     27 N1         87.0460  140.5510  117.0640 N.ar      1 DTP1001     0.0000 
     28 C2         86.6810  139.2780  116.8240 C.ar      1 DTP1001     0.0000 
     29 N3         85.4930  138.8260  116.5010 N.ar      1 DTP1001     0.0000 
     30 C4         84.5190  139.7510  116.4060 C.ar      1 DTP1001     0.0000 
@<TRIPOS>BOND
     1    1    2 ar   
     2    1    3 ar   
     3    1    4 ar   
     4    1    8 1    
     5    5    6 ar   
     6    5    7 ar   
     7    5    8 1    
     8    5   12 1    
     9    9   10 ar   
    10    9   11 ar   
    11    9   12 1    
    12    9   13 1    
    13   13   14 1    
    14   14   15 1    
    15   15   16 1    
    16   15   17 1    
    17   16   20 1    
    18   17   18 1    
    19   17   19 1    
    20   19   20 1    
    21   20   21 1    
    22   21   22 1    
    23   21   30 1    
    24   22   23 2    
    25   23   24 1    
    26   24   25 ar   
    27   24   30 ar   
    28   25   26 1    
    29   25   27 ar   
    30   27   28 ar   
    31   28   29 ar   
    32   29   30 ar   
@<TRIPOS>SUBSTRUCTURE
     1 DTP1001     1 GROUP   
@<TRIPOS>SET

