#    Name: 6myx_2_DTP_CAVITY_N1_ALL
#    Modification time : Fri May 22 19:31:42 2020

@<TRIPOS>MOLECULE
6myx_2_DTP_CAVITY_N1_ALL
   89     0     7     0     0
SMALL
NO_CHARGES


@<TRIPOS>ATOM
      1 OG         98.6600  170.8900  103.5800 O.3       1 SER1        0.0000 
      2 OG        106.7200  172.8700   98.7500 O.3       1 SER1        0.0000 
      3 OG        105.8700  174.0200   99.2000 O.3       1 SER1        0.0000 
      4 N         102.1800  171.8800   97.7600 N.am      2 ALA2        0.0000 
      5 N         102.0300  171.2400   99.1100 N.am      2 ALA2        0.0000 
      6 N          99.8900  171.6000  104.0600 N.am      2 ALA2        0.0000 
      7 N          99.0400  172.7500  104.5200 N.am      2 ALA2        0.0000 
      8 O         103.4100  172.6000   98.2400 O.2       2 ALA2        0.0000 
      9 O         104.1100  170.8000   99.1300 O.2       2 ALA2        0.0000 
     10 N         100.4200  174.1100  103.6600 N.am      2 ALA2        0.0000 
     11 N         101.1200  172.3100  104.5400 N.am      2 ALA2        0.0000 
     12 N         109.9500  173.0700  104.2200 N.am      2 ALA2        0.0000 
     13 N         108.9600  173.5700  106.0200 N.am      2 ALA2        0.0000 
     14 N         108.1100  174.7200  106.4800 N.am      2 ALA2        0.0000 
     15 OD1        97.7300  171.4700  100.4100 O.co2     3 ASP3        0.0000 
     16 OD1        99.9600  171.6800   99.0900 O.co2     3 ASP3        0.0000 
     17 OD1        99.1100  172.8300   99.5500 O.co2     3 ASP3        0.0000 
     18 OD1        98.9600  172.1800  100.8900 O.co2     3 ASP3        0.0000 
     19 OD1        98.8100  171.5300  102.2400 O.co2     3 ASP3        0.0000 
     20 OD1       101.1900  172.3900   99.5700 O.co2     3 ASP3        0.0000 
     21 OD1       101.0400  171.7400  100.9100 O.co2     3 ASP3        0.0000 
     22 OD1       102.5700  173.7500   98.7000 O.co2     3 ASP3        0.0000 
     23 OD1       102.4200  173.1000  100.0500 O.co2     3 ASP3        0.0000 
     24 OD1       101.5700  174.2500  100.5100 O.co2     3 ASP3        0.0000 
     25 OD1       101.4200  173.6000  101.8500 O.co2     3 ASP3        0.0000 
     26 OD1       101.2700  172.9600  103.2000 O.co2     3 ASP3        0.0000 
     27 OD1       103.8000  174.4600   99.1800 O.co2     3 ASP3        0.0000 
     28 OD1       103.6500  173.8100  100.5300 O.co2     3 ASP3        0.0000 
     29 OD1       103.4900  173.1700  101.8700 O.co2     3 ASP3        0.0000 
     30 OD1       104.8700  174.5200  101.0100 O.co2     3 ASP3        0.0000 
     31 OD1       104.7200  173.8800  102.3500 O.co2     3 ASP3        0.0000 
     32 OD1       107.3300  175.9500  101.9700 O.co2     3 ASP3        0.0000 
     33 OD1       109.4900  176.0800  105.6200 O.co2     3 ASP3        0.0000 
     34 NZ         98.1100  173.3300  101.3500 N.4       4 LYS4        0.0000 
     35 NZ         97.2700  174.4800  101.8100 N.4       4 LYS4        0.0000 
     36 NZ         97.9600  172.6800  102.6900 N.4       4 LYS4        0.0000 
     37 NZ         99.1900  173.4000  103.1800 N.4       4 LYS4        0.0000 
     38 CZ         97.0300  173.2700   99.5200 C.ar      5 PHE5        0.0000 
     39 CZ         96.1900  174.4200   99.9800 C.ar      5 PHE5        0.0000 
     40 CZ         96.8800  172.6200  100.8700 C.ar      5 PHE5        0.0000 
     41 CZ        101.8800  170.5900  100.4500 C.ar      5 PHE5        0.0000 
     42 CZ        100.8800  171.0900  102.2600 C.ar      5 PHE5        0.0000 
     43 CZ        103.2600  171.9500   99.5900 C.ar      5 PHE5        0.0000 
     44 CZ        102.2600  172.4500  101.3900 C.ar      5 PHE5        0.0000 
     45 CZ        102.1100  171.8100  102.7400 C.ar      5 PHE5        0.0000 
     46 CZ        104.3400  172.0100  101.4100 C.ar      5 PHE5        0.0000 
     47 CZ        104.1900  171.3700  102.7600 C.ar      5 PHE5        0.0000 
     48 CZ        103.3400  172.5200  103.2200 C.ar      5 PHE5        0.0000 
     49 CZ        103.1900  171.8700  104.5600 C.ar      5 PHE5        0.0000 
     50 CZ        106.5700  172.2200  100.0900 C.ar      5 PHE5        0.0000 
     51 CZ        105.7200  173.3700  100.5500 C.ar      5 PHE5        0.0000 
     52 CZ        105.5700  172.7300  101.8900 C.ar      5 PHE5        0.0000 
     53 CZ        105.4200  172.0800  103.2400 C.ar      5 PHE5        0.0000 
     54 CZ        107.6500  172.2900  101.9200 C.ar      5 PHE5        0.0000 
     55 CZ        106.8000  173.4400  102.3700 C.ar      5 PHE5        0.0000 
     56 CZ        108.0300  174.1500  102.8500 C.ar      5 PHE5        0.0000 
     57 CZ        109.2600  174.8600  103.3400 C.ar      5 PHE5        0.0000 
     58 CZ        111.4800  175.0700  102.0100 C.ar      5 PHE5        0.0000 
     59 CZ        110.4900  175.5800  103.8200 C.ar      5 PHE5        0.0000 
     60 CA         98.2600  173.9800  100.0000 C.3       6 GLY6        0.0000 
     61 CA         97.4200  175.1300  100.4600 C.3       6 GLY6        0.0000 
     62 CA         99.6400  175.3400   99.1400 C.3       6 GLY6        0.0000 
     63 CA        100.3400  173.5400  100.0300 C.3       6 GLY6        0.0000 
     64 CA         99.4900  174.6900  100.4900 C.3       6 GLY6        0.0000 
     65 CA         99.3400  174.0400  101.8300 C.3       6 GLY6        0.0000 
     66 CA        105.4900  172.1600   98.2700 C.3       6 GLY6        0.0000 
     67 CA        105.3400  171.5100   99.6100 C.3       6 GLY6        0.0000 
     68 CA        104.4900  172.6600  100.0700 C.3       6 GLY6        0.0000 
     69 CA        106.4200  171.5800  101.4400 C.3       6 GLY6        0.0000 
     70 CA        104.5700  173.2300  103.7000 C.3       6 GLY6        0.0000 
     71 CA        106.6500  172.7900  103.7200 C.3       6 GLY6        0.0000 
     72 CA        108.7200  172.3500  103.7400 C.3       6 GLY6        0.0000 
     73 CA        107.8800  173.5000  104.2000 C.3       6 GLY6        0.0000 
     74 CA        107.0300  174.6600  104.6600 C.3       6 GLY6        0.0000 
     75 CA        108.4100  176.0100  103.7900 C.3       6 GLY6        0.0000 
     76 CA        107.5700  177.1700  104.2500 C.3       6 GLY6        0.0000 
     77 CA        108.2600  175.3700  105.1400 C.3       6 GLY6        0.0000 
     78 CA        107.4200  176.5200  105.6000 C.3       6 GLY6        0.0000 
     79 CA        112.1800  173.2700  102.9000 C.3       6 GLY6        0.0000 
     80 CA        111.3300  174.4200  103.3600 C.3       6 GLY6        0.0000 
     81 CA        110.3400  174.9300  105.1600 C.3       6 GLY6        0.0000 
     82 CA        112.5600  175.1400  103.8400 C.3       6 GLY6        0.0000 
     83 CA        111.7200  176.2900  104.3000 C.3       6 GLY6        0.0000 
     84 CA        111.5700  175.6400  105.6400 C.3       6 GLY6        0.0000 
     85 DU        101.3400  173.0400   98.2200 H         7 CUB7        0.0000 
     86 DU        100.1900  172.8900  101.3700 H         7 CUB7        0.0000 
     87 DU        100.0400  172.2500  102.7200 H         7 CUB7        0.0000 
     88 DU        104.6400  173.3100   98.7200 H         7 CUB7        0.0000 
     89 DU        109.1100  174.2200  104.6800 H         7 CUB7        0.0000 
@<TRIPOS>BOND
@<TRIPOS>SUBSTRUCTURE
     1 SER1        1 GROUP   
     2 ALA2        4 GROUP   
     3 ASP3       15 GROUP   
     4 LYS4       34 GROUP   
     5 PHE5       38 GROUP   
     6 GLY6       60 GROUP   
     7 CUB7       85 GROUP   
@<TRIPOS>SET

