#    Name: 6myx_6_DTP
#    Modification time : Fri May 22 19:32:27 2020

@<TRIPOS>MOLECULE
6myx_6_DTP
   30    32     1     0     0
SMALL
NO_CHARGES


@<TRIPOS>ATOM
      1 PG        169.5440   84.5890  133.1540 P.3       1 DTP1002     0.0000 
      2 O1G       168.5260   85.3670  132.3600 O.co2     1 DTP1002     0.0000 
      3 O2G       170.8380   84.5170  132.3870 O.co2     1 DTP1002     0.0000 
      4 O3G       169.0310   83.2000  133.4310 O.co2     1 DTP1002     0.0000 
      5 PB        170.1550   86.9220  134.7970 P.3       1 DTP1002     0.0000 
      6 O1B       170.4000   87.5850  133.4670 O.co2     1 DTP1002     0.0000 
      7 O2B       171.3740   87.0340  135.6770 O.co2     1 DTP1002     0.0000 
      8 O3B       169.8020   85.3450  134.5290 O.3       1 DTP1002     0.0000 
      9 PA        167.2530   87.4080  135.2920 P.3       1 DTP1002     0.0000 
     10 O1A       167.0000   86.0130  134.7810 O.co2     1 DTP1002     0.0000 
     11 O2A       166.5500   87.6040  136.6110 O.co2     1 DTP1002     0.0000 
     12 O3A       168.8630   87.6410  135.5070 O.3       1 DTP1002     0.0000 
     13 O5'       166.6960   88.5010  134.1940 O.3       1 DTP1002     0.0000 
     14 C5'       165.6760   89.3750  134.5830 C.3       1 DTP1002     0.0000 
     15 C4'       166.1060   90.8230  134.4480 C.3       1 DTP1002     0.0000 
     16 O4'       165.5890   91.6290  135.5400 O.3       1 DTP1002     0.0000 
     17 C3'       167.6150   90.9630  134.5710 C.3       1 DTP1002     0.0000 
     18 O3'       168.0070   92.2280  134.0470 O.3       1 DTP1002     0.0000 
     19 C2'       167.8060   90.9350  136.1030 C.3       1 DTP1002     0.0000 
     20 C1'       166.4790   91.5150  136.6460 C.3       1 DTP1002     0.0000 
     21 N9        165.8010   90.7320  137.6930 N.pl3     1 DTP1002     0.0000 
     22 C8        164.8100   89.8290  137.9260 C.2       1 DTP1002     0.0000 
     23 N7        164.7490   89.5570  139.2280 N.2       1 DTP1002     0.0000 
     24 C5        165.6900   90.2820  139.8340 C.ar      1 DTP1002     0.0000 
     25 C6        166.0510   90.3980  141.1550 C.ar      1 DTP1002     0.0000 
     26 N6        165.4260   89.6650  142.0760 N.pl3     1 DTP1002     0.0000 
     27 N1        167.0430   91.1980  141.5110 N.ar      1 DTP1002     0.0000 
     28 C2        167.6380   91.8850  140.5230 C.ar      1 DTP1002     0.0000 
     29 N3        167.3600   91.8610  139.2410 N.ar      1 DTP1002     0.0000 
     30 C4        166.3610   91.0380  138.8660 C.ar      1 DTP1002     0.0000 
@<TRIPOS>BOND
     1    1    2 ar   
     2    1    3 ar   
     3    1    4 ar   
     4    1    8 1    
     5    5    6 ar   
     6    5    7 ar   
     7    5    8 1    
     8    5   12 1    
     9    9   10 ar   
    10    9   11 ar   
    11    9   12 1    
    12    9   13 1    
    13   13   14 1    
    14   14   15 1    
    15   15   16 1    
    16   15   17 1    
    17   16   20 1    
    18   17   18 1    
    19   17   19 1    
    20   19   20 1    
    21   20   21 1    
    22   21   22 1    
    23   21   30 1    
    24   22   23 2    
    25   23   24 1    
    26   24   25 ar   
    27   24   30 ar   
    28   25   26 1    
    29   25   27 ar   
    30   27   28 ar   
    31   28   29 ar   
    32   29   30 ar   
@<TRIPOS>SUBSTRUCTURE
     1 DTP1002     1 GROUP   
@<TRIPOS>SET

