#    Name: 6myx_8_DTP
#    Modification time : Fri May 22 19:32:49 2020

@<TRIPOS>MOLECULE
6myx_8_DTP
   30    32     1     0     0
SMALL
NO_CHARGES


@<TRIPOS>ATOM
      1 PG        136.5870  179.2000  198.5230 P.3       1 DTP1002     0.0000 
      2 O1G       135.3360  179.9880  198.2400 O.co2     1 DTP1002     0.0000 
      3 O2G       136.2490  177.9590  199.3090 O.co2     1 DTP1002     0.0000 
      4 O3G       137.5620  180.0430  199.3040 O.co2     1 DTP1002     0.0000 
      5 PB        138.5090  177.7330  196.8900 P.3       1 DTP1002     0.0000 
      6 O1B       139.5500  178.3920  196.0230 O.co2     1 DTP1002     0.0000 
      7 O2B       139.0960  177.3500  198.2230 O.co2     1 DTP1002     0.0000 
      8 O3B       137.2650  178.7650  197.1520 O.3       1 DTP1002     0.0000 
      9 PA        136.5110  175.5790  196.3670 P.3       1 DTP1002     0.0000 
     10 O1A       136.0840  175.0020  195.0420 O.co2     1 DTP1002     0.0000 
     11 O2A       135.4550  176.5280  196.8740 O.co2     1 DTP1002     0.0000 
     12 O3A       137.9300  176.3790  196.1680 O.3       1 DTP1002     0.0000 
     13 O5'       136.7270  174.3680  197.4620 O.3       1 DTP1002     0.0000 
     14 C5'       136.4560  173.0540  197.0630 C.3       1 DTP1002     0.0000 
     15 C4'       137.6790  172.1700  197.2040 C.3       1 DTP1002     0.0000 
     16 O4'       137.7690  171.2200  196.1090 O.3       1 DTP1002     0.0000 
     17 C3'       138.9600  172.9800  197.0960 C.3       1 DTP1002     0.0000 
     18 O3'       140.0390  172.2150  197.6260 O.3       1 DTP1002     0.0000 
     19 C2'       139.1090  173.1260  195.5660 C.3       1 DTP1002     0.0000 
     20 C1'       138.4150  171.8600  195.0110 C.3       1 DTP1002     0.0000 
     21 N9        137.4090  172.0710  193.9570 N.pl3     1 DTP1002     0.0000 
     22 C8        136.0750  172.1830  193.7130 C.2       1 DTP1002     0.0000 
     23 N7        135.8710  172.3680  192.4100 N.2       1 DTP1002     0.0000 
     24 C5        137.0640  172.3710  191.8140 C.ar      1 DTP1002     0.0000 
     25 C6        137.4320  172.5060  190.4970 C.ar      1 DTP1002     0.0000 
     26 N6        136.4980  172.7090  189.5690 N.pl3     1 DTP1002     0.0000 
     27 N1        138.7090  172.4800  190.1510 N.ar      1 DTP1002     0.0000 
     28 C2        139.5920  172.2920  191.1470 C.ar      1 DTP1002     0.0000 
     29 N3        139.3460  172.1360  192.4250 N.ar      1 DTP1002     0.0000 
     30 C4        138.0490  172.1760  192.7900 C.ar      1 DTP1002     0.0000 
@<TRIPOS>BOND
     1    1    2 ar   
     2    1    3 ar   
     3    1    4 ar   
     4    1    8 1    
     5    5    6 ar   
     6    5    7 ar   
     7    5    8 1    
     8    5   12 1    
     9    9   10 ar   
    10    9   11 ar   
    11    9   12 1    
    12    9   13 1    
    13   13   14 1    
    14   14   15 1    
    15   15   16 1    
    16   15   17 1    
    17   16   20 1    
    18   17   18 1    
    19   17   19 1    
    20   19   20 1    
    21   20   21 1    
    22   21   22 1    
    23   21   30 1    
    24   22   23 2    
    25   23   24 1    
    26   24   25 ar   
    27   24   30 ar   
    28   25   26 1    
    29   25   27 ar   
    30   27   28 ar   
    31   28   29 ar   
    32   29   30 ar   
@<TRIPOS>SUBSTRUCTURE
     1 DTP1002     1 GROUP   
@<TRIPOS>SET

