#    Name: 6myx_2_DTP
#    Modification time : Fri May 22 19:31:41 2020

@<TRIPOS>MOLECULE
6myx_2_DTP
   30    32     1     0     0
SMALL
NO_CHARGES


@<TRIPOS>ATOM
      1 PG        106.1870  179.4480   96.3460 P.3       1 DTP1002     0.0000 
      2 O1G       106.4550  178.1930   95.5550 O.co2     1 DTP1002     0.0000 
      3 O2G       105.2480  180.3400   95.5760 O.co2     1 DTP1002     0.0000 
      4 O3G       107.4780  180.1720   96.6180 O.co2     1 DTP1002     0.0000 
      5 PB        104.2090  178.0760   97.9950 P.3       1 DTP1002     0.0000 
      6 O1B       103.5920  177.7250   96.6670 O.co2     1 DTP1002     0.0000 
      7 O2B       103.2110  178.7840   98.8730 O.co2     1 DTP1002     0.0000 
      8 O3B       105.5010  179.0450   97.7220 O.3       1 DTP1002     0.0000 
      9 PA        106.1020  175.8230   98.4960 P.3       1 DTP1002     0.0000 
     10 O1A       107.1990  176.7190   97.9810 O.co2     1 DTP1002     0.0000 
     11 O2A       106.5120  175.2230   99.8160 O.co2     1 DTP1002     0.0000 
     12 O3A       104.7270  176.6920   98.7090 O.3       1 DTP1002     0.0000 
     13 O5'       105.8160  174.6270   97.4020 O.3       1 DTP1002     0.0000 
     14 C5'       106.0240  173.3000   97.7960 C.3       1 DTP1002     0.0000 
     15 C4'       104.7580  172.4780   97.6650 C.3       1 DTP1002     0.0000 
     16 O4'       104.6300  171.5320   98.7590 O.3       1 DTP1002     0.0000 
     17 C3'       103.5190  173.3510   97.7860 C.3       1 DTP1002     0.0000 
     18 O3'       102.3990  172.6420   97.2650 O.3       1 DTP1002     0.0000 
     19 C2'       103.3930  173.5010   99.3180 C.3       1 DTP1002     0.0000 
     20 C1'       104.0270  172.2020   99.8640 C.3       1 DTP1002     0.0000 
     21 N9        105.0520  172.3600  100.9090 N.pl3     1 DTP1002     0.0000 
     22 C8        106.3920  172.4050  101.1400 C.2       1 DTP1002     0.0000 
     23 N7        106.6180  172.5770  102.4410 N.2       1 DTP1002     0.0000 
     24 C5        105.4320  172.6380  103.0490 C.ar      1 DTP1002     0.0000 
     25 C6        105.0830  172.7880  104.3690 C.ar      1 DTP1002     0.0000 
     26 N6        106.0350  172.9430  105.2890 N.pl3     1 DTP1002     0.0000 
     27 N1        103.8100  172.8260  104.7280 N.ar      1 DTP1002     0.0000 
     28 C2        102.9090  172.6850  103.7400 C.ar      1 DTP1002     0.0000 
     29 N3        103.1360  172.5190  102.4590 N.ar      1 DTP1002     0.0000 
     30 C4        104.4290  172.4950  102.0830 C.ar      1 DTP1002     0.0000 
@<TRIPOS>BOND
     1    1    2 ar   
     2    1    3 ar   
     3    1    4 ar   
     4    1    8 1    
     5    5    6 ar   
     6    5    7 ar   
     7    5    8 1    
     8    5   12 1    
     9    9   10 ar   
    10    9   11 ar   
    11    9   12 1    
    12    9   13 1    
    13   13   14 1    
    14   14   15 1    
    15   15   16 1    
    16   15   17 1    
    17   16   20 1    
    18   17   18 1    
    19   17   19 1    
    20   19   20 1    
    21   20   21 1    
    22   21   22 1    
    23   21   30 1    
    24   22   23 2    
    25   23   24 1    
    26   24   25 ar   
    27   24   30 ar   
    28   25   26 1    
    29   25   27 ar   
    30   27   28 ar   
    31   28   29 ar   
    32   29   30 ar   
@<TRIPOS>SUBSTRUCTURE
     1 DTP1002     1 GROUP   
@<TRIPOS>SET

