#    Name: 6myx_4_DTP
#    Modification time : Fri May 22 19:32:05 2020

@<TRIPOS>MOLECULE
6myx_4_DTP
   30    32     1     0     0
SMALL
NO_CHARGES


@<TRIPOS>ATOM
      1 PG         69.8790   86.2940  161.7540 P.3       1 DTP1002     0.0000 
      2 O1G        70.3370   84.8860  161.4790 O.co2     1 DTP1002     0.0000 
      3 O2G        70.9300   87.0340  162.5420 O.co2     1 DTP1002     0.0000 
      4 O3G        68.5870   86.2740  162.5270 O.co2     1 DTP1002     0.0000 
      5 PB         69.3510   88.6440  160.1070 P.3       1 DTP1002     0.0000 
      6 O1B        68.1340   88.8010  159.2330 O.co2     1 DTP1002     0.0000 
      7 O2B        69.1390   89.3200  161.4370 O.co2     1 DTP1002     0.0000 
      8 O3B        69.6440   87.0560  160.3780 O.3       1 DTP1002     0.0000 
      9 PA         72.2680   89.0170  159.5980 P.3       1 DTP1002     0.0000 
     10 O1A        72.9720   89.1820  158.2760 O.co2     1 DTP1002     0.0000 
     11 O2A        72.4690   87.6150  160.1120 O.co2     1 DTP1002     0.0000 
     12 O3A        70.6670   89.3110  159.3900 O.3       1 DTP1002     0.0000 
     13 O5'        72.8720   90.0900  160.6910 O.3       1 DTP1002     0.0000 
     14 C5'        73.9230   90.9240  160.2950 C.3       1 DTP1002     0.0000 
     15 C4'        73.5500   92.3870  160.4280 C.3       1 DTP1002     0.0000 
     16 O4'        74.0940   93.1700  159.3330 O.3       1 DTP1002     0.0000 
     17 C3'        72.0470   92.5850  160.3110 C.3       1 DTP1002     0.0000 
     18 O3'        71.7060   93.8650  160.8340 O.3       1 DTP1002     0.0000 
     19 C2'        71.8480   92.5610  158.7800 C.3       1 DTP1002     0.0000 
     20 C1'        73.1940   93.0870  158.2300 C.3       1 DTP1002     0.0000 
     21 N9         73.8370   92.2770  157.1820 N.pl3     1 DTP1002     0.0000 
     22 C8         74.7910   91.3350  156.9480 C.2       1 DTP1002     0.0000 
     23 N7         74.8360   91.0570  155.6460 N.2       1 DTP1002     0.0000 
     24 C5         73.9210   91.8160  155.0420 C.ar      1 DTP1002     0.0000 
     25 C6         73.5590   91.9430  153.7230 C.ar      1 DTP1002     0.0000 
     26 N6         74.1510   91.1840  152.8010 N.pl3     1 DTP1002     0.0000 
     27 N1         72.5960   92.7790  153.3680 N.ar      1 DTP1002     0.0000 
     28 C2         72.0330   93.4920  154.3580 C.ar      1 DTP1002     0.0000 
     29 N3         72.3160   93.4600  155.6380 N.ar      1 DTP1002     0.0000 
     30 C4         73.2840   92.6010  156.0110 C.ar      1 DTP1002     0.0000 
@<TRIPOS>BOND
     1    1    2 ar   
     2    1    3 ar   
     3    1    4 ar   
     4    1    8 1    
     5    5    6 ar   
     6    5    7 ar   
     7    5    8 1    
     8    5   12 1    
     9    9   10 ar   
    10    9   11 ar   
    11    9   12 1    
    12    9   13 1    
    13   13   14 1    
    14   14   15 1    
    15   15   16 1    
    16   15   17 1    
    17   16   20 1    
    18   17   18 1    
    19   17   19 1    
    20   19   20 1    
    21   20   21 1    
    22   21   22 1    
    23   21   30 1    
    24   22   23 2    
    25   23   24 1    
    26   24   25 ar   
    27   24   30 ar   
    28   25   26 1    
    29   25   27 ar   
    30   27   28 ar   
    31   28   29 ar   
    32   29   30 ar   
@<TRIPOS>SUBSTRUCTURE
     1 DTP1002     1 GROUP   
@<TRIPOS>SET

