#    Name: 6myx_8_DTP_CAVITY_N1_4
#    Modification time : Fri May 22 19:32:51 2020

@<TRIPOS>MOLECULE
6myx_8_DTP_CAVITY_N1_4
   50     0     6     0     0
SMALL
NO_CHARGES


@<TRIPOS>ATOM
      1 OG        136.3200  173.9900  194.6200 O.3       1 SER1        0.0000 
      2 OG        136.1700  173.3400  195.9600 O.3       1 SER1        0.0000 
      3 N         133.0900  173.7900  189.1400 N.am      2 ALA2        0.0000 
      4 N         132.9300  173.1500  190.4800 N.am      2 ALA2        0.0000 
      5 N         134.4700  175.1500  188.2800 N.am      2 ALA2        0.0000 
      6 N         134.3200  174.5100  189.6200 N.am      2 ALA2        0.0000 
      7 N         141.2400  171.3900  190.5700 N.am      2 ALA2        0.0000 
      8 O         138.9400  171.1100  196.8700 O.2       2 ALA2        0.0000 
      9 N         142.4700  172.1100  191.0500 N.am      2 ALA2        0.0000 
     10 OD1       137.3200  173.4900  192.8100 O.co2     3 ASP3        0.0000 
     11 OD1       135.6300  175.7900  193.7300 O.co2     3 ASP3        0.0000 
     12 OD1       137.1700  172.8400  194.1600 O.co2     3 ASP3        0.0000 
     13 OD1       139.3900  173.0500  192.8300 O.co2     3 ASP3        0.0000 
     14 OD1       139.2400  172.4000  194.1800 O.co2     3 ASP3        0.0000 
     15 OD1       138.4000  173.5500  194.6400 O.co2     3 ASP3        0.0000 
     16 OD1       137.5500  174.7000  195.1000 O.co2     3 ASP3        0.0000 
     17 OD1       141.4700  172.6100  192.8500 O.co2     3 ASP3        0.0000 
     18 OD1       142.1600  170.8100  193.7400 O.co2     3 ASP3        0.0000 
     19 OD1       141.3200  171.9600  194.2000 O.co2     3 ASP3        0.0000 
     20 OD1       140.4700  173.1100  194.6600 O.co2     3 ASP3        0.0000 
     21 OD1       141.1700  171.3200  195.5400 O.co2     3 ASP3        0.0000 
     22 OD1       141.7000  173.8200  195.1400 O.co2     3 ASP3        0.0000 
     23 OD1       142.4000  172.0300  196.0200 O.co2     3 ASP3        0.0000 
     24 CZ        134.1600  173.8600  190.9600 C.ar      4 PHE5        0.0000 
     25 CZ        133.3200  175.0100  191.4200 C.ar      4 PHE5        0.0000 
     26 CZ        137.0900  172.2700  190.5300 C.ar      4 PHE5        0.0000 
     27 CZ        134.5500  175.7200  191.9000 C.ar      4 PHE5        0.0000 
     28 CZ        136.9300  171.6200  191.8700 C.ar      4 PHE5        0.0000 
     29 CZ        136.0900  172.7700  192.3300 C.ar      4 PHE5        0.0000 
     30 CZ        135.9400  172.1300  193.6800 C.ar      4 PHE5        0.0000 
     31 CZ        138.1600  172.3400  192.3500 C.ar      4 PHE5        0.0000 
     32 CZ        138.0100  171.6900  193.7000 C.ar      4 PHE5        0.0000 
     33 CZ        136.0200  172.7000  197.3000 C.ar      4 PHE5        0.0000 
     34 CZ        140.2400  171.9000  192.3700 C.ar      4 PHE5        0.0000 
     35 CZ        139.9400  170.6000  195.0600 C.ar      4 PHE5        0.0000 
     36 CZ        139.0900  171.7500  195.5200 C.ar      4 PHE5        0.0000 
     37 CZ        142.3200  171.4600  192.4000 C.ar      4 PHE5        0.0000 
     38 CA        135.0100  172.7100  190.5100 C.3       5 GLY6        0.0000 
     39 CA        134.8600  172.0600  191.8500 C.3       5 GLY6        0.0000 
     40 CA        136.2400  173.4200  190.9900 C.3       5 GLY6        0.0000 
     41 CA        135.3900  174.5700  191.4500 C.3       5 GLY6        0.0000 
     42 CA        135.7900  171.4800  195.0200 C.3       5 GLY6        0.0000 
     43 CA        137.8600  171.0400  195.0400 C.3       5 GLY6        0.0000 
     44 CA        137.0200  172.1900  195.5000 C.3       5 GLY6        0.0000 
     45 CA        143.3100  170.9500  190.5900 C.3       5 GLY6        0.0000 
     46 CA        142.7000  173.3200  193.3300 C.3       5 GLY6        0.0000 
     47 DU        138.2500  172.9000  195.9800 H         6 CUB7        0.0000 
     48 DU        140.3200  172.4700  196.0000 H         6 CUB7        0.0000 
     49 DU        142.5500  172.6700  194.6800 H         6 CUB7        0.0000 
     50 DU        141.5500  173.1800  196.4800 H         6 CUB7        0.0000 
@<TRIPOS>BOND
@<TRIPOS>SUBSTRUCTURE
     1 SER1        1 GROUP   
     2 ALA2        3 GROUP   
     3 ASP3       10 GROUP   
     4 PHE5       24 GROUP   
     5 GLY6       38 GROUP   
     6 CUB7       47 GROUP   
@<TRIPOS>SET

