#    Name: 6nh8_3_H4B_CAVITY_N1_8
#    Modification time : Fri May 22 19:33:13 2020

@<TRIPOS>MOLECULE
6nh8_3_H4B_CAVITY_N1_8
   46     0     5     0     0
SMALL
NO_CHARGES


@<TRIPOS>ATOM
      1 N          95.4200  -31.7300 -198.6000 N.am      1 ALA2        0.0000 
      2 N          96.1500  -29.7400 -198.7400 N.am      1 ALA2        0.0000 
      3 N          95.9300  -30.7200 -197.6200 N.am      1 ALA2        0.0000 
      4 N          97.3200  -31.2400 -197.8100 N.am      1 ALA2        0.0000 
      5 N          97.1000  -32.2200 -196.6900 N.am      1 ALA2        0.0000 
      6 N          96.8800  -27.7600 -198.8700 N.am      1 ALA2        0.0000 
      7 N          96.6600  -28.7300 -197.7600 N.am      1 ALA2        0.0000 
      8 O          99.2300  -30.7600 -197.0100 O.2       1 ALA2        0.0000 
      9 N          99.0100  -31.7400 -195.8900 N.am      1 ALA2        0.0000 
     10 NZ         95.0500  -29.1800 -196.4500 N.4       2 LYS4        0.0000 
     11 NZ         96.4400  -29.7100 -196.6400 N.4       2 LYS4        0.0000 
     12 NZ         94.3900  -26.6700 -196.4000 N.4       2 LYS4        0.0000 
     13 NZ         95.7900  -27.1900 -196.5900 N.4       2 LYS4        0.0000 
     14 NZ         96.9600  -28.7000 -195.6500 N.4       2 LYS4        0.0000 
     15 NZ         98.3500  -29.2200 -195.8400 N.4       2 LYS4        0.0000 
     16 NZ         98.1300  -30.2000 -194.7200 N.4       2 LYS4        0.0000 
     17 NZ         98.8600  -28.2100 -194.8600 N.4       2 LYS4        0.0000 
     18 CZ         92.1200  -31.6900 -199.2100 C.ar      3 PHE5        0.0000 
     19 CZ         93.5100  -32.2100 -199.4000 C.ar      3 PHE5        0.0000 
     20 CZ         92.6300  -30.6700 -198.2300 C.ar      3 PHE5        0.0000 
     21 CZ         94.0300  -31.2000 -198.4200 C.ar      3 PHE5        0.0000 
     22 CZ         93.1500  -29.6600 -197.2500 C.ar      3 PHE5        0.0000 
     23 CZ         94.7600  -29.2200 -198.5500 C.ar      3 PHE5        0.0000 
     24 CZ         94.5400  -30.1900 -197.4300 C.ar      3 PHE5        0.0000 
     25 CZ         94.1000  -26.7000 -198.5000 C.ar      3 PHE5        0.0000 
     26 CZ         93.8800  -27.6800 -197.3800 C.ar      3 PHE5        0.0000 
     27 CZ         95.4900  -27.2300 -198.6900 C.ar      3 PHE5        0.0000 
     28 CZ         95.2700  -28.2000 -197.5700 C.ar      3 PHE5        0.0000 
     29 CA         93.0000  -33.2200 -200.3800 C.3       4 GLY6        0.0000 
     30 CA         94.9000  -32.7400 -199.5800 C.3       4 GLY6        0.0000 
     31 CA         96.5900  -33.2300 -197.6700 C.3       4 GLY6        0.0000 
     32 CA         97.1800  -27.7200 -196.7700 C.3       4 GLY6        0.0000 
     33 CA         98.5700  -28.2500 -196.9600 C.3       4 GLY6        0.0000 
     34 CA         99.7400  -29.7500 -196.0300 C.3       4 GLY6        0.0000 
     35 CA         99.5200  -30.7300 -194.9100 C.3       4 GLY6        0.0000 
     36 CA        100.2600  -28.7400 -195.0400 C.3       4 GLY6        0.0000 
     37 DU         91.9000  -32.6600 -198.0900 H         5 CUB7        0.0000 
     38 DU         93.2900  -33.1900 -198.2800 H         5 CUB7        0.0000 
     39 DU         94.6800  -33.7100 -198.4700 H         5 CUB7        0.0000 
     40 DU         93.8100  -32.1800 -197.3000 H         5 CUB7        0.0000 
     41 DU         95.2000  -32.7000 -197.4800 H         5 CUB7        0.0000 
     42 DU         95.7100  -31.6900 -196.5000 H         5 CUB7        0.0000 
     43 DU         97.8400  -30.2300 -196.8200 H         5 CUB7        0.0000 
     44 DU         97.6200  -31.2100 -195.7000 H         5 CUB7        0.0000 
     45 DU         94.6100  -25.6900 -197.5200 H         5 CUB7        0.0000 
     46 DU         96.0100  -26.2200 -197.7100 H         5 CUB7        0.0000 
@<TRIPOS>BOND
@<TRIPOS>SUBSTRUCTURE
     1 ALA2        1 GROUP   
     2 LYS4       10 GROUP   
     3 PHE5       18 GROUP   
     4 GLY6       29 GROUP   
     5 CUB7       37 GROUP   
@<TRIPOS>SET

