#    Name: 6nh8_3_H4B_CAVITY_N1_6
#    Modification time : Fri May 22 19:33:13 2020

@<TRIPOS>MOLECULE
6nh8_3_H4B_CAVITY_N1_6
   26     0     5     0     0
SMALL
NO_CHARGES


@<TRIPOS>ATOM
      1 N          95.4200  -31.7300 -198.6000 N.am      1 ALA2        0.0000 
      2 N          96.1500  -29.7400 -198.7400 N.am      1 ALA2        0.0000 
      3 N          95.9300  -30.7200 -197.6200 N.am      1 ALA2        0.0000 
      4 N          97.3200  -31.2400 -197.8100 N.am      1 ALA2        0.0000 
      5 N          96.8800  -27.7600 -198.8700 N.am      1 ALA2        0.0000 
      6 N          96.6600  -28.7300 -197.7600 N.am      1 ALA2        0.0000 
      7 NZ         95.0500  -29.1800 -196.4500 N.4       2 LYS4        0.0000 
      8 NZ         96.4400  -29.7100 -196.6400 N.4       2 LYS4        0.0000 
      9 NZ         94.3900  -26.6700 -196.4000 N.4       2 LYS4        0.0000 
     10 NZ         95.7900  -27.1900 -196.5900 N.4       2 LYS4        0.0000 
     11 NZ         96.9600  -28.7000 -195.6500 N.4       2 LYS4        0.0000 
     12 NZ         98.3500  -29.2200 -195.8400 N.4       2 LYS4        0.0000 
     13 CZ         92.6300  -30.6700 -198.2300 C.ar      3 PHE5        0.0000 
     14 CZ         94.0300  -31.2000 -198.4200 C.ar      3 PHE5        0.0000 
     15 CZ         93.1500  -29.6600 -197.2500 C.ar      3 PHE5        0.0000 
     16 CZ         94.7600  -29.2200 -198.5500 C.ar      3 PHE5        0.0000 
     17 CZ         94.5400  -30.1900 -197.4300 C.ar      3 PHE5        0.0000 
     18 CZ         94.1000  -26.7000 -198.5000 C.ar      3 PHE5        0.0000 
     19 CZ         93.8800  -27.6800 -197.3800 C.ar      3 PHE5        0.0000 
     20 CZ         95.4900  -27.2300 -198.6900 C.ar      3 PHE5        0.0000 
     21 CZ         95.2700  -28.2000 -197.5700 C.ar      3 PHE5        0.0000 
     22 CA         97.1800  -27.7200 -196.7700 C.3       4 GLY6        0.0000 
     23 CA         98.5700  -28.2500 -196.9600 C.3       4 GLY6        0.0000 
     24 DU         97.8400  -30.2300 -196.8200 H         5 CUB7        0.0000 
     25 DU         94.6100  -25.6900 -197.5200 H         5 CUB7        0.0000 
     26 DU         96.0100  -26.2200 -197.7100 H         5 CUB7        0.0000 
@<TRIPOS>BOND
@<TRIPOS>SUBSTRUCTURE
     1 ALA2        1 GROUP   
     2 LYS4        7 GROUP   
     3 PHE5       13 GROUP   
     4 GLY6       22 GROUP   
     5 CUB7       24 GROUP   
@<TRIPOS>SET

