#    Name: 6nh8_3_H4B
#    Modification time : Fri May 22 19:33:12 2020

@<TRIPOS>MOLECULE
6nh8_3_H4B
   17    18     1     0     1
SMALL
NO_CHARGES


@<TRIPOS>ATOM
      1 N1         95.0700  -25.0570 -201.8620 N.2       1 H4B502      0.0000 
      2 C2         94.9020  -25.6050 -200.6320 C.2       1 H4B502      0.0000 
      3 N2         95.9840  -26.1160 -199.9820 N.pl3     1 H4B502      0.0000 
      4 N3         93.6720  -25.6420 -200.0630 N.am      1 H4B502      0.0000 
      5 C4         92.5910  -25.1380 -200.6980 C.2       1 H4B502      0.0000 
      6 O4         91.4510  -25.1660 -200.1770 O.2       1 H4B502      0.0000 
      7 C4A        92.7580  -24.5890 -201.9520 C.2       1 H4B502      0.0000 
      8 C8A        94.0150  -24.5500 -202.5280 C.2       1 H4B502      0.0000 
      9 N5         91.7090  -24.0840 -202.6130 N.3       1 H4B502      0.0000 
     10 N8         94.2070  -24.0160 -203.7570 N.pl3     1 H4B502      0.0000 
     11 C6         91.8030  -24.0500 -204.0570 C.3       1 H4B502      0.0000 
     12 C7         93.1110  -23.4100 -204.5090 C.3       1 H4B502      0.0000 
     13 C9         90.6010  -23.3110 -204.6250 C.3       1 H4B502      0.0000 
     14 O9         90.4900  -22.0060 -204.0440 O.3       1 H4B502      0.0000 
     15 C10        90.7600  -23.1830 -206.1240 C.3       1 H4B502      0.0000 
     16 C11        89.5210  -22.5160 -206.7060 C.3       1 H4B502      0.0000 
     17 O10        90.9660  -24.4850 -206.6940 O.3       1 H4B502      0.0000 
@<TRIPOS>BOND
     1    1    2 2    
     2    1    8 1    
     3    2    3 1    
     4    2    4 1    
     5    4    5 am   
     6    5    6 2    
     7    5    7 1    
     8    7    8 2    
     9    7    9 1    
    10    8   10 1    
    11    9   11 1    
    12   10   12 1    
    13   11   12 1    
    14   11   13 1    
    15   13   14 1    
    16   13   15 1    
    17   15   16 1    
    18   15   17 1    
@<TRIPOS>SUBSTRUCTURE
     1 H4B502      1 GROUP   
@<TRIPOS>SET
ATOM$ORANGE STATIC     ATOMS   COLORGROUP SYSTEM 
18 2 2 5 5 7 7 8 8 11 11 12 12 13 13 15 15 16 \
16 

