#    Name: 6do4_2_GLY_PRO_SER_SER_GLY_GLY
#    Modification time : Fri May 22 19:24:09 2020

@<TRIPOS>MOLECULE
6do4_2_GLY_PRO_SER_SER_GLY_GLY
   32    32     6     0     0
SMALL
NO_CHARGES


@<TRIPOS>ATOM
      1 N         181.9720    4.7050   98.5200 N.4       1 GLY182      0.0000 
      2 CA        180.9850    3.7770   97.9810 C.3       1 GLY182      0.0000 
      3 C         179.9390    3.2910   98.9860 C.2       1 GLY182      0.0000 
      4 O         179.3140    4.0970   99.6830 O.2       1 GLY182      0.0000 
      5 N         179.7250    1.9700   99.0400 N.am      2 PRO183      0.0000 
      6 CA        178.6430    1.4310   99.8920 C.3       2 PRO183      0.0000 
      7 C         178.8860    1.6290  101.3690 C.2       2 PRO183      0.0000 
      8 O         177.9200    1.7320  102.1460 O.2       2 PRO183      0.0000 
      9 CB        178.6280   -0.0650   99.5450 C.3       2 PRO183      0.0000 
     10 CG        179.3730   -0.1910   98.2450 C.3       2 PRO183      0.0000 
     11 CD        180.3330    0.9450   98.1750 C.3       2 PRO183      0.0000 
     12 N         180.1520    1.6720  101.7890 N.am      3 SER184      0.0000 
     13 CA        180.4530    1.6570  103.2090 C.3       3 SER184      0.0000 
     14 C         180.6280    3.0380  103.8110 C.2       3 SER184      0.0000 
     15 O         180.7740    3.1310  105.0340 O.2       3 SER184      0.0000 
     16 CB        181.7160    0.8510  103.4730 C.3       3 SER184      0.0000 
     17 OG        182.7830    1.4260  102.7620 O.3       3 SER184      0.0000 
     18 N         180.6420    4.0990  103.0050 N.am      4 SER185      0.0000 
     19 CA        180.8370    5.4340  103.5590 C.3       4 SER185      0.0000 
     20 C         179.6920    5.7960  104.4940 C.2       4 SER185      0.0000 
     21 O         178.5390    5.4050  104.2890 O.2       4 SER185      0.0000 
     22 CB        180.9320    6.4900  102.4560 C.3       4 SER185      0.0000 
     23 OG        181.8340    6.0910  101.4450 O.3       4 SER185      0.0000 
     24 N         180.0180    6.5550  105.5350 N.am      5 GLY186      0.0000 
     25 CA        179.0190    6.9950  106.4690 C.3       5 GLY186      0.0000 
     26 C         178.7270    6.0120  107.5690 C.2       5 GLY186      0.0000 
     27 O         178.0280    6.3740  108.5180 O.2       5 GLY186      0.0000 
     28 N         179.2410    4.7850  107.4740 N.am      6 GLY187      0.0000 
     29 CA        179.1470    3.8260  108.5600 C.3       6 GLY187      0.0000 
     30 C         180.3710    3.8380  109.4630 C.2       6 GLY187      0.0000 
     31 O         181.4350    4.4290  109.1610 O.2       6 GLY187      0.0000 
     32 OXT       180.3060    3.2430  110.5440 O.3       6 GLY187      0.0000 
@<TRIPOS>BOND
     1    1    2 1    
     2    2    3 1    
     3    3    4 2    
     4    3    5 am   
     5    5    6 1    
     6    5   11 1    
     7    6    7 1    
     8    6    9 1    
     9    7    8 2    
    10    7   12 am   
    11    9   10 1    
    12   10   11 1    
    13   12   13 1    
    14   13   14 1    
    15   13   16 1    
    16   14   15 2    
    17   14   18 am   
    18   16   17 1    
    19   18   19 1    
    20   19   20 1    
    21   19   22 1    
    22   20   21 2    
    23   20   24 am   
    24   22   23 1    
    25   24   25 1    
    26   25   26 1    
    27   26   27 2    
    28   26   28 am   
    29   28   29 1    
    30   29   30 1    
    31   30   31 2    
    32   30   32 1    
@<TRIPOS>SUBSTRUCTURE
     1 GLY182      1 RESIDUE 
     2 PRO183      5 RESIDUE 
     3 SER184     12 RESIDUE 
     4 SER185     18 RESIDUE 
     5 GLY186     24 RESIDUE 
     6 GLY187     28 RESIDUE 
@<TRIPOS>SET

