#    Name: 6do4_2_GLY_PRO_SER_SER_GLY_GLY_CAVITY_N1_ALL
#    Modification time : Fri May 22 19:24:10 2020

@<TRIPOS>MOLECULE
6do4_2_GLY_PRO_SER_SER_GLY_GLY_CAVITY_N1_ALL
   75     0     6     0     0
SMALL
NO_CHARGES


@<TRIPOS>ATOM
      1 OG        178.2200   -0.0700   98.0200 O.3       1 SER1        0.0000 
      2 OG        179.6900    0.0700   97.7900 O.3       1 SER1        0.0000 
      3 OG        178.6000   -1.2500   99.7400 O.3       1 SER1        0.0000 
      4 OG        178.4200    0.2100   99.4800 O.3       1 SER1        0.0000 
      5 OG        178.2400    1.6800   99.2200 O.3       1 SER1        0.0000 
      6 OG        183.4100   -2.0200  100.7600 O.3       1 SER1        0.0000 
      7 OG        180.2800   -0.8300  100.9700 O.3       1 SER1        0.0000 
      8 OG        181.7600   -0.6900  100.7400 O.3       1 SER1        0.0000 
      9 OG        183.2300   -0.5500  100.5000 O.3       1 SER1        0.0000 
     10 OG        181.9600   -0.4100  102.1900 O.3       1 SER1        0.0000 
     11 O         177.6300    6.1800  107.6900 O.2       2 ALA2        0.0000 
     12 OD1       179.7400    3.5700  100.1900 O.co2     3 ASP3        0.0000 
     13 OD1       178.6500    2.2500  102.1400 O.co2     3 ASP3        0.0000 
     14 OD1       181.2400    5.4600  101.1500 O.co2     3 ASP3        0.0000 
     15 OD1       178.8600    2.5300  103.6000 O.co2     3 ASP3        0.0000 
     16 OD1       180.1500    4.1400  103.1000 O.co2     3 ASP3        0.0000 
     17 OD1       180.3800    6.1700  105.7600 O.co2     3 ASP3        0.0000 
     18 OD1       179.2900    4.8500  107.7100 O.co2     3 ASP3        0.0000 
     19 OD1       179.1100    6.3200  107.4500 O.co2     3 ASP3        0.0000 
     20 CZ        179.8700   -1.4000   98.0500 C.ar      4 PHE5        0.0000 
     21 CZ        181.3500   -1.2600   97.8200 C.ar      4 PHE5        0.0000 
     22 CZ        179.5200    1.5300   97.5300 C.ar      4 PHE5        0.0000 
     23 CZ        183.2100   -2.3000   99.3100 C.ar      4 PHE5        0.0000 
     24 CZ        180.0800   -1.1100   99.5100 C.ar      4 PHE5        0.0000 
     25 CZ        181.5500   -0.9800   99.2800 C.ar      4 PHE5        0.0000 
     26 CZ        179.7200    1.8200   98.9900 C.ar      4 PHE5        0.0000 
     27 CZ        179.5400    3.2800   98.7300 C.ar      4 PHE5        0.0000 
     28 CZ        178.8100   -0.9700  101.2000 C.ar      4 PHE5        0.0000 
     29 CZ        178.6300    0.5000  100.9400 C.ar      4 PHE5        0.0000 
     30 CZ        180.4900   -0.5400  102.4300 C.ar      4 PHE5        0.0000 
     31 CZ        178.8300    0.7800  102.4000 C.ar      4 PHE5        0.0000 
     32 CZ        180.3100    0.9200  102.1700 C.ar      4 PHE5        0.0000 
     33 CZ        180.6900   -0.2600  103.8900 C.ar      4 PHE5        0.0000 
     34 CZ        179.0300    1.0700  103.8600 C.ar      4 PHE5        0.0000 
     35 CZ        180.5100    1.2100  103.6300 C.ar      4 PHE5        0.0000 
     36 CZ        179.9700    5.6000  102.8400 C.ar      4 PHE5        0.0000 
     37 CZ        180.5300    2.9600  104.8200 C.ar      4 PHE5        0.0000 
     38 CZ        178.7000    5.7500  104.5300 C.ar      4 PHE5        0.0000 
     39 CZ        180.1800    5.8900  104.3000 C.ar      4 PHE5        0.0000 
     40 CZ        180.0000    7.3600  104.0400 C.ar      4 PHE5        0.0000 
     41 CZ        179.2600    3.1000  106.5200 C.ar      4 PHE5        0.0000 
     42 CZ        178.7200    7.5000  105.7300 C.ar      4 PHE5        0.0000 
     43 CZ        179.4700    3.3900  107.9700 C.ar      4 PHE5        0.0000 
     44 CA        183.4400   -0.2700  101.9600 C.3       5 GLY6        0.0000 
     45 CA        182.1600   -0.1200  103.6500 C.3       5 GLY6        0.0000 
     46 CA        181.9800    1.3400  103.3900 C.3       5 GLY6        0.0000 
     47 CA        183.4600    1.4800  103.1600 C.3       5 GLY6        0.0000 
     48 CA        182.1900    1.6300  104.8500 C.3       5 GLY6        0.0000 
     49 CA        179.0600    2.8200  105.0600 C.3       5 GLY6        0.0000 
     50 CA        182.0100    3.1000  104.5900 C.3       5 GLY6        0.0000 
     51 CA        183.4800    3.2300  104.3600 C.3       5 GLY6        0.0000 
     52 CA        178.8800    4.2800  104.8000 C.3       5 GLY6        0.0000 
     53 CA        179.0800    4.5700  106.2500 C.3       5 GLY6        0.0000 
     54 CA        177.4300    5.9000  106.2300 C.3       5 GLY6        0.0000 
     55 CA        178.9000    6.0300  105.9900 C.3       5 GLY6        0.0000 
     56 CA        177.9900    3.2500  108.2100 C.3       5 GLY6        0.0000 
     57 CA        177.8100    4.7100  107.9500 C.3       5 GLY6        0.0000 
     58 DU        183.0300   -0.8400   99.0400 H         6 CUB7        0.0000 
     59 DU        179.9000    0.3500   99.2500 H         6 CUB7        0.0000 
     60 DU        181.3700    0.4900   99.0200 H         6 CUB7        0.0000 
     61 DU        180.1000    0.6400  100.7100 H         6 CUB7        0.0000 
     62 DU        181.5800    0.7800  100.4800 H         6 CUB7        0.0000 
     63 DU        178.4500    1.9600  100.6800 H         6 CUB7        0.0000 
     64 DU        179.9200    2.1000  100.4500 H         6 CUB7        0.0000 
     65 DU        181.7800    1.0600  101.9300 H         6 CUB7        0.0000 
     66 DU        183.2600    1.2000  101.7000 H         6 CUB7        0.0000 
     67 DU        180.1300    2.3900  101.9100 H         6 CUB7        0.0000 
     68 DU        179.9500    3.8500  101.6500 H         6 CUB7        0.0000 
     69 DU        181.4200    3.9900  101.4100 H         6 CUB7        0.0000 
     70 DU        180.3300    2.6700  103.3600 H         6 CUB7        0.0000 
     71 DU        181.8100    2.8100  103.1300 H         6 CUB7        0.0000 
     72 DU        181.4500    5.7400  102.6100 H         6 CUB7        0.0000 
     73 DU        180.3500    4.4200  104.5600 H         6 CUB7        0.0000 
     74 DU        181.8300    4.5600  104.3300 H         6 CUB7        0.0000 
     75 DU        181.6500    6.0300  104.0700 H         6 CUB7        0.0000 
@<TRIPOS>BOND
@<TRIPOS>SUBSTRUCTURE
     1 SER1        1 GROUP   
     2 ALA2       11 GROUP   
     3 ASP3       12 GROUP   
     4 PHE5       20 GROUP   
     5 GLY6       44 GROUP   
     6 CUB7       58 GROUP   
@<TRIPOS>SET

