#    Name: 6do4_1_GLY_PRO_SER_SER_GLY_GLY_CAVITY_N1_ALL
#    Modification time : Fri May 22 19:24:06 2020

@<TRIPOS>MOLECULE
6do4_1_GLY_PRO_SER_SER_GLY_GLY_CAVITY_N1_ALL
   84     0     7     0     0
SMALL
NO_CHARGES


@<TRIPOS>ATOM
      1 OG        180.9700  -10.7900   70.4200 O.3       1 SER1        0.0000 
      2 OG        181.7500   -3.0300   70.3400 O.3       1 SER1        0.0000 
      3 OG        182.1300   -4.2100   72.0600 O.3       1 SER1        0.0000 
      4 OG        183.6100   -4.0800   71.8300 O.3       1 SER1        0.0000 
      5 OG        180.4800   -2.8900   72.0300 O.3       1 SER1        0.0000 
      6 OG        183.4300   -2.6100   71.5700 O.3       1 SER1        0.0000 
      7 OG        178.2700   -7.2800   74.7400 O.3       1 SER1        0.0000 
      8 OG        179.7400   -7.1400   74.5100 O.3       1 SER1        0.0000 
      9 OG        178.0900   -5.8100   74.4800 O.3       1 SER1        0.0000 
     10 OG        177.9100   -4.3500   74.2200 O.3       1 SER1        0.0000 
     11 OG        179.3800   -4.2100   73.9900 O.3       1 SER1        0.0000 
     12 OG        182.3400   -3.9300   73.5200 O.3       1 SER1        0.0000 
     13 OG        182.1600   -2.4600   73.2600 O.3       1 SER1        0.0000 
     14 OG        178.1100   -4.0600   75.6800 O.3       1 SER1        0.0000 
     15 OG        179.5900   -3.9200   75.4500 O.3       1 SER1        0.0000 
     16 OG        179.7900   -3.6400   76.9000 O.3       1 SER1        0.0000 
     17 OG        181.2700   -3.5000   76.6700 O.3       1 SER1        0.0000 
     18 OG        179.6100   -2.1700   76.6400 O.3       1 SER1        0.0000 
     19 O         178.7000  -10.3100   66.0200 O.2       2 ALA2        0.0000 
     20 N         185.0800   -3.9400   71.6000 N.am      2 ALA2        0.0000 
     21 O         181.2900   -1.7500   77.8700 O.2       2 ALA2        0.0000 
     22 OD1       180.1800  -10.1700   65.7900 O.co2     3 ASP3        0.0000 
     23 OD1       180.0000   -8.7100   65.5200 O.co2     3 ASP3        0.0000 
     24 OD1       180.3800   -9.8900   67.2400 O.co2     3 ASP3        0.0000 
     25 OD1       179.1300   -7.9900   70.1300 O.co2     3 ASP3        0.0000 
     26 OD1       180.6100   -7.8500   69.9000 O.co2     3 ASP3        0.0000 
     27 OD1       181.1700  -10.5000   71.8800 O.co2     3 ASP3        0.0000 
     28 OD1       179.5200   -9.1800   71.8500 O.co2     3 ASP3        0.0000 
     29 OD1       180.9900   -9.0400   71.6200 O.co2     3 ASP3        0.0000 
     30 OD1       179.1600   -6.2400   71.3300 O.co2     3 ASP3        0.0000 
     31 OD1       181.3700  -10.2200   73.3400 O.co2     3 ASP3        0.0000 
     32 OD1       179.5400   -7.4200   73.0500 O.co2     3 ASP3        0.0000 
     33 NZ        177.8900   -6.1000   73.0200 N.4       4 LYS4        0.0000 
     34 CZ        179.1100   -9.7400   68.9400 C.ar      5 PHE5        0.0000 
     35 CZ        180.2200   -6.6700   68.1800 C.ar      5 PHE5        0.0000 
     36 CZ        181.7000   -6.5300   67.9500 C.ar      5 PHE5        0.0000 
     37 CZ        179.3100   -9.4600   70.3900 C.ar      5 PHE5        0.0000 
     38 CZ        180.4300   -6.3900   69.6400 C.ar      5 PHE5        0.0000 
     39 CZ        180.2500   -4.9200   69.3800 C.ar      5 PHE5        0.0000 
     40 CZ        181.7200   -4.7800   69.1500 C.ar      5 PHE5        0.0000 
     41 CZ        178.9800   -4.7800   71.0700 C.ar      5 PHE5        0.0000 
     42 CZ        180.4500   -4.6400   70.8400 C.ar      5 PHE5        0.0000 
     43 CZ        179.1800   -4.4900   72.5300 C.ar      5 PHE5        0.0000 
     44 CZ        180.6600   -4.3500   72.3000 C.ar      5 PHE5        0.0000 
     45 CZ        179.0000   -3.0300   72.2700 C.ar      5 PHE5        0.0000 
     46 CZ        179.5600   -5.6700   74.2500 C.ar      5 PHE5        0.0000 
     47 CZ        179.2100   -2.7400   73.7300 C.ar      5 PHE5        0.0000 
     48 CZ        180.6800   -2.6000   73.4900 C.ar      5 PHE5        0.0000 
     49 CZ        179.7700   -5.3900   75.7100 C.ar      5 PHE5        0.0000 
     50 CZ        179.4100   -2.4600   75.1900 C.ar      5 PHE5        0.0000 
     51 CZ        180.8800   -2.3200   74.9500 C.ar      5 PHE5        0.0000 
     52 CZ        181.0900   -2.0300   76.4100 C.ar      5 PHE5        0.0000 
     53 CZ        182.5600   -1.8900   76.1800 C.ar      5 PHE5        0.0000 
     54 CA        178.3200   -9.1300   64.3000 C.3       6 GLY6        0.0000 
     55 CA        179.7900   -8.9900   64.0700 C.3       6 GLY6        0.0000 
     56 CA        178.5200   -8.8500   65.7600 C.3       6 GLY6        0.0000 
     57 CA        178.9000  -10.0300   67.4800 C.3       6 GLY6        0.0000 
     58 CA        178.7200   -8.5600   67.2200 C.3       6 GLY6        0.0000 
     59 CA        180.2000   -8.4200   66.9800 C.3       6 GLY6        0.0000 
     60 CA        180.4000   -8.1400   68.4400 C.3       6 GLY6        0.0000 
     61 CA        183.5600   -7.5800   69.4300 C.3       6 GLY6        0.0000 
     62 CA        181.9000   -6.2500   69.4100 C.3       6 GLY6        0.0000 
     63 CA        183.5800   -5.8300   70.6300 C.3       6 GLY6        0.0000 
     64 CA        185.0600   -5.6900   70.4000 C.3       6 GLY6        0.0000 
     65 CA        181.9300   -4.5000   70.6000 C.3       6 GLY6        0.0000 
     66 CA        183.4000   -4.3600   70.3700 C.3       6 GLY6        0.0000 
     67 CA        185.2900   -3.6500   73.0500 C.3       6 GLY6        0.0000 
     68 DU        180.5800   -9.6100   68.7000 H         7 CUB7        0.0000 
     69 DU        182.4400  -10.6500   70.1900 H         7 CUB7        0.0000 
     70 DU        180.7900   -9.3200   70.1600 H         7 CUB7        0.0000 
     71 DU        182.0800   -7.7200   69.6700 H         7 CUB7        0.0000 
     72 DU        182.8200  -11.8300   71.9100 H         7 CUB7        0.0000 
     73 DU        182.6500  -10.3600   71.6500 H         7 CUB7        0.0000 
     74 DU        182.4700   -8.9000   71.3900 H         7 CUB7        0.0000 
     75 DU        180.8100   -7.5700   71.3600 H         7 CUB7        0.0000 
     76 DU        182.2900   -7.4300   71.1300 H         7 CUB7        0.0000 
     77 DU        180.6300   -6.1000   71.1000 H         7 CUB7        0.0000 
     78 DU        182.1100   -5.9600   70.8600 H         7 CUB7        0.0000 
     79 DU        179.3600   -5.9600   72.7900 H         7 CUB7        0.0000 
     80 DU        183.7900   -5.5400   72.0900 H         7 CUB7        0.0000 
     81 DU        180.8600   -4.0700   73.7500 H         7 CUB7        0.0000 
     82 DU        183.8100   -3.7900   73.2900 H         7 CUB7        0.0000 
     83 DU        181.2400   -5.2500   75.4700 H         7 CUB7        0.0000 
     84 DU        181.0600   -3.7800   75.2100 H         7 CUB7        0.0000 
@<TRIPOS>BOND
@<TRIPOS>SUBSTRUCTURE
     1 SER1        1 GROUP   
     2 ALA2       19 GROUP   
     3 ASP3       22 GROUP   
     4 LYS4       33 GROUP   
     5 PHE5       34 GROUP   
     6 GLY6       54 GROUP   
     7 CUB7       68 GROUP   
@<TRIPOS>SET

