#    Name: 6do4_1_GLY_PRO_SER_SER_GLY_GLY
#    Modification time : Fri May 22 19:24:05 2020

@<TRIPOS>MOLECULE
6do4_1_GLY_PRO_SER_SER_GLY_GLY
   32    32     6     0     0
SMALL
NO_CHARGES


@<TRIPOS>ATOM
      1 N         182.3980   -7.8810   75.1630 N.4       1 GLY182      0.0000 
      2 CA        181.0000   -7.8610   75.5790 C.3       1 GLY182      0.0000 
      3 C         180.0120   -7.3150   74.5420 C.2       1 GLY182      0.0000 
      4 O         179.4350   -8.0880   73.7610 O.2       1 GLY182      0.0000 
      5 N         179.8030   -5.9930   74.5390 N.am      2 PRO183      0.0000 
      6 CA        178.7410   -5.4240   73.6810 C.3       2 PRO183      0.0000 
      7 C         179.0270   -5.5440   72.1900 C.2       2 PRO183      0.0000 
      8 O         178.0810   -5.6200   71.3890 O.2       2 PRO183      0.0000 
      9 CB        178.6730   -3.9500   74.1200 C.3       2 PRO183      0.0000 
     10 CG        179.9490   -3.6800   74.8530 C.3       2 PRO183      0.0000 
     11 CD        180.3700   -4.9950   75.4650 C.3       2 PRO183      0.0000 
     12 N         180.2930   -5.5880   71.7920 N.am      3 SER184      0.0000 
     13 CA        180.6520   -5.6050   70.3810 C.3       3 SER184      0.0000 
     14 C         180.9060   -7.0010   69.8260 C.2       3 SER184      0.0000 
     15 O         181.1650   -7.1240   68.6250 O.2       3 SER184      0.0000 
     16 CB        181.8970   -4.7510   70.1480 C.3       3 SER184      0.0000 
     17 OG        183.0240   -5.3880   70.7330 O.3       3 SER184      0.0000 
     18 N         180.8580   -8.0440   70.6580 N.am      4 SER185      0.0000 
     19 CA        181.0130   -9.4140   70.1780 C.3       4 SER185      0.0000 
     20 C         179.9440   -9.7730   69.1520 C.2       4 SER185      0.0000 
     21 O         178.7720   -9.4060   69.2900 O.2       4 SER185      0.0000 
     22 CB        180.9230  -10.4070   71.3380 C.3       4 SER185      0.0000 
     23 OG        182.0300  -10.2820   72.2020 O.3       4 SER185      0.0000 
     24 N         180.3460  -10.5260   68.1280 N.am      5 GLY186      0.0000 
     25 CA        179.3890  -11.0060   67.1550 C.3       5 GLY186      0.0000 
     26 C         179.0350  -10.0180   66.0650 C.2       5 GLY186      0.0000 
     27 O         178.2580  -10.3690   65.1750 O.2       5 GLY186      0.0000 
     28 N         179.5760   -8.8000   66.1020 N.am      6 GLY187      0.0000 
     29 CA        179.4180   -7.8610   65.0050 C.3       6 GLY187      0.0000 
     30 C         180.6140   -7.8870   64.0580 C.2       6 GLY187      0.0000 
     31 O         181.7010   -8.4140   64.3770 O.2       6 GLY187      0.0000 
     32 OXT       180.5350   -7.3700   62.9380 O.3       6 GLY187      0.0000 
@<TRIPOS>BOND
     1    1    2 1    
     2    2    3 1    
     3    3    4 2    
     4    3    5 am   
     5    5    6 1    
     6    5   11 1    
     7    6    7 1    
     8    6    9 1    
     9    7    8 2    
    10    7   12 am   
    11    9   10 1    
    12   10   11 1    
    13   12   13 1    
    14   13   14 1    
    15   13   16 1    
    16   14   15 2    
    17   14   18 am   
    18   16   17 1    
    19   18   19 1    
    20   19   20 1    
    21   19   22 1    
    22   20   21 2    
    23   20   24 am   
    24   22   23 1    
    25   24   25 1    
    26   25   26 1    
    27   26   27 2    
    28   26   28 am   
    29   28   29 1    
    30   29   30 1    
    31   30   31 2    
    32   30   32 1    
@<TRIPOS>SUBSTRUCTURE
     1 GLY182      1 RESIDUE 
     2 PRO183      5 RESIDUE 
     3 SER184     12 RESIDUE 
     4 SER185     18 RESIDUE 
     5 GLY186     24 RESIDUE 
     6 GLY187     28 RESIDUE 
@<TRIPOS>SET

