#    Name: 5oco_4_GNP
#    Modification time : Fri May 22 19:20:50 2020

@<TRIPOS>MOLECULE
5oco_4_GNP
   32    34     1     0     1
SMALL
NO_CHARGES


@<TRIPOS>ATOM
      1 PG         40.1430  134.7630   12.1020 P.3       1 GNP201      0.0000 
      2 O1G        41.3000  135.5100   11.6330 O.co2     1 GNP201      0.0000 
      3 O2G        40.2200  134.5570   13.5900 O.co2     1 GNP201      0.0000 
      4 O3G        38.6770  135.2710   11.7120 O.co2     1 GNP201      0.0000 
      5 N3B        40.1090  133.2960   11.1750 N.3       1 GNP201      0.0000 
      6 PB         41.2360  132.0710   11.5480 P.3       1 GNP201      0.0000 
      7 O1B        42.4450  132.4340   10.8690 O.co2     1 GNP201      0.0000 
      8 O2B        41.3590  131.8510   12.9400 O.co2     1 GNP201      0.0000 
      9 O3A        40.5960  130.7740   10.6340 O.3       1 GNP201      0.0000 
     10 PA         39.7320  129.6750   11.2970 P.3       1 GNP201      0.0000 
     11 O1A        38.5570  130.1260   12.0160 O.co2     1 GNP201      0.0000 
     12 O2A        40.4810  128.7910   12.3210 O.co2     1 GNP201      0.0000 
     13 O5'        39.4530  128.8290    9.9500 O.3       1 GNP201      0.0000 
     14 C5'        38.6850  129.4590    8.9180 C.3       1 GNP201      0.0000 
     15 C4'        37.9920  128.4110    8.1320 C.3       1 GNP201      0.0000 
     16 O4'        39.0210  127.6610    7.4540 O.3       1 GNP201      0.0000 
     17 C3'        37.1660  127.4740    8.9140 C.3       1 GNP201      0.0000 
     18 O3'        36.0170  127.1190    8.0720 O.3       1 GNP201      0.0000 
     19 C2'        38.0500  126.2310    9.0130 C.3       1 GNP201      0.0000 
     20 O2'        37.3640  124.9720    9.1380 O.3       1 GNP201      0.0000 
     21 C1'        38.7970  126.2820    7.7860 C.3       1 GNP201      0.0000 
     22 N9         40.1740  125.6680    7.8950 N.pl3     1 GNP201      0.0000 
     23 C8         41.1550  126.1080    8.7670 C.2       1 GNP201      0.0000 
     24 N7         42.2940  125.4100    8.5230 N.2       1 GNP201      0.0000 
     25 C5         42.0030  124.4920    7.5490 C.2       1 GNP201      0.0000 
     26 C6         42.7150  123.4640    6.8960 C.2       1 GNP201      0.0000 
     27 O6         43.9150  123.2060    7.1110 O.2       1 GNP201      0.0000 
     28 N1         42.0830  122.7860    5.9210 N.am      1 GNP201      0.0000 
     29 C2         40.8120  123.0490    5.5340 C.2       1 GNP201      0.0000 
     30 N2         40.2810  122.2600    4.5680 N.pl3     1 GNP201      0.0000 
     31 N3         40.0650  123.9910    6.1310 N.2       1 GNP201      0.0000 
     32 C4         40.6300  124.7470    7.1020 C.2       1 GNP201      0.0000 
@<TRIPOS>BOND
     1    1    2 ar   
     2    1    3 ar   
     3    1    4 ar   
     4    1    5 1    
     5    5    6 1    
     6    6    7 ar   
     7    6    8 ar   
     8    6    9 1    
     9    9   10 1    
    10   10   11 ar   
    11   10   12 ar   
    12   10   13 1    
    13   13   14 1    
    14   14   15 1    
    15   15   16 1    
    16   15   17 1    
    17   16   21 1    
    18   17   18 1    
    19   17   19 1    
    20   19   20 1    
    21   19   21 1    
    22   21   22 1    
    23   22   23 1    
    24   22   32 1    
    25   23   24 2    
    26   24   25 1    
    27   25   26 1    
    28   25   32 2    
    29   26   27 2    
    30   26   28 am   
    31   28   29 1    
    32   29   30 1    
    33   29   31 2    
    34   31   32 1    
@<TRIPOS>SUBSTRUCTURE
     1 GNP201      1 GROUP   
@<TRIPOS>SET
ATOM$ORANGE STATIC     ATOMS   COLORGROUP SYSTEM 
20 14 14 15 15 17 17 19 19 21 21 23 23 25 25 26 26 29 \
29 32 32 

