#    Name: 5oco_5_GNP
#    Modification time : Fri May 22 19:20:54 2020

@<TRIPOS>MOLECULE
5oco_5_GNP
   32    34     1     0     1
SMALL
NO_CHARGES


@<TRIPOS>ATOM
      1 PG         36.6890   98.2560   57.8410 P.3       1 GNP201      0.0000 
      2 O1G        36.1860   98.9090   56.5390 O.co2     1 GNP201      0.0000 
      3 O2G        36.9040   96.8580   57.6520 O.co2     1 GNP201      0.0000 
      4 O3G        35.5990   98.6360   58.9550 O.co2     1 GNP201      0.0000 
      5 N3B        38.0250   99.1060   58.5150 N.3       1 GNP201      0.0000 
      6 PB         39.4650   99.2660   57.4820 P.3       1 GNP201      0.0000 
      7 O1B        39.0390   99.7830   56.1570 O.co2     1 GNP201      0.0000 
      8 O2B        40.3330   97.9870   57.6390 O.co2     1 GNP201      0.0000 
      9 O3A        40.2860  100.3430   58.2870 O.3       1 GNP201      0.0000 
     10 PA         40.3430  101.9330   57.9370 P.3       1 GNP201      0.0000 
     11 O1A        41.1700  102.1170   56.6490 O.co2     1 GNP201      0.0000 
     12 O2A        38.9570  102.5180   57.9050 O.co2     1 GNP201      0.0000 
     13 O5'        41.3060  102.5010   59.0160 O.3       1 GNP201      0.0000 
     14 C5'        40.9550  102.3620   60.4380 C.3       1 GNP201      0.0000 
     15 C4'        41.6160  103.4140   61.2770 C.3       1 GNP201      0.0000 
     16 O4'        43.0270  103.1920   61.3650 O.3       1 GNP201      0.0000 
     17 C3'        41.4460  104.7740   60.7360 C.3       1 GNP201      0.0000 
     18 O3'        41.3320  105.5590   61.9260 O.3       1 GNP201      0.0000 
     19 C2'        42.7670  105.0860   60.0050 C.3       1 GNP201      0.0000 
     20 O2'        43.2480  106.4380   60.0980 O.3       1 GNP201      0.0000 
     21 C1'        43.7290  104.2630   60.8040 C.3       1 GNP201      0.0000 
     22 N9         44.8610  103.7700   59.9630 N.pl3     1 GNP201      0.0000 
     23 C8         44.7300  102.9430   58.8790 C.2       1 GNP201      0.0000 
     24 N7         45.9360  102.6850   58.4090 N.2       1 GNP201      0.0000 
     25 C5         46.8400  103.3090   59.2000 C.2       1 GNP201      0.0000 
     26 C6         48.2630  103.3900   59.2390 C.2       1 GNP201      0.0000 
     27 O6         49.0110  102.7970   58.3960 O.2       1 GNP201      0.0000 
     28 N1         48.8590  104.0760   60.2560 N.am      1 GNP201      0.0000 
     29 C2         48.1200  104.7500   61.1400 C.2       1 GNP201      0.0000 
     30 N2         48.7340  105.4730   62.0750 N.pl3     1 GNP201      0.0000 
     31 N3         46.8040  104.6640   61.2300 N.2       1 GNP201      0.0000 
     32 C4         46.1080  103.9810   60.2650 C.2       1 GNP201      0.0000 
@<TRIPOS>BOND
     1    1    2 ar   
     2    1    3 ar   
     3    1    4 ar   
     4    1    5 1    
     5    5    6 1    
     6    6    7 ar   
     7    6    8 ar   
     8    6    9 1    
     9    9   10 1    
    10   10   11 ar   
    11   10   12 ar   
    12   10   13 1    
    13   13   14 1    
    14   14   15 1    
    15   15   16 1    
    16   15   17 1    
    17   16   21 1    
    18   17   18 1    
    19   17   19 1    
    20   19   20 1    
    21   19   21 1    
    22   21   22 1    
    23   22   23 1    
    24   22   32 1    
    25   23   24 2    
    26   24   25 1    
    27   25   26 1    
    28   25   32 2    
    29   26   27 2    
    30   26   28 am   
    31   28   29 1    
    32   29   30 1    
    33   29   31 2    
    34   31   32 1    
@<TRIPOS>SUBSTRUCTURE
     1 GNP201      1 GROUP   
@<TRIPOS>SET
ATOM$ORANGE STATIC     ATOMS   COLORGROUP SYSTEM 
20 14 14 15 15 17 17 19 19 21 21 23 23 25 25 26 26 29 \
29 32 32 

