#    Name: 5oco_4_GNP_CAVITY_N1_4
#    Modification time : Fri May 22 19:20:52 2020

@<TRIPOS>MOLECULE
5oco_4_GNP_CAVITY_N1_4
   77     0     6     0     0
SMALL
NO_CHARGES


@<TRIPOS>ATOM
      1 N          36.1300  126.4700    7.8400 N.am      1 ALA2        0.0000 
      2 N          36.8200  127.1300    9.0000 N.am      1 ALA2        0.0000 
      3 N          37.2500  125.7900    9.5100 N.am      1 ALA2        0.0000 
      4 N          38.5100  125.8800    8.7000 N.am      1 ALA2        0.0000 
      5 N          37.5100  127.7900   10.1500 N.am      1 ALA2        0.0000 
      6 N          37.9400  126.4500   10.6600 N.am      1 ALA2        0.0000 
      7 N          39.6100  129.3200    8.0200 N.am      1 ALA2        0.0000 
      8 O          42.1500  125.3900    8.7600 O.2       1 ALA2        0.0000 
      9 N          38.2000  128.4600   11.3000 N.am      1 ALA2        0.0000 
     10 N          40.3000  129.9800    9.1700 N.am      1 ALA2        0.0000 
     11 O          36.3700  128.9300   14.0700 O.2       1 ALA2        0.0000 
     12 N          37.6400  129.0300   13.2700 N.am      1 ALA2        0.0000 
     13 O          39.3200  127.7800   12.9700 O.2       1 ALA2        0.0000 
     14 O          40.9900  130.6500   10.3300 O.2       1 ALA2        0.0000 
     15 N          37.0700  129.6000   15.2300 N.am      1 ALA2        0.0000 
     16 O          40.8500  129.8800   12.8100 O.2       1 ALA2        0.0000 
     17 O          41.6800  131.3100   11.4800 O.2       1 ALA2        0.0000 
     18 OD1        37.8600  120.6400    4.3100 O.co2     2 ASP3        0.0000 
     19 OD1        38.9100  128.6600    6.8700 O.co2     2 ASP3        0.0000 
     20 OD1        39.3400  127.3200    7.3800 O.co2     2 ASP3        0.0000 
     21 OD1        39.9900  132.5600   11.7800 O.co2     2 ASP3        0.0000 
     22 OD1        40.4200  131.2200   12.2900 O.co2     2 ASP3        0.0000 
     23 NZ         39.8200  121.3900    4.6500 N.4       3 LYS4        0.0000 
     24 NZ         40.5100  122.0600    5.8100 N.4       3 LYS4        0.0000 
     25 NZ         42.4600  122.8100    6.1500 N.4       3 LYS4        0.0000 
     26 CZ         38.8200  123.3100    6.1000 C.ar      4 PHE5        0.0000 
     27 CZ         39.2500  121.9600    6.6100 C.ar      4 PHE5        0.0000 
     28 CZ         39.5100  123.9700    7.2500 C.ar      4 PHE5        0.0000 
     29 CZ         41.2000  122.7200    6.9600 C.ar      4 PHE5        0.0000 
     30 CZ         37.2300  129.9100    7.1600 C.ar      4 PHE5        0.0000 
     31 CZ         37.6500  128.5700    7.6700 C.ar      4 PHE5        0.0000 
     32 CZ         38.9400  124.5400    9.2200 C.ar      4 PHE5        0.0000 
     33 CZ         40.2000  124.6300    8.4100 C.ar      4 PHE5        0.0000 
     34 CZ         41.4600  124.7200    7.6000 C.ar      4 PHE5        0.0000 
     35 CZ         41.8900  123.3800    8.1200 C.ar      4 PHE5        0.0000 
     36 CZ         37.9200  130.5700    8.3100 C.ar      4 PHE5        0.0000 
     37 CZ         38.3500  129.2300    8.8300 C.ar      4 PHE5        0.0000 
     38 CZ         37.7800  129.8000   10.7900 C.ar      4 PHE5        0.0000 
     39 CZ         38.6100  131.2300    9.4700 C.ar      4 PHE5        0.0000 
     40 CZ         39.0400  129.8900    9.9800 C.ar      4 PHE5        0.0000 
     41 CZ         38.0400  131.8000   11.4300 C.ar      4 PHE5        0.0000 
     42 CZ         38.4700  130.4600   11.9400 C.ar      4 PHE5        0.0000 
     43 CZ         39.3000  131.9000   10.6200 C.ar      4 PHE5        0.0000 
     44 CA         38.5600  121.3000    5.4600 C.3       5 GLY6        0.0000 
     45 CA         38.9600  124.0800    3.6200 C.3       5 GLY6        0.0000 
     46 CA         39.3900  122.7300    4.1400 C.3       5 GLY6        0.0000 
     47 CA         41.3400  123.4900    4.4800 C.3       5 GLY6        0.0000 
     48 CA         40.3400  125.4000    5.9300 C.3       5 GLY6        0.0000 
     49 CA         40.7700  124.0600    6.4500 C.3       5 GLY6        0.0000 
     50 CA         42.0300  124.1500    5.6400 C.3       5 GLY6        0.0000 
     51 CA         36.3900  128.4700    8.4800 C.3       5 GLY6        0.0000 
     52 CA         39.7700  125.9700    7.8900 C.3       5 GLY6        0.0000 
     53 CA         41.0300  126.0700    7.0900 C.3       5 GLY6        0.0000 
     54 CA         42.7200  124.8200    6.7900 C.3       5 GLY6        0.0000 
     55 CA         37.0800  129.1400    9.6400 C.3       5 GLY6        0.0000 
     56 CA         39.2000  126.5400    9.8600 C.3       5 GLY6        0.0000 
     57 CA         39.6300  125.2000   10.3700 C.3       5 GLY6        0.0000 
     58 CA         40.0300  127.9800    8.5300 C.3       5 GLY6        0.0000 
     59 CA         40.4600  126.6400    9.0500 C.3       5 GLY6        0.0000 
     60 CA         40.8900  125.2900    9.5600 C.3       5 GLY6        0.0000 
     61 CA         41.7200  126.7300    8.2400 C.3       5 GLY6        0.0000 
     62 CA         38.6300  127.1100   11.8200 C.3       5 GLY6        0.0000 
     63 CA         39.4600  128.5500   10.5000 C.3       5 GLY6        0.0000 
     64 CA         39.8900  127.2100   11.0100 C.3       5 GLY6        0.0000 
     65 CA         40.7300  128.6400    9.6900 C.3       5 GLY6        0.0000 
     66 CA         41.1500  127.3000   10.2000 C.3       5 GLY6        0.0000 
     67 CA         38.0600  127.6800   13.7800 C.3       5 GLY6        0.0000 
     68 CA         38.9000  129.1200   12.4600 C.3       5 GLY6        0.0000 
     69 CA         40.1600  129.2100   11.6500 C.3       5 GLY6        0.0000 
     70 CA         38.7500  128.3500   14.9400 C.3       5 GLY6        0.0000 
     71 DU         38.1300  122.6400    4.9500 H         6 CUB7        0.0000 
     72 DU         40.0800  123.4000    5.2900 H         6 CUB7        0.0000 
     73 DU         37.3900  126.5600    7.0300 H         6 CUB7        0.0000 
     74 DU         39.0800  125.3100    6.7400 H         6 CUB7        0.0000 
     75 DU         38.0800  127.2200    8.1900 H         6 CUB7        0.0000 
     76 DU         38.7700  127.8900    9.3400 H         6 CUB7        0.0000 
     77 DU         39.7300  130.5500   11.1400 H         6 CUB7        0.0000 
@<TRIPOS>BOND
@<TRIPOS>SUBSTRUCTURE
     1 ALA2        1 GROUP   
     2 ASP3       18 GROUP   
     3 LYS4       23 GROUP   
     4 PHE5       26 GROUP   
     5 GLY6       44 GROUP   
     6 CUB7       71 GROUP   
@<TRIPOS>SET

