#    Name: 5oco_5_GNP_CAVITY_N1_12
#    Modification time : Fri May 22 19:20:55 2020

@<TRIPOS>MOLECULE
5oco_5_GNP_CAVITY_N1_12
   86     0     7     0     0
SMALL
NO_CHARGES


@<TRIPOS>ATOM
      1 OG         34.5300   97.5200   60.5000 O.3       1 SER1        0.0000 
      2 OG         35.6500   96.8500   62.1700 O.3       1 SER1        0.0000 
      3 N          31.4600   97.4500   58.4900 N.am      2 ALA2        0.0000 
      4 N          31.8900   96.1100   59.0000 N.am      2 ALA2        0.0000 
      5 O          33.1500   96.2000   58.1900 O.2       2 ALA2        0.0000 
      6 O          33.8400   96.8600   59.3500 O.2       2 ALA2        0.0000 
      7 O          34.2700   95.5200   59.8600 O.2       2 ALA2        0.0000 
      8 O          34.6700   98.3000   58.0300 O.2       2 ALA2        0.0000 
      9 O          35.1000   96.9500   58.5400 O.2       2 ALA2        0.0000 
     10 O          36.3600   97.0500   57.7300 O.2       2 ALA2        0.0000 
     11 O          37.0500   97.7100   58.8900 O.2       2 ALA2        0.0000 
     12 O          38.5700   99.8100   58.7200 O.2       2 ALA2        0.0000 
     13 O          39.8300   99.9000   57.9100 O.2       2 ALA2        0.0000 
     14 N          39.6700  103.2500   58.0400 N.am      2 ALA2        0.0000 
     15 O          40.5200  100.5600   59.0700 O.2       2 ALA2        0.0000 
     16 O          40.9300  103.3400   57.2300 O.2       2 ALA2        0.0000 
     17 N          40.3600  103.9100   59.1900 N.am      2 ALA2        0.0000 
     18 N          41.2100  101.2300   60.2200 N.am      2 ALA2        0.0000 
     19 N          41.0500  104.5800   60.3500 N.am      2 ALA2        0.0000 
     20 N          41.9100  101.8900   61.3800 N.am      2 ALA2        0.0000 
     21 N          42.3100  104.6700   59.5400 N.am      2 ALA2        0.0000 
     22 N          43.5700  104.7600   58.7300 N.am      2 ALA2        0.0000 
     23 O          45.6900  102.1700   58.9500 O.2       2 ALA2        0.0000 
     24 N          41.7400  105.2400   61.5000 N.am      2 ALA2        0.0000 
     25 N          43.0000  105.3300   60.6900 N.am      2 ALA2        0.0000 
     26 N          42.4300  105.9000   62.6600 N.am      2 ALA2        0.0000 
     27 OD1        35.9300   98.3900   57.2200 O.co2     3 ASP3        0.0000 
     28 OD1        36.6200   99.0500   58.3700 O.co2     3 ASP3        0.0000 
     29 OD1        37.8800   99.1500   57.5700 O.co2     3 ASP3        0.0000 
     30 OD1        38.3100   97.8000   58.0800 O.co2     3 ASP3        0.0000 
     31 OD1        39.4000  101.2400   57.4000 O.co2     3 ASP3        0.0000 
     32 OD1        43.1700  101.9800   60.5700 O.co2     3 ASP3        0.0000 
     33 OD1        41.7600  101.1200   63.8500 O.co2     3 ASP3        0.0000 
     34 OD1        42.6000  102.5500   62.5300 O.co2     3 ASP3        0.0000 
     35 OD1        43.4300  103.9900   61.2100 O.co2     3 ASP3        0.0000 
     36 OD1        47.5900  107.5100   62.5400 O.co2     3 ASP3        0.0000 
     37 NZ         48.5900  105.5900   61.0900 N.4       4 LYS4        0.0000 
     38 CZ         35.3600   98.9600   59.1800 C.ar      5 PHE5        0.0000 
     39 CZ         38.8300  101.8100   59.3600 C.ar      5 PHE5        0.0000 
     40 CZ         39.5300  102.4800   60.5100 C.ar      5 PHE5        0.0000 
     41 CZ         40.2200  103.1400   61.6700 C.ar      5 PHE5        0.0000 
     42 CZ         40.6500  101.8000   62.1800 C.ar      5 PHE5        0.0000 
     43 CZ         44.8300  104.8500   57.9200 C.ar      5 PHE5        0.0000 
     44 CZ         40.9100  103.8000   62.8200 C.ar      5 PHE5        0.0000 
     45 CZ         41.3400  102.4600   63.3400 C.ar      5 PHE5        0.0000 
     46 CZ         44.2600  105.4200   59.8900 C.ar      5 PHE5        0.0000 
     47 CZ         45.9500  104.1700   59.5900 C.ar      5 PHE5        0.0000 
     48 CZ         47.2100  104.2700   58.7800 C.ar      5 PHE5        0.0000 
     49 CZ         45.3800  104.7400   61.5500 C.ar      5 PHE5        0.0000 
     50 CZ         46.6400  104.8400   60.7500 C.ar      5 PHE5        0.0000 
     51 CZ         47.9000  104.9300   59.9400 C.ar      5 PHE5        0.0000 
     52 CZ         46.9000  106.8400   61.3900 C.ar      5 PHE5        0.0000 
     53 CZ         47.3300  105.5000   61.9000 C.ar      5 PHE5        0.0000 
     54 CA         32.1500   98.1100   59.6400 C.3       6 GLY6        0.0000 
     55 CA         33.0000   95.4300   60.6700 C.3       6 GLY6        0.0000 
     56 CA         33.4100   98.2000   58.8300 C.3       6 GLY6        0.0000 
     57 CA         33.2700   97.4300   61.3100 C.3       6 GLY6        0.0000 
     58 CA         34.9600   96.1800   61.0200 C.3       6 GLY6        0.0000 
     59 CA         35.7900   97.6200   59.7000 C.3       6 GLY6        0.0000 
     60 CA         39.2600  100.4700   59.8700 C.3       6 GLY6        0.0000 
     61 CA         39.9500  101.1300   61.0300 C.3       6 GLY6        0.0000 
     62 CA         41.6200  104.0100   58.3800 C.3       6 GLY6        0.0000 
     63 CA         42.0500  102.6600   58.9000 C.3       6 GLY6        0.0000 
     64 CA         42.4700  101.3200   59.4100 C.3       6 GLY6        0.0000 
     65 CA         43.3100  102.7600   58.0900 C.3       6 GLY6        0.0000 
     66 CA         44.0000  103.4200   59.2500 C.3       6 GLY6        0.0000 
     67 CA         44.4300  102.0800   59.7600 C.3       6 GLY6        0.0000 
     68 CA         45.2600  103.5100   58.4400 C.3       6 GLY6        0.0000 
     69 CA         46.5200  103.6000   57.6300 C.3       6 GLY6        0.0000 
     70 CA         40.4800  105.1500   62.3100 C.3       6 GLY6        0.0000 
     71 CA         45.1200  102.7400   60.9100 C.3       6 GLY6        0.0000 
     72 CA         46.3800  102.8300   60.1100 C.3       6 GLY6        0.0000 
     73 CA         47.6400  102.9300   59.3000 C.3       6 GLY6        0.0000 
     74 CA         47.0700  103.5000   61.2600 C.3       6 GLY6        0.0000 
     75 CA         48.3300  103.5900   60.4500 C.3       6 GLY6        0.0000 
     76 CA         47.7600  104.1600   62.4200 C.3       6 GLY6        0.0000 
     77 CA         48.0200  106.1600   63.0600 C.3       6 GLY6        0.0000 
     78 DU         32.5800   96.7700   60.1600 H         7 CUB7        0.0000 
     79 DU         40.0900  101.9100   58.5500 H         7 CUB7        0.0000 
     80 DU         40.7900  102.5700   59.7100 H         7 CUB7        0.0000 
     81 DU         41.4800  103.2300   60.8600 H         7 CUB7        0.0000 
     82 DU         42.7400  103.3300   60.0500 H         7 CUB7        0.0000 
     83 DU         42.1700  103.9000   62.0200 H         7 CUB7        0.0000 
     84 DU         44.6900  104.0800   60.4000 H         7 CUB7        0.0000 
     85 DU         42.8600  104.5600   63.1700 H         7 CUB7        0.0000 
     86 DU         46.7600  106.0700   63.8600 H         7 CUB7        0.0000 
@<TRIPOS>BOND
@<TRIPOS>SUBSTRUCTURE
     1 SER1        1 GROUP   
     2 ALA2        3 GROUP   
     3 ASP3       27 GROUP   
     4 LYS4       37 GROUP   
     5 PHE5       38 GROUP   
     6 GLY6       54 GROUP   
     7 CUB7       78 GROUP   
@<TRIPOS>SET

