#    Name: 5oco_6_GNP
#    Modification time : Fri May 22 19:20:57 2020

@<TRIPOS>MOLECULE
5oco_6_GNP
   32    34     1     0     1
SMALL
NO_CHARGES


@<TRIPOS>ATOM
      1 PG         61.2740  131.3950   56.2190 P.3       1 GNP201      0.0000 
      2 O1G        61.3610  131.5690   54.6850 O.co2     1 GNP201      0.0000 
      3 O2G        59.9330  131.8860   56.6580 O.co2     1 GNP201      0.0000 
      4 O3G        62.4090  132.1500   56.8290 O.co2     1 GNP201      0.0000 
      5 N3B        61.7000  129.7930   56.6210 N.3       1 GNP201      0.0000 
      6 PB         60.7820  128.4800   56.0170 P.3       1 GNP201      0.0000 
      7 O1B        60.7690  128.5920   54.5190 O.co2     1 GNP201      0.0000 
      8 O2B        59.4210  128.2980   56.7380 O.co2     1 GNP201      0.0000 
      9 O3A        61.6010  127.2400   56.4920 O.3       1 GNP201      0.0000 
     10 PA         62.7580  126.3880   55.6450 P.3       1 GNP201      0.0000 
     11 O1A        62.0520  125.5830   54.5490 O.co2     1 GNP201      0.0000 
     12 O2A        63.8080  127.3140   55.2630 O.co2     1 GNP201      0.0000 
     13 O5'        63.2170  125.3260   56.6820 O.3       1 GNP201      0.0000 
     14 C5'        63.8280  125.8190   57.9190 C.3       1 GNP201      0.0000 
     15 C4'        64.6140  124.7040   58.4890 C.3       1 GNP201      0.0000 
     16 O4'        63.8810  123.5240   58.9390 O.3       1 GNP201      0.0000 
     17 C3'        65.6820  124.2430   57.4660 C.3       1 GNP201      0.0000 
     18 O3'        66.8660  123.9060   58.2310 O.3       1 GNP201      0.0000 
     19 C2'        65.1040  122.9220   56.9890 C.3       1 GNP201      0.0000 
     20 O2'        66.0300  121.8650   56.6990 O.3       1 GNP201      0.0000 
     21 C1'        64.3020  122.4120   58.1840 C.3       1 GNP201      0.0000 
     22 N9         63.0780  121.6090   57.8490 N.pl3     1 GNP201      0.0000 
     23 C8         62.0300  122.0330   57.1700 C.2       1 GNP201      0.0000 
     24 N7         61.1010  121.1220   57.0300 N.2       1 GNP201      0.0000 
     25 C5         61.5650  120.0380   57.7200 C.2       1 GNP201      0.0000 
     26 C6         60.9620  118.7990   58.0140 C.2       1 GNP201      0.0000 
     27 O6         59.8090  118.3920   57.6500 O.2       1 GNP201      0.0000 
     28 N1         61.7610  118.0020   58.8220 N.am      1 GNP201      0.0000 
     29 C2         63.0000  118.3680   59.1920 C.2       1 GNP201      0.0000 
     30 N2         63.6820  117.4350   59.9220 N.pl3     1 GNP201      0.0000 
     31 N3         63.5760  119.5700   59.0140 N.2       1 GNP201      0.0000 
     32 C4         62.8440  120.4230   58.2720 C.2       1 GNP201      0.0000 
@<TRIPOS>BOND
     1    1    2 ar   
     2    1    3 ar   
     3    1    4 ar   
     4    1    5 1    
     5    5    6 1    
     6    6    7 ar   
     7    6    8 ar   
     8    6    9 1    
     9    9   10 1    
    10   10   11 ar   
    11   10   12 ar   
    12   10   13 1    
    13   13   14 1    
    14   14   15 1    
    15   15   16 1    
    16   15   17 1    
    17   16   21 1    
    18   17   18 1    
    19   17   19 1    
    20   19   20 1    
    21   19   21 1    
    22   21   22 1    
    23   22   23 1    
    24   22   32 1    
    25   23   24 2    
    26   24   25 1    
    27   25   26 1    
    28   25   32 2    
    29   26   27 2    
    30   26   28 am   
    31   28   29 1    
    32   29   30 1    
    33   29   31 2    
    34   31   32 1    
@<TRIPOS>SUBSTRUCTURE
     1 GNP201      1 GROUP   
@<TRIPOS>SET
ATOM$ORANGE STATIC     ATOMS   COLORGROUP SYSTEM 
20 14 14 15 15 17 17 19 19 21 21 23 23 25 25 26 26 29 \
29 32 32 

