#    Name: 5oco_6_GNP_CAVITY_N1_6
#    Modification time : Fri May 22 19:20:58 2020

@<TRIPOS>MOLECULE
5oco_6_GNP_CAVITY_N1_6
   61     0     5     0     0
SMALL
NO_CHARGES


@<TRIPOS>ATOM
      1 O          62.5800  126.0200   54.6300 O.2       1 ALA2        0.0000 
      2 N          63.8700  121.9900   56.1700 N.am      1 ALA2        0.0000 
      3 N          64.2700  124.7700   54.3400 N.am      1 ALA2        0.0000 
      4 N          64.7000  123.4300   54.8500 N.am      1 ALA2        0.0000 
      5 N          65.1000  126.2100   53.0100 N.am      1 ALA2        0.0000 
      6 N          65.9300  127.6400   51.6900 N.am      1 ALA2        0.0000 
      7 O          62.0100  126.5900   56.5900 O.2       1 ALA2        0.0000 
      8 N          64.5600  122.6600   57.3300 N.am      1 ALA2        0.0000 
      9 N          64.5300  126.7800   54.9800 N.am      1 ALA2        0.0000 
     10 N          64.9600  125.4300   55.4900 N.am      1 ALA2        0.0000 
     11 N          65.3900  124.0900   56.0100 N.am      1 ALA2        0.0000 
     12 N          65.8200  122.7500   56.5200 N.am      1 ALA2        0.0000 
     13 N          65.7900  126.8700   54.1700 N.am      1 ALA2        0.0000 
     14 N          63.1300  125.9100   58.2600 N.am      1 ALA2        0.0000 
     15 N          63.5600  124.5700   58.7800 N.am      1 ALA2        0.0000 
     16 N          66.0800  124.7600   57.1600 N.am      1 ALA2        0.0000 
     17 N          66.5100  123.4100   57.6700 N.am      1 ALA2        0.0000 
     18 N          63.8200  126.5800   59.4200 N.am      1 ALA2        0.0000 
     19 N          64.2500  125.2300   59.9300 N.am      1 ALA2        0.0000 
     20 N          67.2000  124.0800   58.8300 N.am      1 ALA2        0.0000 
     21 OD1        61.5800  127.9300   56.0800 O.co2     2 ASP3        0.0000 
     22 OD1        63.9900  123.2300   59.2900 O.co2     2 ASP3        0.0000 
     23 CZ         62.3400  119.9000   56.3400 C.ar      3 PHE5        0.0000 
     24 CZ         63.0300  120.5600   57.5000 C.ar      3 PHE5        0.0000 
     25 CZ         63.4600  119.2200   58.0100 C.ar      3 PHE5        0.0000 
     26 CZ         64.9900  121.3200   57.8400 C.ar      3 PHE5        0.0000 
     27 CZ         63.9600  127.3500   56.9400 C.ar      3 PHE5        0.0000 
     28 CZ         64.3900  126.0000   57.4500 C.ar      3 PHE5        0.0000 
     29 CZ         65.5100  125.3300   59.1200 C.ar      3 PHE5        0.0000 
     30 CZ         64.9400  125.9000   61.0800 C.ar      3 PHE5        0.0000 
     31 CA         61.0800  119.8000   57.1500 C.3       4 GLY6        0.0000 
     32 CA         61.9100  121.2400   55.8300 C.3       4 GLY6        0.0000 
     33 CA         64.8100  128.3200   50.0200 C.3       4 GLY6        0.0000 
     34 CA         65.2400  126.9800   50.5400 C.3       4 GLY6        0.0000 
     35 CA         61.3500  121.8100   57.7900 C.3       4 GLY6        0.0000 
     36 CA         61.7700  120.4700   58.3000 C.3       4 GLY6        0.0000 
     37 CA         62.2000  119.1200   58.8200 C.3       4 GLY6        0.0000 
     38 CA         62.1800  123.2400   56.4700 C.3       4 GLY6        0.0000 
     39 CA         62.6100  121.9000   56.9800 C.3       4 GLY6        0.0000 
     40 CA         63.0100  124.6800   55.1400 C.3       4 GLY6        0.0000 
     41 CA         63.4400  123.3400   55.6600 C.3       4 GLY6        0.0000 
     42 CA         63.8400  126.1100   53.8200 C.3       4 GLY6        0.0000 
     43 CA         64.6700  127.5500   52.5000 C.3       4 GLY6        0.0000 
     44 CA         66.3600  126.3000   52.2100 C.3       4 GLY6        0.0000 
     45 CA         66.7700  129.0800   50.3700 C.3       4 GLY6        0.0000 
     46 CA         67.1900  127.7300   50.8800 C.3       4 GLY6        0.0000 
     47 CA         61.6100  123.8100   58.4300 C.3       4 GLY6        0.0000 
     48 CA         62.4700  121.1300   59.4600 C.3       4 GLY6        0.0000 
     49 CA         62.4400  125.2500   57.1100 C.3       4 GLY6        0.0000 
     50 CA         62.8700  123.9100   57.6200 C.3       4 GLY6        0.0000 
     51 CA         63.3000  122.5600   58.1400 C.3       4 GLY6        0.0000 
     52 CA         63.7300  121.2200   58.6500 C.3       4 GLY6        0.0000 
     53 CA         62.7000  127.2500   57.7500 C.3       4 GLY6        0.0000 
     54 CA         65.6500  126.1000   56.6500 C.3       4 GLY6        0.0000 
     55 DU         63.2700  126.6800   55.7800 H         5 CUB7        0.0000 
     56 DU         63.7000  125.3400   56.3000 H         5 CUB7        0.0000 
     57 DU         64.1300  124.0000   56.8100 H         5 CUB7        0.0000 
     58 DU         64.8200  124.6600   57.9700 H         5 CUB7        0.0000 
     59 DU         65.2500  123.3200   58.4800 H         5 CUB7        0.0000 
     60 DU         65.9400  123.9800   59.6400 H         5 CUB7        0.0000 
     61 DU         66.3700  122.6400   60.1500 H         5 CUB7        0.0000 
@<TRIPOS>BOND
@<TRIPOS>SUBSTRUCTURE
     1 ALA2        1 GROUP   
     2 ASP3       21 GROUP   
     3 PHE5       23 GROUP   
     4 GLY6       31 GROUP   
     5 CUB7       55 GROUP   
@<TRIPOS>SET

