#    Name: 6evx_5_GTP
#    Modification time : Fri May 22 19:31:58 2020

@<TRIPOS>MOLECULE
6evx_5_GTP
   32    34     1     0     1
SMALL
NO_CHARGES


@<TRIPOS>ATOM
      1 PG         44.6850  149.7710  162.6040 P.3       1 GTP502      0.0000 
      2 O1G        46.1770  149.7750  162.2780 O.co2     1 GTP502      0.0000 
      3 O2G        44.3300  148.8270  163.6840 O.co2     1 GTP502      0.0000 
      4 O3G        44.2280  151.1990  162.8770 O.co2     1 GTP502      0.0000 
      5 O3B        43.9670  149.3500  161.2490 O.3       1 GTP502      0.0000 
      6 PB         44.5970  148.7700  159.9090 P.3       1 GTP502      0.0000 
      7 O1B        43.7020  149.1460  158.7410 O.co2     1 GTP502      0.0000 
      8 O2B        45.9640  149.2940  159.7260 O.co2     1 GTP502      0.0000 
      9 O3A        44.6350  147.1870  160.0770 O.3       1 GTP502      0.0000 
     10 PA         45.4560  146.0420  159.3380 P.3       1 GTP502      0.0000 
     11 O1A        45.8850  146.5750  157.9820 O.co2     1 GTP502      0.0000 
     12 O2A        46.6440  145.6950  160.1390 O.co2     1 GTP502      0.0000 
     13 O5'        44.4780  144.8230  159.0880 O.3       1 GTP502      0.0000 
     14 C5'        44.7070  143.4900  159.5860 C.3       1 GTP502      0.0000 
     15 C4'        44.5730  142.5210  158.4420 C.3       1 GTP502      0.0000 
     16 O4'        45.6750  142.6960  157.5230 O.3       1 GTP502      0.0000 
     17 C3'        44.5740  141.0450  158.8340 C.3       1 GTP502      0.0000 
     18 O3'        43.6460  140.3300  158.0300 O.3       1 GTP502      0.0000 
     19 C2'        46.0120  140.6200  158.5400 C.3       1 GTP502      0.0000 
     20 O2'        46.0990  139.2340  158.2380 O.3       1 GTP502      0.0000 
     21 C1'        46.2950  141.4480  157.2950 C.3       1 GTP502      0.0000 
     22 N9         47.7230  141.6780  157.0370 N.pl3     1 GTP502      0.0000 
     23 C8         48.5680  142.5040  157.7260 C.2       1 GTP502      0.0000 
     24 N7         49.7870  142.5150  157.2430 N.2       1 GTP502      0.0000 
     25 C5         49.7400  141.6340  156.1770 C.2       1 GTP502      0.0000 
     26 C6         50.7570  141.1880  155.2870 C.2       1 GTP502      0.0000 
     27 O6         51.9410  141.5100  155.2920 O.2       1 GTP502      0.0000 
     28 N1         50.2880  140.2670  154.3750 N.am      1 GTP502      0.0000 
     29 C2         49.0010  139.8160  154.3070 C.2       1 GTP502      0.0000 
     30 N2         48.7140  138.9450  153.3400 N.pl3     1 GTP502      0.0000 
     31 N3         48.0420  140.2170  155.1370 N.2       1 GTP502      0.0000 
     32 C4         48.4750  141.1150  156.0370 C.2       1 GTP502      0.0000 
@<TRIPOS>BOND
     1    1    2 ar   
     2    1    3 ar   
     3    1    4 ar   
     4    1    5 1    
     5    5    6 1    
     6    6    7 ar   
     7    6    8 ar   
     8    6    9 1    
     9    9   10 1    
    10   10   11 ar   
    11   10   12 ar   
    12   10   13 1    
    13   13   14 1    
    14   14   15 1    
    15   15   16 1    
    16   15   17 1    
    17   16   21 1    
    18   17   18 1    
    19   17   19 1    
    20   19   20 1    
    21   19   21 1    
    22   21   22 1    
    23   22   23 1    
    24   22   32 1    
    25   23   24 2    
    26   24   25 1    
    27   25   26 1    
    28   25   32 2    
    29   26   27 2    
    30   26   28 am   
    31   28   29 1    
    32   29   30 1    
    33   29   31 2    
    34   31   32 1    
@<TRIPOS>SUBSTRUCTURE
     1 GTP502      1 GROUP   
@<TRIPOS>SET
ATOM$ORANGE STATIC     ATOMS   COLORGROUP SYSTEM 
20 14 14 15 15 17 17 19 19 21 21 23 23 25 25 26 26 29 \
29 32 32 

