#    Name: 6evx_3_GTP
#    Modification time : Fri May 22 19:31:27 2020

@<TRIPOS>MOLECULE
6evx_3_GTP
   32    34     1     0     1
SMALL
NO_CHARGES


@<TRIPOS>ATOM
      1 PG         76.0500   49.5180  143.8970 P.3       1 GTP502      0.0000 
      2 O1G        76.8920   50.7470  143.5600 O.co2     1 GTP502      0.0000 
      3 O2G        76.6400   48.6880  144.9700 O.co2     1 GTP502      0.0000 
      4 O3G        74.6200   49.9540  144.1900 O.co2     1 GTP502      0.0000 
      5 O3B        75.9700   48.6870  142.5430 O.3       1 GTP502      0.0000 
      6 PB         76.7870   48.8750  141.1930 P.3       1 GTP502      0.0000 
      7 O1B        75.9530   48.3530  140.0350 O.co2     1 GTP502      0.0000 
      8 O2B        77.1320   50.2970  141.0040 O.co2     1 GTP502      0.0000 
      9 O3A        78.1130   48.0060  141.3430 O.3       1 GTP502      0.0000 
     10 PA         79.5110   48.0300  140.5840 P.3       1 GTP502      0.0000 
     11 O1A        79.2980   48.6850  139.2310 O.co2     1 GTP502      0.0000 
     12 O2A        80.4830   48.8100  141.3720 O.co2     1 GTP502      0.0000 
     13 O5'        79.9540   46.5310  140.3290 O.3       1 GTP502      0.0000 
     14 C5'        81.1870   45.9620  140.8090 C.3       1 GTP502      0.0000 
     15 C4'        81.8920   45.3000  139.6560 C.3       1 GTP502      0.0000 
     16 O4'        82.3630   46.3060  138.7310 O.3       1 GTP502      0.0000 
     17 C3'        83.1120   44.4620  140.0320 C.3       1 GTP502      0.0000 
     18 O3'        83.1620   43.2920  139.2270 O.3       1 GTP502      0.0000 
     19 C2'        84.2760   45.4030  139.7220 C.3       1 GTP502      0.0000 
     20 O2'        85.4610   44.6850  139.4040 O.3       1 GTP502      0.0000 
     21 C1'        83.7390   46.1060  138.4830 C.3       1 GTP502      0.0000 
     22 N9         84.3580   47.4110  138.2180 N.pl3     1 GTP502      0.0000 
     23 C8         84.1690   48.5760  138.9080 C.2       1 GTP502      0.0000 
     24 N7         84.8470   49.5850  138.4160 N.2       1 GTP502      0.0000 
     25 C5         85.5290   49.0450  137.3410 C.2       1 GTP502      0.0000 
     26 C6         86.4630   49.6280  136.4380 C.2       1 GTP502      0.0000 
     27 O6         86.8720   50.7850  136.4370 O.2       1 GTP502      0.0000 
     28 N1         86.9410   48.7180  135.5200 N.am      1 GTP502      0.0000 
     29 C2         86.5790   47.4020  135.4570 C.2       1 GTP502      0.0000 
     30 N2         87.1190   46.6710  134.4820 N.pl3     1 GTP502      0.0000 
     31 N3         85.7160   46.8430  136.2980 N.2       1 GTP502      0.0000 
     32 C4         85.2350   47.7090  137.2050 C.2       1 GTP502      0.0000 
@<TRIPOS>BOND
     1    1    2 ar   
     2    1    3 ar   
     3    1    4 ar   
     4    1    5 1    
     5    5    6 1    
     6    6    7 ar   
     7    6    8 ar   
     8    6    9 1    
     9    9   10 1    
    10   10   11 ar   
    11   10   12 ar   
    12   10   13 1    
    13   13   14 1    
    14   14   15 1    
    15   15   16 1    
    16   15   17 1    
    17   16   21 1    
    18   17   18 1    
    19   17   19 1    
    20   19   20 1    
    21   19   21 1    
    22   21   22 1    
    23   22   23 1    
    24   22   32 1    
    25   23   24 2    
    26   24   25 1    
    27   25   26 1    
    28   25   32 2    
    29   26   27 2    
    30   26   28 am   
    31   28   29 1    
    32   29   30 1    
    33   29   31 2    
    34   31   32 1    
@<TRIPOS>SUBSTRUCTURE
     1 GTP502      1 GROUP   
@<TRIPOS>SET
ATOM$ORANGE STATIC     ATOMS   COLORGROUP SYSTEM 
20 14 14 15 15 17 17 19 19 21 21 23 23 25 25 26 26 29 \
29 32 32 

