#    Name: 6evx_4_GDP
#    Modification time : Fri May 22 19:31:43 2020

@<TRIPOS>MOLECULE
6evx_4_GDP
   28    30     1     0     1
SMALL
NO_CHARGES


@<TRIPOS>ATOM
      1 PB         76.1140   49.2060  100.3780 P.3       1 GDP501      0.0000 
      2 O1B        75.8530   48.9340   98.9030 O.co2     1 GDP501      0.0000 
      3 O2B        76.7470   50.5880  100.5000 O.co2     1 GDP501      0.0000 
      4 O3B        74.9010   49.0440  101.2140 O.co2     1 GDP501      0.0000 
      5 O3A        77.2340   48.1720  100.8400 O.3       1 GDP501      0.0000 
      6 PA         78.7920   48.0790  100.5300 P.3       1 GDP501      0.0000 
      7 O1A        79.1610   49.2810   99.6840 O.co2     1 GDP501      0.0000 
      8 O2A        79.5620   48.0980  101.7890 O.co2     1 GDP501      0.0000 
      9 O5'        79.0940   46.7850   99.6790 O.3       1 GDP501      0.0000 
     10 C5'        80.0590   45.7810  100.0460 C.3       1 GDP501      0.0000 
     11 C4'        80.7250   45.2530   98.8020 C.3       1 GDP501      0.0000 
     12 O4'        81.4480   46.3210   98.1470 O.3       1 GDP501      0.0000 
     13 C3'        81.7430   44.1410   99.0470 C.3       1 GDP501      0.0000 
     14 O3'        81.6940   43.1620   98.0160 O.3       1 GDP501      0.0000 
     15 C2'        83.0710   44.8970   99.0530 C.3       1 GDP501      0.0000 
     16 O2'        84.1510   44.0580   98.6650 O.3       1 GDP501      0.0000 
     17 C1'        82.8010   45.9460   97.9830 C.3       1 GDP501      0.0000 
     18 N9         83.6370   47.1490   98.1030 N.pl3     1 GDP501      0.0000 
     19 C8         83.5930   48.0960   99.0900 C.2       1 GDP501      0.0000 
     20 N7         84.4370   49.0820   98.9000 N.2       1 GDP501      0.0000 
     21 C5         85.0740   48.7620   97.7130 C.2       1 GDP501      0.0000 
     22 C6         86.0690   49.4540   96.9740 C.2       1 GDP501      0.0000 
     23 O6         86.5940   50.5250   97.2650 O.2       1 GDP501      0.0000 
     24 N1         86.4240   48.7880   95.8190 N.am      1 GDP501      0.0000 
     25 C2         85.8960   47.5970   95.4070 C.2       1 GDP501      0.0000 
     26 N2         86.3510   47.0960   94.2580 N.pl3     1 GDP501      0.0000 
     27 N3         84.9610   46.9380   96.0870 N.2       1 GDP501      0.0000 
     28 C4         84.5970   47.5720   97.2170 C.2       1 GDP501      0.0000 
@<TRIPOS>BOND
     1    1    2 ar   
     2    1    3 ar   
     3    1    4 ar   
     4    1    5 1    
     5    5    6 1    
     6    6    7 ar   
     7    6    8 ar   
     8    6    9 1    
     9    9   10 1    
    10   10   11 1    
    11   11   12 1    
    12   11   13 1    
    13   12   17 1    
    14   13   14 1    
    15   13   15 1    
    16   15   16 1    
    17   15   17 1    
    18   17   18 1    
    19   18   19 1    
    20   18   28 1    
    21   19   20 2    
    22   20   21 1    
    23   21   22 1    
    24   21   28 2    
    25   22   23 2    
    26   22   24 am   
    27   24   25 1    
    28   25   26 1    
    29   25   27 2    
    30   27   28 1    
@<TRIPOS>SUBSTRUCTURE
     1 GDP501      1 GROUP   
@<TRIPOS>SET
ATOM$ORANGE STATIC     ATOMS   COLORGROUP SYSTEM 
20 10 10 11 11 13 13 15 15 17 17 19 19 21 21 22 22 25 \
25 28 28 

