#    Name: 6evx_9_GDP
#    Modification time : Fri May 22 19:32:20 2020

@<TRIPOS>MOLECULE
6evx_9_GDP
   28    30     1     0     1
SMALL
NO_CHARGES


@<TRIPOS>ATOM
      1 PB         76.3650   49.2080  182.5640 P.3       1 GDP502      0.0000 
      2 O1B        76.0690   49.0750  181.0770 O.co2     1 GDP502      0.0000 
      3 O2B        76.9630   50.5880  182.8130 O.co2     1 GDP502      0.0000 
      4 O3B        75.1930   48.9250  183.4110 O.co2     1 GDP502      0.0000 
      5 O3A        77.5190   48.1610  182.8830 O.3       1 GDP502      0.0000 
      6 PA         79.0480   48.1280  182.4460 P.3       1 GDP502      0.0000 
      7 O1A        79.2770   49.3010  181.5050 O.co2     1 GDP502      0.0000 
      8 O2A        79.9060   48.2660  183.6380 O.co2     1 GDP502      0.0000 
      9 O5'        79.2920   46.7930  181.6360 O.3       1 GDP502      0.0000 
     10 C5'        80.1640   45.7230  182.0460 C.3       1 GDP502      0.0000 
     11 C4'        80.7650   45.0930  180.8160 C.3       1 GDP502      0.0000 
     12 O4'        81.5720   46.0690  180.1170 O.3       1 GDP502      0.0000 
     13 C3'        81.6820   43.9050  181.0840 C.3       1 GDP502      0.0000 
     14 O3'        81.5790   42.9380  180.0450 O.3       1 GDP502      0.0000 
     15 C2'        83.0650   44.5540  181.1220 C.3       1 GDP502      0.0000 
     16 O2'        84.0810   43.6260  180.7640 O.3       1 GDP502      0.0000 
     17 C1'        82.9130   45.6250  180.0460 C.3       1 GDP502      0.0000 
     18 N9         83.7960   46.7870  180.2370 N.pl3     1 GDP502      0.0000 
     19 C8         83.8460   47.6200  181.3220 C.2       1 GDP502      0.0000 
     20 N7         84.7110   48.5960  181.1870 N.2       1 GDP502      0.0000 
     21 C5         85.2630   48.3920  179.9330 C.2       1 GDP502      0.0000 
     22 C6         86.2330   49.1360  179.2090 C.2       1 GDP502      0.0000 
     23 O6         86.7980   50.1630  179.5740 O.2       1 GDP502      0.0000 
     24 N1         86.4930   48.5930  177.9670 N.am      1 GDP502      0.0000 
     25 C2         85.8980   47.4700  177.4620 C.2       1 GDP502      0.0000 
     26 N2         86.2650   47.0870  176.2400 N.pl3     1 GDP502      0.0000 
     27 N3         84.9850   46.7650  178.1270 N.2       1 GDP502      0.0000 
     28 C4         84.7140   47.2780  179.3410 C.2       1 GDP502      0.0000 
@<TRIPOS>BOND
     1    1    2 ar   
     2    1    3 ar   
     3    1    4 ar   
     4    1    5 1    
     5    5    6 1    
     6    6    7 ar   
     7    6    8 ar   
     8    6    9 1    
     9    9   10 1    
    10   10   11 1    
    11   11   12 1    
    12   11   13 1    
    13   12   17 1    
    14   13   14 1    
    15   13   15 1    
    16   15   16 1    
    17   15   17 1    
    18   17   18 1    
    19   18   19 1    
    20   18   28 1    
    21   19   20 2    
    22   20   21 1    
    23   21   22 1    
    24   21   28 2    
    25   22   23 2    
    26   22   24 am   
    27   24   25 1    
    28   25   26 1    
    29   25   27 2    
    30   27   28 1    
@<TRIPOS>SUBSTRUCTURE
     1 GDP502      1 GROUP   
@<TRIPOS>SET
ATOM$ORANGE STATIC     ATOMS   COLORGROUP SYSTEM 
20 10 10 11 11 13 13 15 15 17 17 19 19 21 21 22 22 25 \
25 28 28 

