#    Name: 6evx_7_GDP
#    Modification time : Fri May 22 19:32:06 2020

@<TRIPOS>MOLECULE
6evx_7_GDP
   28    30     1     0     1
SMALL
NO_CHARGES


@<TRIPOS>ATOM
      1 PB         44.6110  148.9450  201.2930 P.3       1 GDP502      0.0000 
      2 O1B        44.0660  149.0790  199.9330 O.co2     1 GDP502      0.0000 
      3 O2B        43.8460  149.7630  202.3240 O.co2     1 GDP502      0.0000 
      4 O3B        46.0850  149.3250  201.3860 O.co2     1 GDP502      0.0000 
      5 O3A        44.5260  147.4290  201.7690 O.3       1 GDP502      0.0000 
      6 PA         45.3600  146.1480  201.3260 P.3       1 GDP502      0.0000 
      7 O1A        46.4640  146.6210  200.3930 O.co2     1 GDP502      0.0000 
      8 O2A        45.9570  145.5070  202.5140 O.co2     1 GDP502      0.0000 
      9 O5'        44.4010  145.1940  200.5070 O.3       1 GDP502      0.0000 
     10 C5'        44.0600  143.8460  200.8820 C.3       1 GDP502      0.0000 
     11 C4'        44.0600  142.9800  199.6490 C.3       1 GDP502      0.0000 
     12 O4'        45.3700  143.0070  199.0360 O.3       1 GDP502      0.0000 
     13 C3'        43.7350  141.5070  199.8990 C.3       1 GDP502      0.0000 
     14 O3'        42.8970  140.9870  198.8730 O.3       1 GDP502      0.0000 
     15 C2'        45.1150  140.8470  199.8930 C.3       1 GDP502      0.0000 
     16 O2'        45.0420  139.4860  199.4840 O.3       1 GDP502      0.0000 
     17 C1'        45.8240  141.6830  198.8370 C.3       1 GDP502      0.0000 
     18 N9         47.2900  141.6680  198.9480 N.pl3     1 GDP502      0.0000 
     19 C8         48.0570  142.2420  199.9260 C.2       1 GDP502      0.0000 
     20 N7         49.3460  142.0960  199.7250 N.2       1 GDP502      0.0000 
     21 C5         49.4280  141.3830  198.5410 C.2       1 GDP502      0.0000 
     22 C6         50.5550  140.9480  197.7890 C.2       1 GDP502      0.0000 
     23 O6         51.7390  141.1160  198.0680 O.2       1 GDP502      0.0000 
     24 N1         50.1920  140.2810  196.6380 N.am      1 GDP502      0.0000 
     25 C2         48.9050  140.0480  196.2390 C.2       1 GDP502      0.0000 
     26 N2         48.7350  139.3920  195.0920 N.pl3     1 GDP502      0.0000 
     27 N3         47.8420  140.4490  196.9310 N.2       1 GDP502      0.0000 
     28 C4         48.1710  141.1060  198.0580 C.2       1 GDP502      0.0000 
@<TRIPOS>BOND
     1    1    2 ar   
     2    1    3 ar   
     3    1    4 ar   
     4    1    5 1    
     5    5    6 1    
     6    6    7 ar   
     7    6    8 ar   
     8    6    9 1    
     9    9   10 1    
    10   10   11 1    
    11   11   12 1    
    12   11   13 1    
    13   12   17 1    
    14   13   14 1    
    15   13   15 1    
    16   15   16 1    
    17   15   17 1    
    18   17   18 1    
    19   18   19 1    
    20   18   28 1    
    21   19   20 2    
    22   20   21 1    
    23   21   22 1    
    24   21   28 2    
    25   22   23 2    
    26   22   24 am   
    27   24   25 1    
    28   25   26 1    
    29   25   27 2    
    30   27   28 1    
@<TRIPOS>SUBSTRUCTURE
     1 GDP502      1 GROUP   
@<TRIPOS>SET
ATOM$ORANGE STATIC     ATOMS   COLORGROUP SYSTEM 
20 10 10 11 11 13 13 15 15 17 17 19 19 21 21 22 22 25 \
25 28 28 

