#    Name: 6evx_8_GDP
#    Modification time : Fri May 22 19:32:13 2020

@<TRIPOS>MOLECULE
6evx_8_GDP
   28    30     1     0     1
SMALL
NO_CHARGES


@<TRIPOS>ATOM
      1 PB         48.2960   95.1090  191.9260 P.3       1 GDP502      0.0000 
      2 O1B        47.9050   94.9960  190.4630 O.co2     1 GDP502      0.0000 
      3 O2B        49.4320   96.1200  192.0400 O.co2     1 GDP502      0.0000 
      4 O3B        47.1570   95.4100  192.8080 O.co2     1 GDP502      0.0000 
      5 O3A        48.9120   93.7030  192.3400 O.3       1 GDP502      0.0000 
      6 PA         50.2300   92.9680  191.8400 P.3       1 GDP502      0.0000 
      7 O1A        50.9360   93.9090  190.8780 O.co2     1 GDP502      0.0000 
      8 O2A        51.0980   92.6640  192.9940 O.co2     1 GDP502      0.0000 
      9 O5'        49.7630   91.7040  191.0260 O.3       1 GDP502      0.0000 
     10 C5'        50.0200   90.3420  191.4120 C.3       1 GDP502      0.0000 
     11 C4'        50.3730   89.5540  190.1780 C.3       1 GDP502      0.0000 
     12 O4'        51.5510   90.1210  189.5600 O.3       1 GDP502      0.0000 
     13 C3'        50.6900   88.0810  190.4290 C.3       1 GDP502      0.0000 
     14 O3'        50.1760   87.2650  189.3830 O.3       1 GDP502      0.0000 
     15 C2'        52.2180   88.0670  190.4650 C.3       1 GDP502      0.0000 
     16 O2'        52.7370   86.8010  190.0770 O.3       1 GDP502      0.0000 
     17 C1'        52.5360   89.1190  189.4110 C.3       1 GDP502      0.0000 
     18 N9         53.8610   89.7390  189.5640 N.pl3     1 GDP502      0.0000 
     19 C8         54.3120   90.4960  190.6120 C.2       1 GDP502      0.0000 
     20 N7         55.5300   90.9510  190.4370 N.2       1 GDP502      0.0000 
     21 C5         55.9010   90.4620  189.1950 C.2       1 GDP502      0.0000 
     22 C6         57.0940   90.6430  188.4350 C.2       1 GDP502      0.0000 
     23 O6         58.0860   91.2890  188.7580 O.2       1 GDP502      0.0000 
     24 N1         57.0400   90.0010  187.2150 N.am      1 GDP502      0.0000 
     25 C2         55.9810   89.2650  186.7610 C.2       1 GDP502      0.0000 
     26 N2         56.0960   88.7180  185.5510 N.pl3     1 GDP502      0.0000 
     27 N3         54.8630   89.0850  187.4600 N.2       1 GDP502      0.0000 
     28 C4         54.8870   89.7080  188.6520 C.2       1 GDP502      0.0000 
@<TRIPOS>BOND
     1    1    2 ar   
     2    1    3 ar   
     3    1    4 ar   
     4    1    5 1    
     5    5    6 1    
     6    6    7 ar   
     7    6    8 ar   
     8    6    9 1    
     9    9   10 1    
    10   10   11 1    
    11   11   12 1    
    12   11   13 1    
    13   12   17 1    
    14   13   14 1    
    15   13   15 1    
    16   15   16 1    
    17   15   17 1    
    18   17   18 1    
    19   18   19 1    
    20   18   28 1    
    21   19   20 2    
    22   20   21 1    
    23   21   22 1    
    24   21   28 2    
    25   22   23 2    
    26   22   24 am   
    27   24   25 1    
    28   25   26 1    
    29   25   27 2    
    30   27   28 1    
@<TRIPOS>SUBSTRUCTURE
     1 GDP502      1 GROUP   
@<TRIPOS>SET
ATOM$ORANGE STATIC     ATOMS   COLORGROUP SYSTEM 
20 10 10 11 11 13 13 15 15 17 17 19 19 21 21 22 22 25 \
25 28 28 

