#    Name: 6evx_5_GTP_CAVITY_N1_6
#    Modification time : Fri May 22 19:32:00 2020

@<TRIPOS>MOLECULE
6evx_5_GTP_CAVITY_N1_6
  105     0     7     0     0
SMALL
NO_CHARGES


@<TRIPOS>ATOM
      1 OG         42.5800  141.8600  158.3400 O.3       1 SER1        0.0000 
      2 OG         47.1300  140.5400  158.5500 O.3       1 SER1        0.0000 
      3 OG         45.6500  140.5800  158.7800 O.3       1 SER1        0.0000 
      4 OG         44.1700  140.6200  159.0100 O.3       1 SER1        0.0000 
      5 OG         45.7600  139.3800  159.6800 O.3       1 SER1        0.0000 
      6 OG         45.6400  143.8800  158.1700 O.3       1 SER1        0.0000 
      7 OG         44.1600  143.9200  158.4000 O.3       1 SER1        0.0000 
      8 OG         42.7800  142.7600  159.5200 O.3       1 SER1        0.0000 
      9 OG         44.3700  141.5200  160.1900 O.3       1 SER1        0.0000 
     10 OG         45.9600  140.2900  160.8600 O.3       1 SER1        0.0000 
     11 OG         45.7400  145.9800  158.4600 O.3       1 SER1        0.0000 
     12 OG         44.2600  146.0200  158.6800 O.3       1 SER1        0.0000 
     13 OG         44.5800  142.4200  161.3700 O.3       1 SER1        0.0000 
     14 OG         44.6800  141.2300  162.2700 O.3       1 SER1        0.0000 
     15 OG         43.3000  143.3600  162.7800 O.3       1 SER1        0.0000 
     16 OG         43.4000  142.1700  163.6800 O.3       1 SER1        0.0000 
     17 N          49.2700  140.1600  152.7600 N.am      2 ALA2        0.0000 
     18 N          49.4700  141.0600  153.9400 N.am      2 ALA2        0.0000 
     19 O          48.1000  139.9000  155.0700 O.2       2 ALA2        0.0000 
     20 O          46.6200  139.9400  155.2900 O.2       2 ALA2        0.0000 
     21 N          42.1700  140.0500  155.9800 N.am      2 ALA2        0.0000 
     22 N          42.2800  138.8600  156.8700 N.am      2 ALA2        0.0000 
     23 O          40.7900  138.9000  157.1000 O.2       2 ALA2        0.0000 
     24 N          42.3800  137.6600  157.7700 N.am      2 ALA2        0.0000 
     25 O          51.1600  141.9200  154.9000 O.2       2 ALA2        0.0000 
     26 O          42.2700  142.1500  156.2600 O.2       2 ALA2        0.0000 
     27 N          45.3400  140.8800  156.7000 N.am      2 ALA2        0.0000 
     28 N          43.8600  140.9200  156.9300 N.am      2 ALA2        0.0000 
     29 N          45.4400  139.6800  157.6000 N.am      2 ALA2        0.0000 
     30 N          43.9600  139.7200  157.8300 N.am      2 ALA2        0.0000 
     31 N          49.8800  142.8600  156.3100 N.am      2 ALA2        0.0000 
     32 O          42.4700  143.0600  157.4400 O.2       2 ALA2        0.0000 
     33 N          50.0900  143.7600  157.4900 N.am      2 ALA2        0.0000 
     34 O          48.6100  143.8000  157.7200 O.2       2 ALA2        0.0000 
     35 O          42.6800  143.9600  158.6200 O.2       2 ALA2        0.0000 
     36 N          50.1900  142.5700  158.3800 N.am      2 ALA2        0.0000 
     37 N          48.7100  142.6100  158.6100 N.am      2 ALA2        0.0000 
     38 N          47.3300  144.7400  159.1200 N.am      2 ALA2        0.0000 
     39 O          44.3600  144.8200  159.5800 O.2       2 ALA2        0.0000 
     40 N          48.9200  143.5100  159.7900 N.am      2 ALA2        0.0000 
     41 O          42.9900  143.6600  160.7000 O.2       2 ALA2        0.0000 
     42 N          46.0500  145.6800  160.5300 N.am      2 ALA2        0.0000 
     43 O          43.1900  144.5600  161.8800 O.2       2 ALA2        0.0000 
     44 O          43.2900  146.6600  162.1700 O.2       2 ALA2        0.0000 
     45 N          43.4000  145.4600  163.0600 N.am      2 ALA2        0.0000 
     46 N          43.5000  144.2700  163.9600 N.am      2 ALA2        0.0000 
     47 O          43.3900  148.7600  162.4500 O.2       2 ALA2        0.0000 
     48 N          43.4900  147.5600  163.3500 N.am      2 ALA2        0.0000 
     49 O          43.5900  149.6600  163.6300 O.2       2 ALA2        0.0000 
     50 OD1        45.9400  146.8800  159.6400 O.co2     3 ASP3        0.0000 
     51 OD1        44.6700  147.8200  161.0400 O.co2     3 ASP3        0.0000 
     52 OD1        46.2500  146.5800  161.7100 O.co2     3 ASP3        0.0000 
     53 OD1        44.7700  146.6200  161.9400 O.co2     3 ASP3        0.0000 
     54 OD1        46.3600  145.3900  162.6100 O.co2     3 ASP3        0.0000 
     55 OD1        44.8800  145.4300  162.8400 O.co2     3 ASP3        0.0000 
     56 OD1        44.9800  147.5300  163.1200 O.co2     3 ASP3        0.0000 
     57 OD1        45.0800  149.6200  163.4100 O.co2     3 ASP3        0.0000 
     58 NZ         40.8900  140.9900  157.3900 N.4       4 LYS4        0.0000 
     59 NZ         42.4800  139.7600  158.0500 N.4       4 LYS4        0.0000 
     60 CZ         49.5800  139.8600  154.8400 C.ar      5 PHE5        0.0000 
     61 CZ         49.7800  140.7600  156.0200 C.ar      5 PHE5        0.0000 
     62 CZ         48.3000  140.8000  156.2500 C.ar      5 PHE5        0.0000 
     63 CZ         46.8200  140.8400  156.4800 C.ar      5 PHE5        0.0000 
     64 CZ         46.9300  139.6400  157.3700 C.ar      5 PHE5        0.0000 
     65 CZ         49.9900  141.6700  157.2000 C.ar      5 PHE5        0.0000 
     66 CZ         48.5100  141.7000  157.4300 C.ar      5 PHE5        0.0000 
     67 CZ         47.0200  141.7400  157.6600 C.ar      5 PHE5        0.0000 
     68 CZ         48.8200  141.4100  159.5100 C.ar      5 PHE5        0.0000 
     69 CA         47.7900  140.2000  152.9900 C.3       6 GLY6        0.0000 
     70 CA         47.8900  142.3000  153.2800 C.3       6 GLY6        0.0000 
     71 CA         47.9900  141.1000  154.1700 C.3       6 GLY6        0.0000 
     72 CA         46.5100  141.1400  154.4000 C.3       6 GLY6        0.0000 
     73 CA         40.6900  140.0900  156.2000 C.3       6 GLY6        0.0000 
     74 CA         49.5700  143.1600  154.2300 C.3       6 GLY6        0.0000 
     75 CA         48.2000  142.0000  155.3500 C.3       6 GLY6        0.0000 
     76 CA         46.7100  142.0400  155.5800 C.3       6 GLY6        0.0000 
     77 CA         45.2300  142.0800  155.8100 C.3       6 GLY6        0.0000 
     78 CA         43.7500  142.1200  156.0300 C.3       6 GLY6        0.0000 
     79 CA         44.0700  138.5200  158.7200 C.3       6 GLY6        0.0000 
     80 CA         48.4000  142.9000  156.5300 C.3       6 GLY6        0.0000 
     81 CA         46.9200  142.9400  156.7600 C.3       6 GLY6        0.0000 
     82 CA         45.4400  142.9800  156.9900 C.3       6 GLY6        0.0000 
     83 CA         43.9500  143.0200  157.2200 C.3       6 GLY6        0.0000 
     84 CA         41.1000  141.9000  158.5700 C.3       6 GLY6        0.0000 
     85 CA         47.1200  143.8400  157.9400 C.3       6 GLY6        0.0000 
     86 CA         47.2300  142.6400  158.8400 C.3       6 GLY6        0.0000 
     87 CA         47.3400  141.4500  159.7300 C.3       6 GLY6        0.0000 
     88 CA         45.8500  141.4800  159.9600 C.3       6 GLY6        0.0000 
     89 CA         48.8100  144.7000  158.9000 C.3       6 GLY6        0.0000 
     90 CA         47.4300  143.5500  160.0200 C.3       6 GLY6        0.0000 
     91 CA         45.9500  143.5800  160.2500 C.3       6 GLY6        0.0000 
     92 CA         44.4600  146.9200  159.8600 C.3       6 GLY6        0.0000 
     93 CA         44.5700  145.7200  160.7600 C.3       6 GLY6        0.0000 
     94 CA         46.1600  144.4900  161.4300 C.3       6 GLY6        0.0000 
     95 CA         44.6700  144.5200  161.6600 C.3       6 GLY6        0.0000 
     96 CA         44.7800  143.3300  162.5500 C.3       6 GLY6        0.0000 
     97 CA         44.8900  142.1300  163.4500 C.3       6 GLY6        0.0000 
     98 DU         49.6800  141.9600  155.1300 H         7 CUB7        0.0000 
     99 DU         42.3700  140.9600  157.1600 H         7 CUB7        0.0000 
    100 DU         45.5400  141.7800  157.8800 H         7 CUB7        0.0000 
    101 DU         44.0600  141.8200  158.1100 H         7 CUB7        0.0000 
    102 DU         45.7500  142.6800  159.0700 H         7 CUB7        0.0000 
    103 DU         44.2700  142.7200  159.2900 H         7 CUB7        0.0000 
    104 DU         45.8500  144.7800  159.3500 H         7 CUB7        0.0000 
    105 DU         44.4700  143.6200  160.4700 H         7 CUB7        0.0000 
@<TRIPOS>BOND
@<TRIPOS>SUBSTRUCTURE
     1 SER1        1 GROUP   
     2 ALA2       17 GROUP   
     3 ASP3       50 GROUP   
     4 LYS4       58 GROUP   
     5 PHE5       60 GROUP   
     6 GLY6       69 GROUP   
     7 CUB7       98 GROUP   
@<TRIPOS>SET

