#    Name: 6evx_1_GTP
#    Modification time : Fri May 22 19:31:08 2020

@<TRIPOS>MOLECULE
6evx_1_GTP
   32    34     1     0     1
SMALL
NO_CHARGES


@<TRIPOS>ATOM
      1 PG         47.7340   96.0470  153.0790 P.3       1 GTP501      0.0000 
      2 O1G        49.0540   96.7430  152.7550 O.co2     1 GTP501      0.0000 
      3 O2G        47.8550   95.0510  154.1650 O.co2     1 GTP501      0.0000 
      4 O3G        46.6640   97.0990  153.3430 O.co2     1 GTP501      0.0000 
      5 O3B        47.3000   95.3330  151.7260 O.3       1 GTP501      0.0000 
      6 PB         48.1330   95.1060  150.3910 P.3       1 GTP501      0.0000 
      7 O1B        47.1710   95.0160  149.2190 O.co2     1 GTP501      0.0000 
      8 O2B        49.1000   96.2050  150.2060 O.co2     1 GTP501      0.0000 
      9 O3A        48.9030   93.7240  150.5690 O.3       1 GTP501      0.0000 
     10 PA         50.1650   93.0890  149.8380 P.3       1 GTP501      0.0000 
     11 O1A        50.3020   93.7530  148.4790 O.co2     1 GTP501      0.0000 
     12 O2A        51.3750   93.3390  150.6430 O.co2     1 GTP501      0.0000 
     13 O5'        49.8680   91.5530  149.5950 O.3       1 GTP501      0.0000 
     14 C5'        50.6890   90.4830  150.1010 C.3       1 GTP501      0.0000 
     15 C4'        51.0260   89.5570  148.9630 C.3       1 GTP501      0.0000 
     16 O4'        51.9240   90.2200  148.0450 O.3       1 GTP501      0.0000 
     17 C3'        51.7130   88.2530  149.3650 C.3       1 GTP501      0.0000 
     18 O3'        51.2280   87.1840  148.5640 O.3       1 GTP501      0.0000 
     19 C2'        53.1850   88.5450  149.0750 C.3       1 GTP501      0.0000 
     20 O2'        53.9080   87.3570  148.7820 O.3       1 GTP501      0.0000 
     21 C1'        53.0550   89.4030  147.8250 C.3       1 GTP501      0.0000 
     22 N9         54.2120   90.2700  147.5680 N.pl3     1 GTP501      0.0000 
     23 C8         54.5730   91.3980  148.2520 C.2       1 GTP501      0.0000 
     24 N7         55.6490   91.9730  147.7710 N.2       1 GTP501      0.0000 
     25 C5         56.0210   91.1660  146.7100 C.2       1 GTP501      0.0000 
     26 C6         57.1330   91.2400  145.8240 C.2       1 GTP501      0.0000 
     27 O6         58.0310   92.0760  145.8290 O.2       1 GTP501      0.0000 
     28 N1         57.1500   90.2020  144.9180 N.am      1 GTP501      0.0000 
     29 C2         56.2210   89.2030  144.8510 C.2       1 GTP501      0.0000 
     30 N2         56.3770   88.2940  143.8890 N.pl3     1 GTP501      0.0000 
     31 N3         55.1830   89.1160  145.6770 N.2       1 GTP501      0.0000 
     32 C4         55.1440   90.1170  146.5720 C.2       1 GTP501      0.0000 
@<TRIPOS>BOND
     1    1    2 ar   
     2    1    3 ar   
     3    1    4 ar   
     4    1    5 1    
     5    5    6 1    
     6    6    7 ar   
     7    6    8 ar   
     8    6    9 1    
     9    9   10 1    
    10   10   11 ar   
    11   10   12 ar   
    12   10   13 1    
    13   13   14 1    
    14   14   15 1    
    15   15   16 1    
    16   15   17 1    
    17   16   21 1    
    18   17   18 1    
    19   17   19 1    
    20   19   20 1    
    21   19   21 1    
    22   21   22 1    
    23   22   23 1    
    24   22   32 1    
    25   23   24 2    
    26   24   25 1    
    27   25   26 1    
    28   25   32 2    
    29   26   27 2    
    30   26   28 am   
    31   28   29 1    
    32   29   30 1    
    33   29   31 2    
    34   31   32 1    
@<TRIPOS>SUBSTRUCTURE
     1 GTP501      1 GROUP   
@<TRIPOS>SET
ATOM$ORANGE STATIC     ATOMS   COLORGROUP SYSTEM 
20 14 14 15 15 17 17 19 19 21 21 23 23 25 25 26 26 29 \
29 32 32 

