#    Name: 6evx_11_GTP
#    Modification time : Fri May 22 19:32:49 2020

@<TRIPOS>MOLECULE
6evx_11_GTP
   32    34     1     0     1
SMALL
NO_CHARGES


@<TRIPOS>ATOM
      1 PG         47.9200   95.8330   71.1480 P.3       1 GTP501      0.0000 
      2 O1G        49.2370   96.5300   70.8150 O.co2     1 GTP501      0.0000 
      3 O2G        48.0520   94.8290   72.2250 O.co2     1 GTP501      0.0000 
      4 O3G        46.8550   96.8840   71.4320 O.co2     1 GTP501      0.0000 
      5 O3B        47.4700   95.1300   69.7950 O.3       1 GTP501      0.0000 
      6 PB         48.2880   94.9120   68.4490 P.3       1 GTP501      0.0000 
      7 O1B        47.3130   94.8320   67.2870 O.co2     1 GTP501      0.0000 
      8 O2B        49.2540   96.0110   68.2620 O.co2     1 GTP501      0.0000 
      9 O3A        49.0580   93.5280   68.6080 O.3       1 GTP501      0.0000 
     10 PA         50.3110   92.8970   67.8580 P.3       1 GTP501      0.0000 
     11 O1A        50.4340   93.5710   66.5030 O.co2     1 GTP501      0.0000 
     12 O2A        51.5300   93.1390   68.6520 O.co2     1 GTP501      0.0000 
     13 O5'        50.0090   91.3630   67.6070 O.3       1 GTP501      0.0000 
     14 C5'        50.8340   90.2880   68.0950 C.3       1 GTP501      0.0000 
     15 C4'        51.1580   89.3710   66.9470 C.3       1 GTP501      0.0000 
     16 O4'        52.0460   90.0390   66.0240 O.3       1 GTP501      0.0000 
     17 C3'        51.8470   88.0630   67.3310 C.3       1 GTP501      0.0000 
     18 O3'        51.3520   87.0000   66.5270 O.3       1 GTP501      0.0000 
     19 C2'        53.3160   88.3550   67.0270 C.3       1 GTP501      0.0000 
     20 O2'        54.0340   87.1680   66.7170 O.3       1 GTP501      0.0000 
     21 C1'        53.1740   89.2230   65.7850 C.3       1 GTP501      0.0000 
     22 N9         54.3290   90.0900   65.5220 N.pl3     1 GTP501      0.0000 
     23 C8         54.6990   91.2120   66.2100 C.2       1 GTP501      0.0000 
     24 N7         55.7700   91.7900   65.7220 N.2       1 GTP501      0.0000 
     25 C5         56.1290   90.9900   64.6510 C.2       1 GTP501      0.0000 
     26 C6         57.2320   91.0700   63.7530 C.2       1 GTP501      0.0000 
     27 O6         58.1310   91.9050   63.7550 O.2       1 GTP501      0.0000 
     28 N1         57.2370   90.0390   62.8390 N.am      1 GTP501      0.0000 
     29 C2         56.3060   89.0410   62.7750 C.2       1 GTP501      0.0000 
     30 N2         56.4500   88.1400   61.8040 N.pl3     1 GTP501      0.0000 
     31 N3         55.2770   88.9490   63.6120 N.2       1 GTP501      0.0000 
     32 C4         55.2500   89.9440   64.5150 C.2       1 GTP501      0.0000 
@<TRIPOS>BOND
     1    1    2 ar   
     2    1    3 ar   
     3    1    4 ar   
     4    1    5 1    
     5    5    6 1    
     6    6    7 ar   
     7    6    8 ar   
     8    6    9 1    
     9    9   10 1    
    10   10   11 ar   
    11   10   12 ar   
    12   10   13 1    
    13   13   14 1    
    14   14   15 1    
    15   15   16 1    
    16   15   17 1    
    17   16   21 1    
    18   17   18 1    
    19   17   19 1    
    20   19   20 1    
    21   19   21 1    
    22   21   22 1    
    23   22   23 1    
    24   22   32 1    
    25   23   24 2    
    26   24   25 1    
    27   25   26 1    
    28   25   32 2    
    29   26   27 2    
    30   26   28 am   
    31   28   29 1    
    32   29   30 1    
    33   29   31 2    
    34   31   32 1    
@<TRIPOS>SUBSTRUCTURE
     1 GTP501      1 GROUP   
@<TRIPOS>SET
ATOM$ORANGE STATIC     ATOMS   COLORGROUP SYSTEM 
20 14 14 15 15 17 17 19 19 21 21 23 23 25 25 26 26 29 \
29 32 32 

