#    Name: 6evx_10_GTP
#    Modification time : Fri May 22 19:32:35 2020

@<TRIPOS>MOLECULE
6evx_10_GTP
   32    34     1     0     1
SMALL
NO_CHARGES


@<TRIPOS>ATOM
      1 PG         44.7240  149.7660   80.5740 P.3       1 GTP501      0.0000 
      2 O1G        46.2140  149.7710   80.2400 O.co2     1 GTP501      0.0000 
      3 O2G        44.3740  148.8160   81.6510 O.co2     1 GTP501      0.0000 
      4 O3G        44.2690  151.1920   80.8570 O.co2     1 GTP501      0.0000 
      5 O3B        43.9990  149.3520   79.2210 O.3       1 GTP501      0.0000 
      6 PB         44.6210  148.7780   77.8750 P.3       1 GTP501      0.0000 
      7 O1B        43.7210  149.1600   76.7130 O.co2     1 GTP501      0.0000 
      8 O2B        45.9880  149.3020   77.6870 O.co2     1 GTP501      0.0000 
      9 O3A        44.6600  147.1950   78.0350 O.3       1 GTP501      0.0000 
     10 PA         45.4760  146.0530   77.2850 P.3       1 GTP501      0.0000 
     11 O1A        45.8980  146.5930   75.9300 O.co2     1 GTP501      0.0000 
     12 O2A        46.6680  145.7020   78.0790 O.co2     1 GTP501      0.0000 
     13 O5'        44.4960  144.8350   77.0340 O.3       1 GTP501      0.0000 
     14 C5'        44.7270  143.5000   77.5240 C.3       1 GTP501      0.0000 
     15 C4'        44.5870  142.5370   76.3750 C.3       1 GTP501      0.0000 
     16 O4'        45.6840  142.7160   75.4520 O.3       1 GTP501      0.0000 
     17 C3'        44.5900  141.0590   76.7610 C.3       1 GTP501      0.0000 
     18 O3'        43.6570  140.3480   75.9570 O.3       1 GTP501      0.0000 
     19 C2'        46.0260  140.6350   76.4570 C.3       1 GTP501      0.0000 
     20 O2'        46.1110  139.2500   76.1470 O.3       1 GTP501      0.0000 
     21 C1'        46.3030  141.4690   75.2140 C.3       1 GTP501      0.0000 
     22 N9         47.7290  141.7000   74.9510 N.pl3     1 GTP501      0.0000 
     23 C8         48.5780  142.5220   75.6390 C.2       1 GTP501      0.0000 
     24 N7         49.7950  142.5350   75.1500 N.2       1 GTP501      0.0000 
     25 C5         49.7420  141.6600   74.0800 C.2       1 GTP501      0.0000 
     26 C6         50.7540  141.2170   73.1820 C.2       1 GTP501      0.0000 
     27 O6         51.9390  141.5390   73.1830 O.2       1 GTP501      0.0000 
     28 N1         50.2800  140.3020   72.2680 N.am      1 GTP501      0.0000 
     29 C2         48.9920  139.8510   72.2040 C.2       1 GTP501      0.0000 
     30 N2         48.7010  138.9850   71.2340 N.pl3     1 GTP501      0.0000 
     31 N3         48.0390  140.2480   73.0410 N.2       1 GTP501      0.0000 
     32 C4         48.4760  141.1420   73.9440 C.2       1 GTP501      0.0000 
@<TRIPOS>BOND
     1    1    2 ar   
     2    1    3 ar   
     3    1    4 ar   
     4    1    5 1    
     5    5    6 1    
     6    6    7 ar   
     7    6    8 ar   
     8    6    9 1    
     9    9   10 1    
    10   10   11 ar   
    11   10   12 ar   
    12   10   13 1    
    13   13   14 1    
    14   14   15 1    
    15   15   16 1    
    16   15   17 1    
    17   16   21 1    
    18   17   18 1    
    19   17   19 1    
    20   19   20 1    
    21   19   21 1    
    22   21   22 1    
    23   22   23 1    
    24   22   32 1    
    25   23   24 2    
    26   24   25 1    
    27   25   26 1    
    28   25   32 2    
    29   26   27 2    
    30   26   28 am   
    31   28   29 1    
    32   29   30 1    
    33   29   31 2    
    34   31   32 1    
@<TRIPOS>SUBSTRUCTURE
     1 GTP501      1 GROUP   
@<TRIPOS>SET
ATOM$ORANGE STATIC     ATOMS   COLORGROUP SYSTEM 
20 14 14 15 15 17 17 19 19 21 21 23 23 25 25 26 26 29 \
29 32 32 

