#    Name: 6evx_12_GTP
#    Modification time : Fri May 22 19:33:02 2020

@<TRIPOS>MOLECULE
6evx_12_GTP
   32    34     1     0     1
SMALL
NO_CHARGES


@<TRIPOS>ATOM
      1 PG         75.7990   49.5980   61.7450 P.3       1 GTP501      0.0000 
      2 O1G        76.6420   50.8260   61.4110 O.co2     1 GTP501      0.0000 
      3 O2G        76.3810   48.7700   62.8230 O.co2     1 GTP501      0.0000 
      4 O3G        74.3670   50.0340   62.0270 O.co2     1 GTP501      0.0000 
      5 O3B        75.7290   48.7650   60.3920 O.3       1 GTP501      0.0000 
      6 PB         76.5550   48.9510   59.0470 P.3       1 GTP501      0.0000 
      7 O1B        75.7300   48.4260   57.8850 O.co2     1 GTP501      0.0000 
      8 O2B        76.9010   50.3730   58.8590 O.co2     1 GTP501      0.0000 
      9 O3A        77.8800   48.0830   59.2080 O.3       1 GTP501      0.0000 
     10 PA         79.2840   48.1050   58.4590 P.3       1 GTP501      0.0000 
     11 O1A        79.0800   48.7580   57.1030 O.co2     1 GTP501      0.0000 
     12 O2A        80.2500   48.8870   59.2530 O.co2     1 GTP501      0.0000 
     13 O5'        79.7290   46.6070   58.2100 O.3       1 GTP501      0.0000 
     14 C5'        80.9580   46.0380   58.7000 C.3       1 GTP501      0.0000 
     15 C4'        81.6720   45.3750   57.5530 C.3       1 GTP501      0.0000 
     16 O4'        82.1490   46.3790   56.6290 O.3       1 GTP501      0.0000 
     17 C3'        82.8900   44.5370   57.9390 C.3       1 GTP501      0.0000 
     18 O3'        82.9450   43.3660   57.1360 O.3       1 GTP501      0.0000 
     19 C2'        84.0550   45.4780   57.6350 C.3       1 GTP501      0.0000 
     20 O2'        85.2430   44.7610   57.3270 O.3       1 GTP501      0.0000 
     21 C1'        83.5270   46.1790   56.3920 C.3       1 GTP501      0.0000 
     22 N9         84.1480   47.4840   56.1290 N.pl3     1 GTP501      0.0000 
     23 C8         83.9530   48.6500   56.8160 C.2       1 GTP501      0.0000 
     24 N7         84.6340   49.6590   56.3270 N.2       1 GTP501      0.0000 
     25 C5         85.3250   49.1170   55.2570 C.2       1 GTP501      0.0000 
     26 C6         86.2650   49.6980   54.3600 C.2       1 GTP501      0.0000 
     27 O6         86.6730   50.8550   54.3610 O.2       1 GTP501      0.0000 
     28 N1         86.7500   48.7870   53.4470 N.am      1 GTP501      0.0000 
     29 C2         86.3880   47.4710   53.3840 C.2       1 GTP501      0.0000 
     30 N2         86.9360   46.7390   52.4140 N.pl3     1 GTP501      0.0000 
     31 N3         85.5190   46.9120   54.2200 N.2       1 GTP501      0.0000 
     32 C4         85.0320   47.7810   55.1220 C.2       1 GTP501      0.0000 
@<TRIPOS>BOND
     1    1    2 ar   
     2    1    3 ar   
     3    1    4 ar   
     4    1    5 1    
     5    5    6 1    
     6    6    7 ar   
     7    6    8 ar   
     8    6    9 1    
     9    9   10 1    
    10   10   11 ar   
    11   10   12 ar   
    12   10   13 1    
    13   13   14 1    
    14   14   15 1    
    15   15   16 1    
    16   15   17 1    
    17   16   21 1    
    18   17   18 1    
    19   17   19 1    
    20   19   20 1    
    21   19   21 1    
    22   21   22 1    
    23   22   23 1    
    24   22   32 1    
    25   23   24 2    
    26   24   25 1    
    27   25   26 1    
    28   25   32 2    
    29   26   27 2    
    30   26   28 am   
    31   28   29 1    
    32   29   30 1    
    33   29   31 2    
    34   31   32 1    
@<TRIPOS>SUBSTRUCTURE
     1 GTP501      1 GROUP   
@<TRIPOS>SET
ATOM$ORANGE STATIC     ATOMS   COLORGROUP SYSTEM 
20 14 14 15 15 17 17 19 19 21 21 23 23 25 25 26 26 29 \
29 32 32 

