#    Name: 6nni_1_CP6
#    Modification time : Fri May 22 19:32:06 2020

@<TRIPOS>MOLECULE
6nni_1_CP6
   17    18     1     0     0
SMALL
NO_CHARGES


@<TRIPOS>ATOM
      1 N1         10.7840    2.7110   25.3790 N.ar      1 CP6203      0.0000 
      2 C2         11.1380    2.2020   26.5400 C.ar      1 CP6203      0.0000 
      3 C3          9.9110    3.7060   25.3270 C.ar      1 CP6203      0.0000 
      4 C4          9.3630    4.2340   26.5030 C.ar      1 CP6203      0.0000 
      5 C5          9.7710    3.6500   27.6890 C.ar      1 CP6203      0.0000 
      6 N6         10.6320    2.6520   27.6650 N.ar      1 CP6203      0.0000 
      7 C7          8.4650    5.3170   26.4700 C.ar      1 CP6203      0.0000 
      8 C8          8.9910    6.5920   26.2860 C.ar      1 CP6203      0.0000 
      9 C9          8.1710    7.7160   26.2360 C.ar      1 CP6203      0.0000 
     10 C10         6.8020    7.5530   26.3710 C.ar      1 CP6203      0.0000 
     11 C11         6.2620    6.2940   26.5640 C.ar      1 CP6203      0.0000 
     12 C12         7.0920    5.1790   26.6250 C.ar      1 CP6203      0.0000 
     13 N13         9.5470    4.2330   24.0520 N.pl3     1 CP6203      0.0000 
     14 N14        12.0790    1.1250   26.5940 N.pl3     1 CP6203      0.0000 
     15 C15         9.2940    4.0950   29.0570 C.3       1 CP6203      0.0000 
     16 C16        10.4930    4.6850   29.8110 C.3       1 CP6203      0.0000 
     17 CL1         5.7560    8.9930   26.3260 Cl        1 CP6203      0.0000 
@<TRIPOS>BOND
     1    1    2 ar   
     2    1    3 ar   
     3    2    6 ar   
     4    2   14 1    
     5    3    4 ar   
     6    3   13 1    
     7    4    5 ar   
     8    4    7 1    
     9    5    6 ar   
    10    5   15 1    
    11    7    8 ar   
    12    7   12 ar   
    13    8    9 ar   
    14    9   10 ar   
    15   10   11 ar   
    16   10   17 1    
    17   11   12 ar   
    18   15   16 1    
@<TRIPOS>SUBSTRUCTURE
     1 CP6203      1 GROUP   
@<TRIPOS>SET

