#    Name: 6nni_1_CP6_CAVITY_N1_4
#    Modification time : Fri May 22 19:32:07 2020

@<TRIPOS>MOLECULE
6nni_1_CP6_CAVITY_N1_4
   56     0     5     0     0
SMALL
NO_CHARGES


@<TRIPOS>ATOM
      1 N           7.9600    5.8700   24.8100 N.am      1 ALA2        0.0000 
      2 N           7.2000    6.9000   25.5900 N.am      1 ALA2        0.0000 
      3 N           7.8800    4.9200   25.9700 N.am      1 ALA2        0.0000 
      4 O          10.6000    2.4500   26.0900 O.2       1 ALA2        0.0000 
      5 NZ          9.7600    2.5300   28.0300 N.4       2 LYS4        0.0000 
      6 NZ          9.0000    3.5600   28.8200 N.4       2 LYS4        0.0000 
      7 NZ         10.2900    4.1000   29.3600 N.4       2 LYS4        0.0000 
      8 CZ          9.2500    6.4100   25.3400 C.ar      3 PHE5        0.0000 
      9 CZ          8.5000    7.4400   26.1300 C.ar      3 PHE5        0.0000 
     10 CZ          9.9300    4.4300   25.7100 C.ar      3 PHE5        0.0000 
     11 CZ          9.1700    5.4600   26.5000 C.ar      3 PHE5        0.0000 
     12 CZ          9.7900    7.9800   26.6700 C.ar      3 PHE5        0.0000 
     13 CZ         10.4600    6.0000   27.0400 C.ar      3 PHE5        0.0000 
     14 CZ          9.7000    7.0300   27.8300 C.ar      3 PHE5        0.0000 
     15 CZ         10.3800    5.0500   28.2000 C.ar      3 PHE5        0.0000 
     16 CZ         10.3200    9.5500   27.9900 C.ar      3 PHE5        0.0000 
     17 CZ         10.2400    8.6000   29.1500 C.ar      3 PHE5        0.0000 
     18 CA          7.2900    7.8400   24.4400 C.3       4 GLY6        0.0000 
     19 CA          6.5300    8.8700   25.2200 C.3       4 GLY6        0.0000 
     20 CA          6.4500    7.9200   26.3800 C.3       4 GLY6        0.0000 
     21 CA          5.6900    8.9500   27.1700 C.3       4 GLY6        0.0000 
     22 CA          7.7900    3.9700   27.1200 C.3       4 GLY6        0.0000 
     23 CA          7.0400    5.0000   27.9100 C.3       4 GLY6        0.0000 
     24 CA          6.2800    6.0300   28.7000 C.3       4 GLY6        0.0000 
     25 CA          7.7100    3.0200   28.2800 C.3       4 GLY6        0.0000 
     26 CA          8.5800    8.3900   24.9700 C.3       4 GLY6        0.0000 
     27 CA          7.8200    9.4100   25.7600 C.3       4 GLY6        0.0000 
     28 CA          6.9800    9.4900   27.7100 C.3       4 GLY6        0.0000 
     29 CA          6.9000    8.5400   28.8600 C.3       4 GLY6        0.0000 
     30 CA          6.1400    9.5700   29.6500 C.3       4 GLY6        0.0000 
     31 CA          8.2400    4.5900   29.6100 C.3       4 GLY6        0.0000 
     32 CA          9.0300    9.0100   27.4500 C.3       4 GLY6        0.0000 
     33 CA          8.2700   10.0300   28.2400 C.3       4 GLY6        0.0000 
     34 CA          8.1900    9.0800   29.4000 C.3       4 GLY6        0.0000 
     35 CA         11.1300    4.0200   27.4100 C.3       4 GLY6        0.0000 
     36 CA         11.6700    5.5900   28.7300 C.3       4 GLY6        0.0000 
     37 CA         10.9100    6.6200   29.5200 C.3       4 GLY6        0.0000 
     38 CA         10.1600    7.6500   30.3100 C.3       4 GLY6        0.0000 
     39 CA         11.5900    4.6400   29.8900 C.3       4 GLY6        0.0000 
     40 CA         10.8300    5.6700   30.6800 C.3       4 GLY6        0.0000 
     41 CA         10.0700    6.7000   31.4700 C.3       4 GLY6        0.0000 
     42 DU          7.1200    5.9500   26.7500 H         5 CUB7        0.0000 
     43 DU          6.3600    6.9700   27.5400 H         5 CUB7        0.0000 
     44 DU          7.7400    8.4600   26.9200 H         5 CUB7        0.0000 
     45 DU          8.4100    6.4900   27.2900 H         5 CUB7        0.0000 
     46 DU          7.6600    7.5200   28.0800 H         5 CUB7        0.0000 
     47 DU          9.8400    3.4800   26.8700 H         5 CUB7        0.0000 
     48 DU          9.0900    4.5100   27.6600 H         5 CUB7        0.0000 
     49 DU          8.3300    5.5400   28.4500 H         5 CUB7        0.0000 
     50 DU          7.5700    6.5700   29.2400 H         5 CUB7        0.0000 
     51 DU          6.8100    7.5900   30.0200 H         5 CUB7        0.0000 
     52 DU          8.9500    8.0600   28.6100 H         5 CUB7        0.0000 
     53 DU          9.6200    6.0800   28.9800 H         5 CUB7        0.0000 
     54 DU          8.8600    7.1100   29.7700 H         5 CUB7        0.0000 
     55 DU          9.5400    5.1300   30.1400 H         5 CUB7        0.0000 
     56 DU          8.7800    6.1600   30.9300 H         5 CUB7        0.0000 
@<TRIPOS>BOND
@<TRIPOS>SUBSTRUCTURE
     1 ALA2        1 GROUP   
     2 LYS4        5 GROUP   
     3 PHE5        8 GROUP   
     4 GLY6       18 GROUP   
     5 CUB7       42 GROUP   
@<TRIPOS>SET

