#    Name: 6nni_2_CP6
#    Modification time : Fri May 22 19:32:09 2020

@<TRIPOS>MOLECULE
6nni_2_CP6
   17    18     1     0     0
SMALL
NO_CHARGES


@<TRIPOS>ATOM
      1 N1         34.5000   -6.4590   13.7590 N.ar      1 CP6203      0.0000 
      2 C2         34.0760   -7.6560   14.0950 C.ar      1 CP6203      0.0000 
      3 C3         35.3620   -6.3300   12.7550 C.ar      1 CP6203      0.0000 
      4 C4         35.8270   -7.4430   12.0550 C.ar      1 CP6203      0.0000 
      5 C5         35.3370   -8.6770   12.4500 C.ar      1 CP6203      0.0000 
      6 N6         34.4950   -8.7330   13.4690 N.ar      1 CP6203      0.0000 
      7 C7         36.7190   -7.3180   10.9610 C.ar      1 CP6203      0.0000 
      8 C8         38.0850   -7.5560   11.0390 C.ar      1 CP6203      0.0000 
      9 C9         38.9120   -7.4230    9.9190 C.ar      1 CP6203      0.0000 
     10 C10        38.3520   -7.0540    8.7050 C.ar      1 CP6203      0.0000 
     11 C11        36.9910   -6.8150    8.6080 C.ar      1 CP6203      0.0000 
     12 C12        36.1850   -6.9510    9.7300 C.ar      1 CP6203      0.0000 
     13 N13        35.8080   -5.0070   12.4120 N.pl3     1 CP6203      0.0000 
     14 N14        33.1340   -7.8070   15.1660 N.pl3     1 CP6203      0.0000 
     15 C15        35.7410   -9.9810   11.7860 C.3       1 CP6203      0.0000 
     16 C16        34.5560  -10.5800   11.0330 C.3       1 CP6203      0.0000 
     17 CL1        39.3760   -6.8810    7.2490 Cl        1 CP6203      0.0000 
@<TRIPOS>BOND
     1    1    2 ar   
     2    1    3 ar   
     3    2    6 ar   
     4    2   14 1    
     5    3    4 ar   
     6    3   13 1    
     7    4    5 ar   
     8    4    7 1    
     9    5    6 ar   
    10    5   15 1    
    11    7    8 ar   
    12    7   12 ar   
    13    8    9 ar   
    14    9   10 ar   
    15   10   11 ar   
    16   10   17 1    
    17   11   12 ar   
    18   15   16 1    
@<TRIPOS>SUBSTRUCTURE
     1 CP6203      1 GROUP   
@<TRIPOS>SET

