#    Name: 6nni_2_CP6_CAVITY_N1_4
#    Modification time : Fri May 22 19:32:10 2020

@<TRIPOS>MOLECULE
6nni_2_CP6_CAVITY_N1_4
   62     0     6     0     0
SMALL
NO_CHARGES


@<TRIPOS>ATOM
      1 OG         39.9200   -8.0300    7.9600 O.3       1 SER1        0.0000 
      2 N          35.7900  -12.5000    9.8300 N.am      2 ALA2        0.0000 
      3 N          38.4100   -5.9800    9.5400 N.am      2 ALA2        0.0000 
      4 N          38.3200   -6.9300   10.7000 N.am      2 ALA2        0.0000 
      5 N          37.5700   -5.9000   11.4800 N.am      2 ALA2        0.0000 
      6 NZ         34.2800  -10.4500   11.4000 N.4       3 LYS4        0.0000 
      7 NZ         35.5700   -9.9100   11.9400 N.4       3 LYS4        0.0000 
      8 NZ         34.8200   -8.8800   12.7300 N.4       3 LYS4        0.0000 
      9 NZ         34.0600   -7.8500   13.5200 N.4       3 LYS4        0.0000 
     10 NZ         36.2500  -11.8800   12.3100 N.4       3 LYS4        0.0000 
     11 NZ         36.1100   -8.3400   13.2600 N.4       3 LYS4        0.0000 
     12 CZ         33.9100  -10.1200    7.7600 C.ar      4 PHE5        0.0000 
     13 CZ         33.0700  -10.0400    9.7100 C.ar      4 PHE5        0.0000 
     14 CZ         35.2900   -8.6300    7.1400 C.ar      4 PHE5        0.0000 
     15 CZ         35.2000   -9.5800    8.3000 C.ar      4 PHE5        0.0000 
     16 CZ         34.4500   -8.5500    9.0900 C.ar      4 PHE5        0.0000 
     17 CZ         34.3600   -9.5000   10.2500 C.ar      4 PHE5        0.0000 
     18 CZ         35.8200   -7.0600    8.4600 C.ar      4 PHE5        0.0000 
     19 CZ         35.7400   -8.0100    9.6200 C.ar      4 PHE5        0.0000 
     20 CZ         34.9800   -6.9800   10.4100 C.ar      4 PHE5        0.0000 
     21 CZ         34.9000   -7.9300   11.5700 C.ar      4 PHE5        0.0000 
     22 CZ         36.3600   -5.4900    9.7900 C.ar      4 PHE5        0.0000 
     23 CZ         36.2800   -6.4400   10.9500 C.ar      4 PHE5        0.0000 
     24 CZ         35.4300   -6.3600   12.8900 C.ar      4 PHE5        0.0000 
     25 CA         34.5900  -12.0900    8.1300 C.3       5 GLY6        0.0000 
     26 CA         33.8300  -11.0700    8.9200 C.3       5 GLY6        0.0000 
     27 CA         36.1300   -8.7100    5.2000 C.3       5 GLY6        0.0000 
     28 CA         36.0500   -9.6600    6.3500 C.3       5 GLY6        0.0000 
     29 CA         35.1200  -10.5300    9.4600 C.3       5 GLY6        0.0000 
     30 CA         35.0400  -11.4700   10.6200 C.3       5 GLY6        0.0000 
     31 CA         36.6600   -7.1400    6.5200 C.3       5 GLY6        0.0000 
     32 CA         35.9100   -6.1100    7.3100 C.3       5 GLY6        0.0000 
     33 CA         38.0900  -10.1400    6.1000 C.3       5 GLY6        0.0000 
     34 CA         37.3400   -9.1100    6.8900 C.3       5 GLY6        0.0000 
     35 CA         37.0900  -11.9600   10.3700 C.3       5 GLY6        0.0000 
     36 CA         36.3300  -10.9300   11.1500 C.3       5 GLY6        0.0000 
     37 CA         37.9600   -6.6000    7.0600 C.3       5 GLY6        0.0000 
     38 CA         37.2000   -5.5700    7.8400 C.3       5 GLY6        0.0000 
     39 CA         38.6300   -8.5700    7.4300 C.3       5 GLY6        0.0000 
     40 CA         37.1200   -6.5200    9.0000 C.3       5 GLY6        0.0000 
     41 CA         38.4600  -10.4700    9.7400 C.3       5 GLY6        0.0000 
     42 CA         37.7100   -9.4400   10.5300 C.3       5 GLY6        0.0000 
     43 CA         36.9500   -8.4200   11.3200 C.3       5 GLY6        0.0000 
     44 CA         36.8600   -9.3600   12.4800 C.3       5 GLY6        0.0000 
     45 CA         39.2500   -6.0600    7.5900 C.3       5 GLY6        0.0000 
     46 CA         38.4900   -5.0300    8.3800 C.3       5 GLY6        0.0000 
     47 CA         39.1700   -7.0100    8.7500 C.3       5 GLY6        0.0000 
     48 CA         39.0800   -7.9500    9.9100 C.3       5 GLY6        0.0000 
     49 CA         38.2400   -7.8800   11.8500 C.3       5 GLY6        0.0000 
     50 DU         35.9600  -10.6000    7.5100 H         6 CUB7        0.0000 
     51 DU         35.8800  -11.5500    8.6700 H         6 CUB7        0.0000 
     52 DU         36.5800   -8.0900    7.6800 H         6 CUB7        0.0000 
     53 DU         37.2500  -10.0600    8.0500 H         6 CUB7        0.0000 
     54 DU         36.5000   -9.0400    8.8400 H         6 CUB7        0.0000 
     55 DU         37.1700  -11.0100    9.2100 H         6 CUB7        0.0000 
     56 DU         36.4100   -9.9800    9.9900 H         6 CUB7        0.0000 
     57 DU         35.6600   -8.9600   10.7800 H         6 CUB7        0.0000 
     58 DU         37.8700   -7.5500    8.2100 H         6 CUB7        0.0000 
     59 DU         38.5500   -9.5200    8.5900 H         6 CUB7        0.0000 
     60 DU         37.7900   -8.4900    9.3700 H         6 CUB7        0.0000 
     61 DU         37.0300   -7.4700   10.1600 H         6 CUB7        0.0000 
     62 DU         36.1900   -7.3900   12.1100 H         6 CUB7        0.0000 
@<TRIPOS>BOND
@<TRIPOS>SUBSTRUCTURE
     1 SER1        1 GROUP   
     2 ALA2        2 GROUP   
     3 LYS4        6 GROUP   
     4 PHE5       12 GROUP   
     5 GLY6       25 GROUP   
     6 CUB7       50 GROUP   
@<TRIPOS>SET

