#    Name: 6nne_2_NDP
#    Modification time : Fri May 22 19:31:39 2020

@<TRIPOS>MOLECULE
6nne_2_NDP
   48    52     1     0     1
SMALL
NO_CHARGES


@<TRIPOS>ATOM
      1 PA         46.0140   -0.6700   10.5930 P.3       1 NDP202      0.0000 
      2 O1A        45.0960   -1.6080    9.8730 O.co2     1 NDP202      0.0000 
      3 O2A        45.4930    0.2470   11.6600 O.co2     1 NDP202      0.0000 
      4 O5B        46.6780    0.1960    9.3550 O.3       1 NDP202      0.0000 
      5 C5B        47.7680    0.9730    9.8290 C.3       1 NDP202      0.0000 
      6 C4B        48.1080    1.8860    8.6130 C.3       1 NDP202      0.0000 
      7 O4B        47.0760    2.8520    8.4580 O.3       1 NDP202      0.0000 
      8 C3B        49.4310    2.6750    8.7190 C.3       1 NDP202      0.0000 
      9 O3B        50.5340    1.8790    8.3580 O.3       1 NDP202      0.0000 
     10 C2B        49.1750    3.7310    7.6210 C.3       1 NDP202      0.0000 
     11 O2B        49.1440    3.2390    6.3810 O.3       1 NDP202      0.0000 
     12 C1B        47.6900    4.0720    7.9600 C.3       1 NDP202      0.0000 
     13 N9A        47.5760    5.1140    8.9740 N.pl3     1 NDP202      0.0000 
     14 C8A        47.7140    5.0050   10.3660 C.2       1 NDP202      0.0000 
     15 N7A        47.5510    6.1850   11.0010 N.2       1 NDP202      0.0000 
     16 C5A        47.3030    7.0990    9.9560 C.ar      1 NDP202      0.0000 
     17 C6A        47.0580    8.4840    9.9480 C.ar      1 NDP202      0.0000 
     18 N6A        47.0280    9.1910   11.1240 N.pl3     1 NDP202      0.0000 
     19 N1A        46.8310    9.1720    8.7870 N.ar      1 NDP202      0.0000 
     20 C2A        46.8860    8.4030    7.6550 C.ar      1 NDP202      0.0000 
     21 N3A        47.1090    7.0930    7.4980 N.ar      1 NDP202      0.0000 
     22 C4A        47.3150    6.4440    8.6970 C.ar      1 NDP202      0.0000 
     23 O3         47.3500   -1.5830   11.0910 O.3       1 NDP202      0.0000 
     24 PN         47.4320   -2.3250   12.5330 P.3       1 NDP202      0.0000 
     25 O1N        48.6580   -3.1360   12.3650 O.co2     1 NDP202      0.0000 
     26 O2N        47.2580   -1.4950   13.7850 O.co2     1 NDP202      0.0000 
     27 O5D        46.1380   -3.4610   12.6200 O.3       1 NDP202      0.0000 
     28 C5D        46.3160   -4.4960   11.6980 C.3       1 NDP202      0.0000 
     29 C4D        45.9340   -5.8050   12.4210 C.3       1 NDP202      0.0000 
     30 O4D        44.5890   -5.7180   12.9460 O.3       1 NDP202      0.0000 
     31 C3D        45.9690   -7.0340   11.4780 C.3       1 NDP202      0.0000 
     32 O3D        46.5870   -8.0740   12.2130 O.3       1 NDP202      0.0000 
     33 C2D        44.5090   -7.3890   11.2940 C.3       1 NDP202      0.0000 
     34 O2D        44.3290   -8.7780   11.1340 O.3       1 NDP202      0.0000 
     35 C1D        43.9450   -6.9400   12.6850 C.3       1 NDP202      0.0000 
     36 N1N        42.4750   -6.6840   12.6320 N.pl3     1 NDP202      0.0000 
     37 C2N        41.6550   -7.2930   13.5650 C.2       1 NDP202      0.0000 
     38 C3N        40.3370   -6.9820   13.6140 C.2       1 NDP202      0.0000 
     39 C7N        39.5040   -7.6230   14.6210 C.2       1 NDP202      0.0000 
     40 O7N        38.3210   -7.2810   14.8320 O.2       1 NDP202      0.0000 
     41 N7N        40.0190   -8.6410   15.3750 N.am      1 NDP202      0.0000 
     42 C4N        39.7000   -5.9950   12.6900 C.3       1 NDP202      0.0000 
     43 C5N        40.6330   -5.4910   11.6620 C.2       1 NDP202      0.0000 
     44 C6N        41.9330   -5.8170   11.6560 C.2       1 NDP202      0.0000 
     45 P2B        50.6670    3.4100    5.4350 P.3       1 NDP202      0.0000 
     46 O1X        50.8730    4.8850    5.5880 O.co2     1 NDP202      0.0000 
     47 O2X        51.6230    2.4810    6.1870 O.co2     1 NDP202      0.0000 
     48 O3X        50.1360    2.9200    4.1200 O.co2     1 NDP202      0.0000 
@<TRIPOS>BOND
     1    1    2 ar   
     2    1    3 ar   
     3    1    4 1    
     4    1   23 1    
     5    4    5 1    
     6    5    6 1    
     7    6    7 1    
     8    6    8 1    
     9    7   12 1    
    10    8    9 1    
    11    8   10 1    
    12   10   11 1    
    13   10   12 1    
    14   11   45 1    
    15   12   13 1    
    16   13   14 1    
    17   13   22 1    
    18   14   15 2    
    19   15   16 1    
    20   16   17 ar   
    21   16   22 ar   
    22   17   18 1    
    23   17   19 ar   
    24   19   20 ar   
    25   20   21 ar   
    26   21   22 ar   
    27   23   24 1    
    28   24   25 ar   
    29   24   26 ar   
    30   24   27 1    
    31   27   28 1    
    32   28   29 1    
    33   29   30 1    
    34   29   31 1    
    35   30   35 1    
    36   31   32 1    
    37   31   33 1    
    38   33   34 1    
    39   33   35 1    
    40   35   36 1    
    41   36   37 1    
    42   36   44 1    
    43   37   38 2    
    44   38   39 1    
    45   38   42 1    
    46   39   40 2    
    47   39   41 am   
    48   42   43 1    
    49   43   44 2    
    50   45   46 ar   
    51   45   47 ar   
    52   45   48 ar   
@<TRIPOS>SUBSTRUCTURE
     1 NDP202      1 GROUP   
@<TRIPOS>SET
ATOM$ORANGE STATIC     ATOMS   COLORGROUP SYSTEM 
42 5 5 6 6 8 8 10 10 12 12 14 14 16 16 17 17 20 \
20 22 22 28 28 29 29 31 31 33 33 35 35 37 37 38 38 39 \
39 42 42 43 43 44 44 

