#    Name: 6mp4_2_TCI
#    Modification time : Fri May 22 19:25:19 2020

@<TRIPOS>MOLECULE
6mp4_2_TCI
   23    25     1     0     0
SMALL
NO_CHARGES


@<TRIPOS>ATOM
      1 C1         20.9700  -35.3980  -22.6670 C.ar      1 TCI201      0.0000 
      2 O1         22.0060  -36.4000  -20.7960 O.3       1 TCI201      0.0000 
      3 C2         20.1680  -34.4360  -23.2550 C.ar      1 TCI201      0.0000 
      4 O2         20.2710  -31.9180  -20.7110 O.3       1 TCI201      0.0000 
      5 C3         20.2900  -33.1640  -22.7290 C.ar      1 TCI201      0.0000 
      6 C4         20.8150  -32.9670  -21.4620 C.ar      1 TCI201      0.0000 
      7 C5         21.4860  -33.9720  -20.7780 C.ar      1 TCI201      0.0000 
      8 C6         21.3690  -35.2320  -21.3490 C.ar      1 TCI201      0.0000 
      9 C7         22.5930  -33.7800  -19.7460 C.3       1 TCI201      0.0000 
     10 C8         23.1560  -32.3720  -19.8410 C.2       1 TCI201      0.0000 
     11 C9         24.4520  -32.1720  -19.9410 C.2       1 TCI201      0.0000 
     12 C10        25.4540  -33.1380  -19.2100 C.3       1 TCI201      0.0000 
     13 C11        24.8430  -34.5830  -19.0640 C.3       1 TCI201      0.0000 
     14 C12        23.6830  -34.7750  -20.0460 C.3       1 TCI201      0.0000 
     15 C13        23.1600  -36.2180  -19.9420 C.3       1 TCI201      0.0000 
     16 C14        24.2670  -37.1660  -20.3950 C.3       1 TCI201      0.0000 
     17 C15        22.8050  -36.5360  -18.4950 C.3       1 TCI201      0.0000 
     18 C16        24.9850  -31.0550  -20.8350 C.3       1 TCI201      0.0000 
     19 C17        18.9590  -34.8290  -24.1030 C.3       1 TCI201      0.0000 
     20 C18        19.2470  -34.5470  -25.5760 C.3       1 TCI201      0.0000 
     21 C19        18.0660  -35.0100  -26.4270 C.3       1 TCI201      0.0000 
     22 C20        18.3440  -36.4060  -26.9800 C.3       1 TCI201      0.0000 
     23 C21        17.5430  -37.4430  -26.1970 C.3       1 TCI201      0.0000 
@<TRIPOS>BOND
     1    1    3 ar   
     2    1    8 ar   
     3    2    8 1    
     4    2   15 1    
     5    3    5 ar   
     6    3   19 1    
     7    4    6 1    
     8    5    6 ar   
     9    6    7 ar   
    10    7    8 ar   
    11    7    9 1    
    12    9   10 1    
    13    9   14 1    
    14   10   11 2    
    15   11   12 1    
    16   11   18 1    
    17   12   13 1    
    18   13   14 1    
    19   14   15 1    
    20   15   16 1    
    21   15   17 1    
    22   19   20 1    
    23   20   21 1    
    24   21   22 1    
    25   22   23 1    
@<TRIPOS>SUBSTRUCTURE
     1 TCI201      1 GROUP   
@<TRIPOS>SET

