#    Name: 6mp4_3_TCI
#    Modification time : Fri May 22 19:25:30 2020

@<TRIPOS>MOLECULE
6mp4_3_TCI
   23    25     1     0     0
SMALL
NO_CHARGES


@<TRIPOS>ATOM
      1 C1         15.6680    3.2340  -15.4210 C.ar      1 TCI201      0.0000 
      2 O1         14.6210    1.9180  -17.0810 O.3       1 TCI201      0.0000 
      3 C2         16.2900    4.3960  -15.0020 C.ar      1 TCI201      0.0000 
      4 O2         14.9120    6.7020  -17.4030 O.3       1 TCI201      0.0000 
      5 C3         15.7480    5.5720  -15.4870 C.ar      1 TCI201      0.0000 
      6 C4         14.9020    5.5660  -16.5840 C.ar      1 TCI201      0.0000 
      7 C5         14.3860    4.3920  -17.1140 C.ar      1 TCI201      0.0000 
      8 C6         14.9810    3.2370  -16.6250 C.ar      1 TCI201      0.0000 
      9 C7         13.0530    4.2430  -17.8410 C.3       1 TCI201      0.0000 
     10 C8         12.1240    5.3840  -17.4630 C.2       1 TCI201      0.0000 
     11 C9         10.8760    5.1450  -17.1220 C.2       1 TCI201      0.0000 
     12 C10        10.1030    3.9320  -17.7600 C.3       1 TCI201      0.0000 
     13 C11        11.0870    2.7590  -18.1330 C.3       1 TCI201      0.0000 
     14 C12        12.4300    2.9380  -17.4200 C.3       1 TCI201      0.0000 
     15 C13        13.3550    1.7590  -17.7620 C.3       1 TCI201      0.0000 
     16 C14        12.6930    0.4680  -17.2900 C.3       1 TCI201      0.0000 
     17 C15        13.5700    1.6910  -19.2680 C.3       1 TCI201      0.0000 
     18 C16        10.1960    6.0100  -16.0650 C.3       1 TCI201      0.0000 
     19 C17        17.6800    4.3640  -14.3680 C.3       1 TCI201      0.0000 
     20 C18        17.5550    4.3370  -12.8460 C.3       1 TCI201      0.0000 
     21 C19        18.9440    4.1590  -12.2360 C.3       1 TCI201      0.0000 
     22 C20        19.5180    2.8130  -12.6730 C.3       1 TCI201      0.0000 
     23 C21        20.9750    2.9930  -13.0950 C.3       1 TCI201      0.0000 
@<TRIPOS>BOND
     1    1    3 ar   
     2    1    8 ar   
     3    2    8 1    
     4    2   15 1    
     5    3    5 ar   
     6    3   19 1    
     7    4    6 1    
     8    5    6 ar   
     9    6    7 ar   
    10    7    8 ar   
    11    7    9 1    
    12    9   10 1    
    13    9   14 1    
    14   10   11 2    
    15   11   12 1    
    16   11   18 1    
    17   12   13 1    
    18   13   14 1    
    19   14   15 1    
    20   15   16 1    
    21   15   17 1    
    22   19   20 1    
    23   20   21 1    
    24   21   22 1    
    25   22   23 1    
@<TRIPOS>SUBSTRUCTURE
     1 TCI201      1 GROUP   
@<TRIPOS>SET

