#    Name: 6mp4_1_TCI
#    Modification time : Fri May 22 19:25:10 2020

@<TRIPOS>MOLECULE
6mp4_1_TCI
   23    25     1     0     0
SMALL
NO_CHARGES


@<TRIPOS>ATOM
      1 C1         14.9940  -35.8620    4.8180 C.ar      1 TCI202      0.0000 
      2 O1         13.8780  -35.2790    2.8120 O.3       1 TCI202      0.0000 
      3 C2         16.1750  -36.0830    5.5020 C.ar      1 TCI202      0.0000 
      4 O2         18.2790  -33.6780    3.8310 O.3       1 TCI202      0.0000 
      5 C3         17.1290  -35.0900    5.3640 C.ar      1 TCI202      0.0000 
      6 C4         17.0670  -34.1820    4.3200 C.ar      1 TCI202      0.0000 
      7 C5         15.9550  -34.0830    3.4980 C.ar      1 TCI202      0.0000 
      8 C6         15.0400  -35.1170    3.6510 C.ar      1 TCI202      0.0000 
      9 C7         15.5240  -32.8580    2.6970 C.3       1 TCI202      0.0000 
     10 C8         15.9640  -31.5820    3.3940 C.2       1 TCI202      0.0000 
     11 C9         15.1000  -30.6240    3.6650 C.2       1 TCI202      0.0000 
     12 C10        13.8750  -30.3670    2.7070 C.3       1 TCI202      0.0000 
     13 C11        13.5270  -31.6490    1.8600 C.3       1 TCI202      0.0000 
     14 C12        14.0230  -32.8820    2.6160 C.3       1 TCI202      0.0000 
     15 C13        13.5490  -34.1770    1.9380 C.3       1 TCI202      0.0000 
     16 C14        12.0390  -34.1170    1.7280 C.3       1 TCI202      0.0000 
     17 C15        14.2490  -34.3450    0.5980 C.3       1 TCI202      0.0000 
     18 C16        15.4480  -29.5870    4.7280 C.3       1 TCI202      0.0000 
     19 C17        16.5740  -37.4990    5.9130 C.3       1 TCI202      0.0000 
     20 C18        16.3870  -37.6770    7.4170 C.3       1 TCI202      0.0000 
     21 C19        16.5020  -39.1610    7.7560 C.3       1 TCI202      0.0000 
     22 C20        15.3440  -39.9160    7.1060 C.3       1 TCI202      0.0000 
     23 C21        15.8800  -41.1430    6.3720 C.3       1 TCI202      0.0000 
@<TRIPOS>BOND
     1    1    3 ar   
     2    1    8 ar   
     3    2    8 1    
     4    2   15 1    
     5    3    5 ar   
     6    3   19 1    
     7    4    6 1    
     8    5    6 ar   
     9    6    7 ar   
    10    7    8 ar   
    11    7    9 1    
    12    9   10 1    
    13    9   14 1    
    14   10   11 2    
    15   11   12 1    
    16   11   18 1    
    17   12   13 1    
    18   13   14 1    
    19   14   15 1    
    20   15   16 1    
    21   15   17 1    
    22   19   20 1    
    23   20   21 1    
    24   21   22 1    
    25   22   23 1    
@<TRIPOS>SUBSTRUCTURE
     1 TCI202      1 GROUP   
@<TRIPOS>SET

