#    Name: 6uv5_1_ACO
#    Modification time : Fri May 22 19:30:07 2020

@<TRIPOS>MOLECULE
6uv5_1_ACO
   51    53     1     0     1
SMALL
NO_CHARGES


@<TRIPOS>ATOM
      1 N1A       -13.4740  -16.8670  -24.9220 N.ar      1 ACO1201     0.0000 
      2 C2A       -13.7640  -17.1400  -26.2040 C.ar      1 ACO1201     0.0000 
      3 N3A       -13.5030  -18.3580  -26.6920 N.ar      1 ACO1201     0.0000 
      4 C4A       -12.9620  -19.2920  -25.9070 C.ar      1 ACO1201     0.0000 
      5 C5A       -12.6820  -19.0210  -24.6430 C.ar      1 ACO1201     0.0000 
      6 C6A       -12.9400  -17.7870  -24.1520 C.ar      1 ACO1201     0.0000 
      7 N6A       -12.7870  -17.1260  -22.8910 N.pl3     1 ACO1201     0.0000 
      8 N7A       -12.1430  -20.1270  -24.0780 N.2       1 ACO1201     0.0000 
      9 C8A       -12.1010  -21.0730  -25.0020 C.2       1 ACO1201     0.0000 
     10 N9A       -12.6100  -20.5610  -26.1360 N.pl3     1 ACO1201     0.0000 
     11 C1B       -12.7100  -21.3260  -27.3280 C.3       1 ACO1201     0.0000 
     12 C2B       -11.5170  -21.6650  -27.7410 C.3       1 ACO1201     0.0000 
     13 O2B       -10.9170  -20.5470  -28.4780 O.3       1 ACO1201     0.0000 
     14 C3B       -11.8460  -22.8050  -28.7090 C.3       1 ACO1201     0.0000 
     15 O3B       -12.1270  -22.2710  -29.9000 O.3       1 ACO1201     0.0000 
     16 P3B       -11.8670  -23.1670  -31.2880 P.3       1 ACO1201     0.0000 
     17 O7A       -12.6070  -24.4720  -31.1740 O.co2     1 ACO1201     0.0000 
     18 O8A       -12.4000  -22.4110  -32.4790 O.co2     1 ACO1201     0.0000 
     19 O9A       -10.4050  -23.4270  -31.4630 O.co2     1 ACO1201     0.0000 
     20 C4B       -13.1530  -23.4550  -28.0980 C.3       1 ACO1201     0.0000 
     21 O4B       -13.3970  -22.7820  -27.0230 O.3       1 ACO1201     0.0000 
     22 C5B       -12.9160  -24.9410  -27.7900 C.3       1 ACO1201     0.0000 
     23 O5B       -12.0660  -25.0580  -26.6580 O.3       1 ACO1201     0.0000 
     24 P1A       -10.6720  -25.9520  -26.7850 P.3       1 ACO1201     0.0000 
     25 O1A       -10.0620  -26.1120  -25.4000 O.co2     1 ACO1201     0.0000 
     26 O2A        -9.6720  -25.2580  -27.7130 O.co2     1 ACO1201     0.0000 
     27 O3A       -11.0440  -27.4620  -27.4180 O.3       1 ACO1201     0.0000 
     28 P2A       -11.9640  -28.5710  -26.6210 P.3       1 ACO1201     0.0000 
     29 O4A       -11.5120  -28.6490  -25.2060 O.co2     1 ACO1201     0.0000 
     30 O5A       -13.4120  -28.1330  -26.6740 O.co2     1 ACO1201     0.0000 
     31 O6A       -11.8130  -30.0540  -27.3660 O.3       1 ACO1201     0.0000 
     32 CBP       -10.7970  -32.2410  -27.8230 C.3       1 ACO1201     0.0000 
     33 CCP       -10.6870  -30.8680  -27.0750 C.3       1 ACO1201     0.0000 
     34 CDP        -9.5810  -32.3860  -28.7120 C.3       1 ACO1201     0.0000 
     35 CEP       -12.0660  -32.2430  -28.7290 C.3       1 ACO1201     0.0000 
     36 CAP       -10.8000  -33.4070  -26.8090 C.3       1 ACO1201     0.0000 
     37 OAP       -11.1270  -32.9340  -25.5420 O.3       1 ACO1201     0.0000 
     38 C9P       -11.7820  -34.5550  -27.1640 C.2       1 ACO1201     0.0000 
     39 O9P       -12.8490  -34.6290  -26.6060 O.2       1 ACO1201     0.0000 
     40 N8P       -11.4210  -35.5950  -28.1640 N.am      1 ACO1201     0.0000 
     41 C7P       -12.3780  -36.6920  -28.4790 C.3       1 ACO1201     0.0000 
     42 C6P       -11.5980  -37.9840  -28.7430 C.3       1 ACO1201     0.0000 
     43 C5P       -12.5730  -39.1740  -28.9860 C.2       1 ACO1201     0.0000 
     44 O5P       -13.5620  -39.0110  -29.5790 O.2       1 ACO1201     0.0000 
     45 N4P       -12.2490  -40.4920  -28.4700 N.am      1 ACO1201     0.0000 
     46 C3P       -13.1900  -41.6580  -28.7000 C.3       1 ACO1201     0.0000 
     47 C2P       -14.2510  -41.7070  -27.6010 C.3       1 ACO1201     0.0000 
     48 S1P       -13.4980  -42.2400  -26.0440 S.3       1 ACO1201     0.0000 
     49 C         -14.7530  -42.2620  -24.7530 C.2       1 ACO1201     0.0000 
     50 O         -14.6130  -41.6100  -23.7880 O.2       1 ACO1201     0.0000 
     51 CH3       -15.9760  -43.1150  -24.9100 C.3       1 ACO1201     0.0000 
@<TRIPOS>BOND
     1    1    2 ar   
     2    1    6 ar   
     3    2    3 ar   
     4    3    4 ar   
     5    4    5 ar   
     6    4   10 1    
     7    5    6 ar   
     8    5    8 1    
     9    6    7 1    
    10    8    9 2    
    11    9   10 1    
    12   10   11 1    
    13   11   12 1    
    14   11   21 1    
    15   12   13 1    
    16   12   14 1    
    17   14   15 1    
    18   14   20 1    
    19   15   16 1    
    20   16   17 ar   
    21   16   18 ar   
    22   16   19 ar   
    23   20   21 1    
    24   20   22 1    
    25   22   23 1    
    26   23   24 1    
    27   24   25 ar   
    28   24   26 ar   
    29   24   27 1    
    30   27   28 1    
    31   28   29 ar   
    32   28   30 ar   
    33   28   31 1    
    34   31   33 1    
    35   32   33 1    
    36   32   34 1    
    37   32   35 1    
    38   32   36 1    
    39   36   37 1    
    40   36   38 1    
    41   38   39 2    
    42   38   40 am   
    43   40   41 1    
    44   41   42 1    
    45   42   43 1    
    46   43   44 2    
    47   43   45 am   
    48   45   46 1    
    49   46   47 1    
    50   47   48 1    
    51   48   49 1    
    52   49   50 2    
    53   49   51 1    
@<TRIPOS>SUBSTRUCTURE
     1 ACO1201     1 GROUP   
@<TRIPOS>SET
ATOM$ORANGE STATIC     ATOMS   COLORGROUP SYSTEM 
46 2 2 4 4 5 5 6 6 9 9 11 11 12 12 14 14 20 \
20 22 22 32 32 33 33 34 34 35 35 36 36 38 38 41 41 42 \
42 43 43 46 46 47 47 49 49 51 51 

