#    Name: 6uv5_2_ACO
#    Modification time : Fri May 22 19:30:23 2020

@<TRIPOS>MOLECULE
6uv5_2_ACO
   51    53     1     0     1
SMALL
NO_CHARGES


@<TRIPOS>ATOM
      1 N1A       -13.2500   16.7980   24.2930 N.ar      1 ACO1202     0.0000 
      2 C2A       -13.8340   17.0780   25.4730 C.ar      1 ACO1202     0.0000 
      3 N3A       -13.6960   18.2520   26.1140 N.ar      1 ACO1202     0.0000 
      4 C4A       -12.9400   19.2460   25.5900 C.ar      1 ACO1202     0.0000 
      5 C5A       -12.2690   19.0170   24.3020 C.ar      1 ACO1202     0.0000 
      6 C6A       -12.4680   17.6980   23.6560 C.ar      1 ACO1202     0.0000 
      7 N6A       -11.8860   17.4050   22.4690 N.pl3     1 ACO1202     0.0000 
      8 N7A       -11.5950   20.1460   24.0150 N.2       1 ACO1202     0.0000 
      9 C8A       -11.8140   21.0210   25.0290 C.2       1 ACO1202     0.0000 
     10 N9A       -12.6160   20.4850   25.9680 N.pl3     1 ACO1202     0.0000 
     11 C1B       -13.0690   21.1490   27.2160 C.3       1 ACO1202     0.0000 
     12 C2B       -11.8980   21.3500   28.1650 C.3       1 ACO1202     0.0000 
     13 O2B       -11.8550   20.2910   29.1300 O.3       1 ACO1202     0.0000 
     14 C3B       -12.1240   22.7170   28.7930 C.3       1 ACO1202     0.0000 
     15 O3B       -12.5540   22.6180   30.1500 O.3       1 ACO1202     0.0000 
     16 P3B       -11.8890   23.5320   31.2950 P.3       1 ACO1202     0.0000 
     17 O7A       -10.4240   23.5650   30.9320 O.co2     1 ACO1202     0.0000 
     18 O8A       -12.5970   24.8580   31.1550 O.co2     1 ACO1202     0.0000 
     19 O9A       -12.1970   22.7920   32.5740 O.co2     1 ACO1202     0.0000 
     20 C4B       -13.2230   23.3710   27.9680 C.3       1 ACO1202     0.0000 
     21 O4B       -13.5970   22.4490   26.9390 O.3       1 ACO1202     0.0000 
     22 C5B       -12.7670   24.6930   27.3590 C.3       1 ACO1202     0.0000 
     23 O5B       -11.5100   24.5220   26.7080 O.3       1 ACO1202     0.0000 
     24 P1A       -10.3330   25.6090   26.8860 P.3       1 ACO1202     0.0000 
     25 O1A        -9.8490   26.0070   25.5120 O.co2     1 ACO1202     0.0000 
     26 O2A        -9.3480   25.0650   27.8930 O.co2     1 ACO1202     0.0000 
     27 O3A       -11.0840   26.8670   27.5600 O.3       1 ACO1202     0.0000 
     28 P2A       -11.9360   27.9240   26.6930 P.3       1 ACO1202     0.0000 
     29 O4A       -11.2520   28.1330   25.3630 O.co2     1 ACO1202     0.0000 
     30 O5A       -13.3870   27.5070   26.7340 O.co2     1 ACO1202     0.0000 
     31 O6A       -11.7840   29.2840   27.5440 O.3       1 ACO1202     0.0000 
     32 CBP       -11.5870   31.6620   27.9120 C.3       1 ACO1202     0.0000 
     33 CCP       -11.7850   30.5510   26.8880 C.3       1 ACO1202     0.0000 
     34 CDP       -10.3350   31.3900   28.7330 C.3       1 ACO1202     0.0000 
     35 CEP       -12.8000   31.7420   28.8280 C.3       1 ACO1202     0.0000 
     36 CAP       -11.4250   32.9970   27.1920 C.3       1 ACO1202     0.0000 
     37 OAP       -10.7770   32.7940   25.9300 O.3       1 ACO1202     0.0000 
     38 C9P       -12.7730   33.6170   26.9690 C.2       1 ACO1202     0.0000 
     39 O9P       -13.5150   33.1900   26.1000 O.2       1 ACO1202     0.0000 
     40 N8P       -13.0960   34.6360   27.7610 N.am      1 ACO1202     0.0000 
     41 C7P       -12.4360   35.9230   27.6480 C.3       1 ACO1202     0.0000 
     42 C6P       -13.2690   37.0490   28.2500 C.3       1 ACO1202     0.0000 
     43 C5P       -12.3590   38.1740   28.6830 C.2       1 ACO1202     0.0000 
     44 O5P       -11.3360   37.9380   29.3040 O.2       1 ACO1202     0.0000 
     45 N4P       -12.7360   39.4050   28.3510 N.am      1 ACO1202     0.0000 
     46 C3P       -14.1350   39.7670   28.2380 C.3       1 ACO1202     0.0000 
     47 C2P       -14.3740   40.7880   27.1320 C.3       1 ACO1202     0.0000 
     48 S1P       -12.8570   41.5890   26.7310 S.3       1 ACO1202     0.0000 
     49 C         -13.4340   42.8960   25.8760 C.2       1 ACO1202     0.0000 
     50 O         -13.6550   43.9390   26.4680 O.2       1 ACO1202     0.0000 
     51 CH3       -13.6670   42.7540   24.4010 C.3       1 ACO1202     0.0000 
@<TRIPOS>BOND
     1    1    2 ar   
     2    1    6 ar   
     3    2    3 ar   
     4    3    4 ar   
     5    4    5 ar   
     6    4   10 1    
     7    5    6 ar   
     8    5    8 1    
     9    6    7 1    
    10    8    9 2    
    11    9   10 1    
    12   10   11 1    
    13   11   12 1    
    14   11   21 1    
    15   12   13 1    
    16   12   14 1    
    17   14   15 1    
    18   14   20 1    
    19   15   16 1    
    20   16   17 ar   
    21   16   18 ar   
    22   16   19 ar   
    23   20   21 1    
    24   20   22 1    
    25   22   23 1    
    26   23   24 1    
    27   24   25 ar   
    28   24   26 ar   
    29   24   27 1    
    30   27   28 1    
    31   28   29 ar   
    32   28   30 ar   
    33   28   31 1    
    34   31   33 1    
    35   32   33 1    
    36   32   34 1    
    37   32   35 1    
    38   32   36 1    
    39   36   37 1    
    40   36   38 1    
    41   38   39 2    
    42   38   40 am   
    43   40   41 1    
    44   41   42 1    
    45   42   43 1    
    46   43   44 2    
    47   43   45 am   
    48   45   46 1    
    49   46   47 1    
    50   47   48 1    
    51   48   49 1    
    52   49   50 2    
    53   49   51 1    
@<TRIPOS>SUBSTRUCTURE
     1 ACO1202     1 GROUP   
@<TRIPOS>SET
ATOM$ORANGE STATIC     ATOMS   COLORGROUP SYSTEM 
46 2 2 4 4 5 5 6 6 9 9 11 11 12 12 14 14 20 \
20 22 22 32 32 33 33 34 34 35 35 36 36 38 38 41 41 42 \
42 43 43 46 46 47 47 49 49 51 51 

