#    Name: 6uv5_3_ACO
#    Modification time : Fri May 22 19:30:37 2020

@<TRIPOS>MOLECULE
6uv5_3_ACO
   51    53     1     0     1
SMALL
NO_CHARGES


@<TRIPOS>ATOM
      1 N1A        13.1620  -17.4030   24.5360 N.ar      1 ACO1201     0.0000 
      2 C2A        13.4810  -17.6490   25.8160 C.ar      1 ACO1201     0.0000 
      3 N3A        13.2770  -18.8730   26.3270 N.ar      1 ACO1201     0.0000 
      4 C4A        12.7620  -19.8410   25.5660 C.ar      1 ACO1201     0.0000 
      5 C5A        12.4480  -19.5960   24.3030 C.ar      1 ACO1201     0.0000 
      6 C6A        12.6540  -18.3580   23.7920 C.ar      1 ACO1201     0.0000 
      7 N6A        12.4560  -17.7150   22.5280 N.pl3     1 ACO1201     0.0000 
      8 N7A        11.9490  -20.7330   23.7590 N.2       1 ACO1201     0.0000 
      9 C8A        11.9590  -21.6700   24.6940 C.2       1 ACO1201     0.0000 
     10 N9A        12.4630  -21.1230   25.8180 N.pl3     1 ACO1201     0.0000 
     11 C1B        12.6110  -21.8750   27.0190 C.3       1 ACO1201     0.0000 
     12 C2B        11.4400  -22.1900   27.5100 C.3       1 ACO1201     0.0000 
     13 O2B        10.9490  -21.0660   28.3110 O.3       1 ACO1201     0.0000 
     14 C3B        11.7950  -23.3380   28.4550 C.3       1 ACO1201     0.0000 
     15 O3B        12.1810  -22.7960   29.6120 O.3       1 ACO1201     0.0000 
     16 P3B        11.9170  -23.6220   31.0400 P.3       1 ACO1201     0.0000 
     17 O7A        12.4040  -25.0370   30.8750 O.co2     1 ACO1201     0.0000 
     18 O8A        12.6810  -22.9610   32.1600 O.co2     1 ACO1201     0.0000 
     19 O9A        10.4570  -23.6210   31.3590 O.co2     1 ACO1201     0.0000 
     20 C4B        13.0330  -24.0350   27.7660 C.3       1 ACO1201     0.0000 
     21 O4B        13.2800  -23.3400   26.7080 O.3       1 ACO1201     0.0000 
     22 C5B        12.6660  -25.4670   27.3710 C.3       1 ACO1201     0.0000 
     23 O5B        11.7490  -25.4200   26.2870 O.3       1 ACO1201     0.0000 
     24 P1A        10.4980  -26.5140   26.2370 P.3       1 ACO1201     0.0000 
     25 O1A        10.0400  -26.6540   24.7880 O.co2     1 ACO1201     0.0000 
     26 O2A         9.3310  -26.0230   27.0980 O.co2     1 ACO1201     0.0000 
     27 O3A        11.0140  -28.0010   26.8310 O.3       1 ACO1201     0.0000 
     28 P2A        12.2270  -28.8810   26.1440 P.3       1 ACO1201     0.0000 
     29 O4A        12.4440  -28.3890   24.7590 O.co2     1 ACO1201     0.0000 
     30 O5A        13.4990  -28.7060   26.9460 O.co2     1 ACO1201     0.0000 
     31 O6A        11.8150  -30.4940   26.0960 O.3       1 ACO1201     0.0000 
     32 CBP        10.9110  -32.5380   27.0220 C.3       1 ACO1201     0.0000 
     33 CCP        10.7450  -30.9890   26.8890 C.3       1 ACO1201     0.0000 
     34 CDP        10.2720  -33.2150   25.8280 C.3       1 ACO1201     0.0000 
     35 CEP        10.2000  -33.0140   28.3170 C.3       1 ACO1201     0.0000 
     36 CAP        12.4140  -32.8520   27.0670 C.3       1 ACO1201     0.0000 
     37 OAP        13.0330  -31.8760   27.8360 O.3       1 ACO1201     0.0000 
     38 C9P        12.7670  -34.2190   27.6900 C.2       1 ACO1201     0.0000 
     39 O9P        13.2490  -34.2430   28.7940 O.2       1 ACO1201     0.0000 
     40 N8P        12.5670  -35.4950   26.9480 N.am      1 ACO1201     0.0000 
     41 C7P        12.9400  -36.7870   27.5870 C.3       1 ACO1201     0.0000 
     42 C6P        11.7880  -37.7900   27.4730 C.3       1 ACO1201     0.0000 
     43 C5P        12.2750  -39.2070   27.9040 C.2       1 ACO1201     0.0000 
     44 O5P        13.0930  -39.3160   28.7230 O.2       1 ACO1201     0.0000 
     45 N4P        11.7120  -40.3940   27.2850 N.am      1 ACO1201     0.0000 
     46 C3P        12.1880  -41.7710   27.7050 C.3       1 ACO1201     0.0000 
     47 C2P        13.4250  -42.1730   26.8960 C.3       1 ACO1201     0.0000 
     48 S1P        12.9480  -43.2980   25.5600 S.3       1 ACO1201     0.0000 
     49 C          14.3970  -44.1450   24.8990 C.2       1 ACO1201     0.0000 
     50 O          15.1790  -44.6290   25.6260 O.2       1 ACO1201     0.0000 
     51 CH3        14.6040  -44.2370   23.4160 C.3       1 ACO1201     0.0000 
@<TRIPOS>BOND
     1    1    2 ar   
     2    1    6 ar   
     3    2    3 ar   
     4    3    4 ar   
     5    4    5 ar   
     6    4   10 1    
     7    5    6 ar   
     8    5    8 1    
     9    6    7 1    
    10    8    9 2    
    11    9   10 1    
    12   10   11 1    
    13   11   12 1    
    14   11   21 1    
    15   12   13 1    
    16   12   14 1    
    17   14   15 1    
    18   14   20 1    
    19   15   16 1    
    20   16   17 ar   
    21   16   18 ar   
    22   16   19 ar   
    23   20   21 1    
    24   20   22 1    
    25   22   23 1    
    26   23   24 1    
    27   24   25 ar   
    28   24   26 ar   
    29   24   27 1    
    30   27   28 1    
    31   28   29 ar   
    32   28   30 ar   
    33   28   31 1    
    34   31   33 1    
    35   32   33 1    
    36   32   34 1    
    37   32   35 1    
    38   32   36 1    
    39   36   37 1    
    40   36   38 1    
    41   38   39 2    
    42   38   40 am   
    43   40   41 1    
    44   41   42 1    
    45   42   43 1    
    46   43   44 2    
    47   43   45 am   
    48   45   46 1    
    49   46   47 1    
    50   47   48 1    
    51   48   49 1    
    52   49   50 2    
    53   49   51 1    
@<TRIPOS>SUBSTRUCTURE
     1 ACO1201     1 GROUP   
@<TRIPOS>SET
ATOM$ORANGE STATIC     ATOMS   COLORGROUP SYSTEM 
46 2 2 4 4 5 5 6 6 9 9 11 11 12 12 14 14 20 \
20 22 22 32 32 33 33 34 34 35 35 36 36 38 38 41 41 42 \
42 43 43 46 46 47 47 49 49 51 51 

