#    Name: 6uv5_4_ACO
#    Modification time : Fri May 22 19:30:51 2020

@<TRIPOS>MOLECULE
6uv5_4_ACO
   51    53     1     0     1
SMALL
NO_CHARGES


@<TRIPOS>ATOM
      1 N1A        13.2180   17.5290  -24.6980 N.ar      1 ACO1201     0.0000 
      2 C2A        13.5230   17.8620  -25.9620 C.ar      1 ACO1201     0.0000 
      3 N3A        13.2410   19.0950  -26.4010 N.ar      1 ACO1201     0.0000 
      4 C4A        12.6630   19.9800  -25.5870 C.ar      1 ACO1201     0.0000 
      5 C5A        12.3660   19.6500  -24.3390 C.ar      1 ACO1201     0.0000 
      6 C6A        12.6500   18.4030  -23.8980 C.ar      1 ACO1201     0.0000 
      7 N6A        12.4950   17.6810  -22.6700 N.pl3     1 ACO1201     0.0000 
      8 N7A        11.7930   20.7200  -23.7360 N.2       1 ACO1201     0.0000 
      9 C8A        11.7430   21.7040  -24.6220 C.2       1 ACO1201     0.0000 
     10 N9A        12.2830   21.2500  -25.7730 N.pl3     1 ACO1201     0.0000 
     11 C1B        12.3880   22.0610  -26.9410 C.3       1 ACO1201     0.0000 
     12 C2B        11.2040   22.4210  -27.3700 C.3       1 ACO1201     0.0000 
     13 O2B        10.5770   21.3180  -28.1110 O.3       1 ACO1201     0.0000 
     14 C3B        11.5920   23.5340  -28.3460 C.3       1 ACO1201     0.0000 
     15 O3B        12.0000   22.9470  -29.4750 O.3       1 ACO1201     0.0000 
     16 P3B        12.0010   23.8000  -30.9160 P.3       1 ACO1201     0.0000 
     17 O7A        12.3600   22.8700  -32.0490 O.co2     1 ACO1201     0.0000 
     18 O8A        10.6260   24.3810  -31.1530 O.co2     1 ACO1201     0.0000 
     19 O9A        13.0150   24.8970  -30.8480 O.co2     1 ACO1201     0.0000 
     20 C4B        12.8280   24.2290  -27.6440 C.3       1 ACO1201     0.0000 
     21 O4B        13.0780   23.5110  -26.6000 O.3       1 ACO1201     0.0000 
     22 C5B        12.4750   25.6700  -27.2520 C.3       1 ACO1201     0.0000 
     23 O5B        11.4690   25.6500  -26.2500 O.3       1 ACO1201     0.0000 
     24 P1A        10.4410   26.9500  -26.1400 P.3       1 ACO1201     0.0000 
     25 O1A        10.2160   27.2980  -24.6740 O.co2     1 ACO1201     0.0000 
     26 O2A         9.1030   26.5900  -26.7900 O.co2     1 ACO1201     0.0000 
     27 O3A        11.0970   28.2510  -26.9800 O.3       1 ACO1201     0.0000 
     28 P2A        12.1760   29.3540  -26.3920 P.3       1 ACO1201     0.0000 
     29 O4A        12.0120   29.5110  -24.9250 O.co2     1 ACO1201     0.0000 
     30 O5A        13.5810   28.8850  -26.7000 O.co2     1 ACO1201     0.0000 
     31 O6A        11.9060   30.8230  -27.1290 O.3       1 ACO1201     0.0000 
     32 CBP        10.9120   33.0680  -27.2550 C.3       1 ACO1201     0.0000 
     33 CCP        10.8530   31.6350  -26.6330 C.3       1 ACO1201     0.0000 
     34 CDP         9.5380   33.3790  -27.8080 C.3       1 ACO1201     0.0000 
     35 CEP        11.9450   33.0820  -28.4220 C.3       1 ACO1201     0.0000 
     36 CAP        11.2640   34.0950  -26.1570 C.3       1 ACO1201     0.0000 
     37 OAP        12.0070   33.4780  -25.1560 O.3       1 ACO1201     0.0000 
     38 C9P        12.0700   35.3150  -26.6720 C.2       1 ACO1201     0.0000 
     39 O9P        13.2620   35.3700  -26.4850 O.2       1 ACO1201     0.0000 
     40 N8P        11.3890   36.4450  -27.3640 N.am      1 ACO1201     0.0000 
     41 C7P        12.1730   37.6170  -27.8470 C.3       1 ACO1201     0.0000 
     42 C6P        11.3770   38.8990  -27.5920 C.3       1 ACO1201     0.0000 
     43 C5P        12.1540   40.1290  -28.1440 C.2       1 ACO1201     0.0000 
     44 O5P        12.6010   40.0890  -29.2150 O.2       1 ACO1201     0.0000 
     45 N4P        12.3240   41.3200  -27.3290 N.am      1 ACO1201     0.0000 
     46 C3P        13.0800   42.5220  -27.8650 C.3       1 ACO1201     0.0000 
     47 C2P        14.0570   43.0590  -26.8120 C.3       1 ACO1201     0.0000 
     48 S1P        13.5760   42.5050  -25.1560 S.3       1 ACO1201     0.0000 
     49 C          13.2260   43.9240  -24.1010 C.2       1 ACO1201     0.0000 
     50 O          12.1420   44.3750  -24.0620 O.2       1 ACO1201     0.0000 
     51 CH3        14.3150   44.5280  -23.2640 C.3       1 ACO1201     0.0000 
@<TRIPOS>BOND
     1    1    2 ar   
     2    1    6 ar   
     3    2    3 ar   
     4    3    4 ar   
     5    4    5 ar   
     6    4   10 1    
     7    5    6 ar   
     8    5    8 1    
     9    6    7 1    
    10    8    9 2    
    11    9   10 1    
    12   10   11 1    
    13   11   12 1    
    14   11   21 1    
    15   12   13 1    
    16   12   14 1    
    17   14   15 1    
    18   14   20 1    
    19   15   16 1    
    20   16   17 ar   
    21   16   18 ar   
    22   16   19 ar   
    23   20   21 1    
    24   20   22 1    
    25   22   23 1    
    26   23   24 1    
    27   24   25 ar   
    28   24   26 ar   
    29   24   27 1    
    30   27   28 1    
    31   28   29 ar   
    32   28   30 ar   
    33   28   31 1    
    34   31   33 1    
    35   32   33 1    
    36   32   34 1    
    37   32   35 1    
    38   32   36 1    
    39   36   37 1    
    40   36   38 1    
    41   38   39 2    
    42   38   40 am   
    43   40   41 1    
    44   41   42 1    
    45   42   43 1    
    46   43   44 2    
    47   43   45 am   
    48   45   46 1    
    49   46   47 1    
    50   47   48 1    
    51   48   49 1    
    52   49   50 2    
    53   49   51 1    
@<TRIPOS>SUBSTRUCTURE
     1 ACO1201     1 GROUP   
@<TRIPOS>SET
ATOM$ORANGE STATIC     ATOMS   COLORGROUP SYSTEM 
46 2 2 4 4 5 5 6 6 9 9 11 11 12 12 14 14 20 \
20 22 22 32 32 33 33 34 34 35 35 36 36 38 38 41 41 42 \
42 43 43 46 46 47 47 49 49 51 51 

