#    Name: 5tvw_2_ATP
#    Modification time : Fri May 22 19:12:29 2020

@<TRIPOS>MOLECULE
5tvw_2_ATP
   31    33     1     0     1
SMALL
NO_CHARGES


@<TRIPOS>ATOM
      1 PG        -17.9710   11.8440  241.7350 P.3       1 ATP803      0.0000 
      2 O1G       -19.2540   12.5290  241.3330 O.co2     1 ATP803      0.0000 
      3 O2G       -17.5490   10.7190  240.8180 O.co2     1 ATP803      0.0000 
      4 O3G       -16.9050   12.8400  242.1140 O.co2     1 ATP803      0.0000 
      5 PB        -19.2190   11.6050  244.2640 P.3       1 ATP803      0.0000 
      6 O1B       -19.1000   10.6820  245.4520 O.co2     1 ATP803      0.0000 
      7 O2B       -20.5630   11.9040  243.6380 O.co2     1 ATP803      0.0000 
      8 O3B       -18.2010   11.0780  243.1360 O.3       1 ATP803      0.0000 
      9 PA        -19.3190   14.1140  245.4780 P.3       1 ATP803      0.0000 
     10 O1A       -20.3640   14.6680  244.5420 O.co2     1 ATP803      0.0000 
     11 O2A       -18.2940   15.0100  246.1370 O.co2     1 ATP803      0.0000 
     12 O3A       -18.5100   12.9890  244.6710 O.3       1 ATP803      0.0000 
     13 O5'       -20.0340   13.2050  246.5880 O.3       1 ATP803      0.0000 
     14 C5'       -20.0420   13.5800  247.9580 C.3       1 ATP803      0.0000 
     15 C4'       -20.7730   12.5050  248.7480 C.3       1 ATP803      0.0000 
     16 O4'       -21.8640   13.1210  249.4260 O.3       1 ATP803      0.0000 
     17 C3'       -21.3620   11.4020  247.8800 C.3       1 ATP803      0.0000 
     18 O3'       -20.5330   10.2340  247.8700 O.3       1 ATP803      0.0000 
     19 C2'       -22.7060   11.1040  248.5100 C.3       1 ATP803      0.0000 
     20 O2'       -22.5950    9.9810  249.3840 O.3       1 ATP803      0.0000 
     21 C1'       -23.0410   12.3240  249.3460 C.3       1 ATP803      0.0000 
     22 N9        -24.0750   13.1180  248.6430 N.pl3     1 ATP803      0.0000 
     23 C8        -23.8390   13.9880  247.6390 C.2       1 ATP803      0.0000 
     24 N7        -24.9910   14.5550  247.2060 N.2       1 ATP803      0.0000 
     25 C5        -25.9930   14.0390  247.9480 C.ar      1 ATP803      0.0000 
     26 C6        -27.4640   14.1990  248.0150 C.ar      1 ATP803      0.0000 
     27 N6        -28.1210   15.0470  247.1870 N.pl3     1 ATP803      0.0000 
     28 N1        -28.1280   13.4700  248.9360 N.ar      1 ATP803      0.0000 
     29 C2        -27.4970   12.6230  249.7670 C.ar      1 ATP803      0.0000 
     30 N3        -26.1700   12.4270  249.7610 N.ar      1 ATP803      0.0000 
     31 C4        -25.3820   13.0930  248.8910 C.ar      1 ATP803      0.0000 
@<TRIPOS>BOND
     1    1    2 ar   
     2    1    3 ar   
     3    1    4 ar   
     4    1    8 1    
     5    5    6 ar   
     6    5    7 ar   
     7    5    8 1    
     8    5   12 1    
     9    9   10 ar   
    10    9   11 ar   
    11    9   12 1    
    12    9   13 1    
    13   13   14 1    
    14   14   15 1    
    15   15   16 1    
    16   15   17 1    
    17   16   21 1    
    18   17   18 1    
    19   17   19 1    
    20   19   20 1    
    21   19   21 1    
    22   21   22 1    
    23   22   23 1    
    24   22   31 1    
    25   23   24 2    
    26   24   25 1    
    27   25   26 ar   
    28   25   31 ar   
    29   26   27 1    
    30   26   28 ar   
    31   28   29 ar   
    32   29   30 ar   
    33   30   31 ar   
@<TRIPOS>SUBSTRUCTURE
     1 ATP803      1 GROUP   
@<TRIPOS>SET
ATOM$ORANGE STATIC     ATOMS   COLORGROUP SYSTEM 
20 14 14 15 15 17 17 19 19 21 21 23 23 25 25 26 26 29 \
29 31 31 

