#    Name: 5z96_3_Y01
#    Modification time : Fri May 22 19:32:44 2020

@<TRIPOS>MOLECULE
5z96_3_Y01
   35    38     1     0     0
SMALL
NO_CHARGES


@<TRIPOS>ATOM
      1 CAA       137.8350  173.9120  180.3620 C.3       1 Y01801      0.0000 
      2 CBA       138.1300  173.2730  179.0030 C.3       1 Y01801      0.0000 
      3 CAB       138.7180  174.3330  178.0770 C.3       1 Y01801      0.0000 
      4 CAN       136.8450  172.6910  178.4010 C.3       1 Y01801      0.0000 
      5 CAJ       135.7430  173.7530  178.3250 C.3       1 Y01801      0.0000 
      6 CAO       134.3720  173.0570  178.1980 C.3       1 Y01801      0.0000 
      7 CBB       133.4570  173.7380  177.1480 C.3       1 Y01801      0.0000 
      8 CAC       133.4490  175.2530  177.4530 C.3       1 Y01801      0.0000 
      9 CBE       133.8770  173.3620  175.6830 C.3       1 Y01801      0.0000 
     10 CAP       134.2720  171.8530  175.5930 C.3       1 Y01801      0.0000 
     11 CAQ       134.0160  171.4410  174.1350 C.3       1 Y01801      0.0000 
     12 CBG       133.5550  172.7440  173.5100 C.3       1 Y01801      0.0000 
     13 CBI       132.7580  173.3960  174.6150 C.3       1 Y01801      0.0000 
     14 CAE       131.5490  172.5480  175.0660 C.3       1 Y01801      0.0000 
     15 CAU       132.3080  174.7780  174.0900 C.3       1 Y01801      0.0000 
     16 CAS       131.4300  174.6180  172.8440 C.3       1 Y01801      0.0000 
     17 CBF       132.1830  173.8650  171.7370 C.3       1 Y01801      0.0000 
     18 CBD       132.6990  172.5240  172.2700 C.3       1 Y01801      0.0000 
     19 CAK       133.5500  171.8450  171.2070 C.3       1 Y01801      0.0000 
     20 CAI       132.9840  171.9280  169.9330 C.2       1 Y01801      0.0000 
     21 CAZ       131.9080  172.7600  169.6170 C.2       1 Y01801      0.0000 
     22 CAV       131.4880  172.8040  168.2970 C.3       1 Y01801      0.0000 
     23 CBH       131.2360  173.5590  170.5770 C.3       1 Y01801      0.0000 
     24 CAD       130.0120  172.7960  171.0930 C.3       1 Y01801      0.0000 
     25 CAT       130.7250  174.8820  169.9700 C.3       1 Y01801      0.0000 
     26 CAR       131.7040  175.3060  168.8880 C.3       1 Y01801      0.0000 
     27 CBC       131.6900  174.2330  167.7650 C.3       1 Y01801      0.0000 
     28 OAW       130.6220  174.4960  166.8720 O.3       1 Y01801      0.0000 
     29 CAY       131.0860  174.8990  165.6640 C.2       1 Y01801      0.0000 
     30 OAG       132.2330  174.7280  165.2640 O.2       1 Y01801      0.0000 
     31 CAM       130.0480  175.5800  164.7890 C.3       1 Y01801      0.0000 
     32 CAL       129.9480  174.8540  163.4540 C.3       1 Y01801      0.0000 
     33 CAX       130.7170  175.6540  162.4120 C.2       1 Y01801      0.0000 
     34 OAH       130.2890  175.6210  161.2400 O.co2     1 Y01801      0.0000 
     35 OAF       131.7110  176.2930  162.8150 O.co2     1 Y01801      0.0000 
@<TRIPOS>BOND
     1    1    2 1    
     2    2    3 1    
     3    2    4 1    
     4    4    5 1    
     5    5    6 1    
     6    6    7 1    
     7    7    8 1    
     8    7    9 1    
     9    9   10 1    
    10    9   13 1    
    11   10   11 1    
    12   11   12 1    
    13   12   13 1    
    14   12   18 1    
    15   13   14 1    
    16   13   15 1    
    17   15   16 1    
    18   16   17 1    
    19   17   18 1    
    20   17   23 1    
    21   18   19 1    
    22   19   20 1    
    23   20   21 2    
    24   21   22 1    
    25   21   23 1    
    26   22   27 1    
    27   23   24 1    
    28   23   25 1    
    29   25   26 1    
    30   26   27 1    
    31   27   28 1    
    32   28   29 1    
    33   29   30 2    
    34   29   31 1    
    35   31   32 1    
    36   32   33 1    
    37   33   34 ar   
    38   33   35 ar   
@<TRIPOS>SUBSTRUCTURE
     1 Y01801      1 GROUP   
@<TRIPOS>SET

