#    Name: 5z96_4_Y01
#    Modification time : Fri May 22 19:33:02 2020

@<TRIPOS>MOLECULE
5z96_4_Y01
   35    38     1     0     0
SMALL
NO_CHARGES


@<TRIPOS>ATOM
      1 CAA       144.3350  131.6700  181.8930 C.3       1 Y01801      0.0000 
      2 CBA       142.9240  131.8710  181.3380 C.3       1 Y01801      0.0000 
      3 CAB       142.2260  130.5160  181.2290 C.3       1 Y01801      0.0000 
      4 CAN       143.0030  132.5210  179.9550 C.3       1 Y01801      0.0000 
      5 CAJ       141.6220  133.0340  179.5400 C.3       1 Y01801      0.0000 
      6 CAO       141.7540  133.8370  178.2420 C.3       1 Y01801      0.0000 
      7 CBB       140.9220  133.1900  177.1170 C.3       1 Y01801      0.0000 
      8 CAC       139.4550  133.5220  177.4140 C.3       1 Y01801      0.0000 
      9 CBE       141.3530  133.6900  175.7020 C.3       1 Y01801      0.0000 
     10 CAP       142.8490  134.1130  175.6530 C.3       1 Y01801      0.0000 
     11 CAQ       143.3040  133.8630  174.2090 C.3       1 Y01801      0.0000 
     12 CBG       142.0060  133.4420  173.5450 C.3       1 Y01801      0.0000 
     13 CBI       141.3430  132.6110  174.6110 C.3       1 Y01801      0.0000 
     14 CAE       142.1850  131.3850  175.0330 C.3       1 Y01801      0.0000 
     15 CAU       139.9630  132.1780  174.0750 C.3       1 Y01801      0.0000 
     16 CAS       140.1380  131.3400  172.7910 C.3       1 Y01801      0.0000 
     17 CBF       140.9140  132.1220  171.7150 C.3       1 Y01801      0.0000 
     18 CBD       142.2410  132.6220  172.2910 C.3       1 Y01801      0.0000 
     19 CAK       142.9300  133.5030  171.2700 C.3       1 Y01801      0.0000 
     20 CAI       142.8990  132.9700  169.9830 C.2       1 Y01801      0.0000 
     21 CAZ       142.0820  131.9010  169.6170 C.2       1 Y01801      0.0000 
     22 CAV       142.0870  131.5130  168.2850 C.3       1 Y01801      0.0000 
     23 CBH       141.2590  131.2050  170.5390 C.3       1 Y01801      0.0000 
     24 CAD       142.0180  129.9740  171.0500 C.3       1 Y01801      0.0000 
     25 CAT       139.9630  130.6970  169.8840 C.3       1 Y01801      0.0000 
     26 CAR       139.5660  131.6870  168.8030 C.3       1 Y01801      0.0000 
     27 CBC       140.6670  131.6780  167.7100 C.3       1 Y01801      0.0000 
     28 OAW       140.4460  130.5940  166.8180 O.3       1 Y01801      0.0000 
     29 CAY       139.9540  131.0370  165.6340 C.2       1 Y01801      0.0000 
     30 OAG       140.1060  132.1750  165.2010 O.2       1 Y01801      0.0000 
     31 CAM       139.2030  129.9880  164.8280 C.3       1 Y01801      0.0000 
     32 CAL       139.8940  129.8010  163.4840 C.3       1 Y01801      0.0000 
     33 CAX       139.1440  130.6000  162.4260 C.2       1 Y01801      0.0000 
     34 OAH       139.1690  130.1550  161.2600 O.co2     1 Y01801      0.0000 
     35 OAF       138.5540  131.6340  162.8050 O.co2     1 Y01801      0.0000 
@<TRIPOS>BOND
     1    1    2 1    
     2    2    3 1    
     3    2    4 1    
     4    4    5 1    
     5    5    6 1    
     6    6    7 1    
     7    7    8 1    
     8    7    9 1    
     9    9   10 1    
    10    9   13 1    
    11   10   11 1    
    12   11   12 1    
    13   12   13 1    
    14   12   18 1    
    15   13   14 1    
    16   13   15 1    
    17   15   16 1    
    18   16   17 1    
    19   17   18 1    
    20   17   23 1    
    21   18   19 1    
    22   19   20 1    
    23   20   21 2    
    24   21   22 1    
    25   21   23 1    
    26   22   27 1    
    27   23   24 1    
    28   23   25 1    
    29   25   26 1    
    30   26   27 1    
    31   27   28 1    
    32   28   29 1    
    33   29   30 2    
    34   29   31 1    
    35   31   32 1    
    36   32   33 1    
    37   33   34 ar   
    38   33   35 ar   
@<TRIPOS>SUBSTRUCTURE
     1 Y01801      1 GROUP   
@<TRIPOS>SET

