#    Name: 5z96_2_Y01
#    Modification time : Fri May 22 19:32:24 2020

@<TRIPOS>MOLECULE
5z96_2_Y01
   35    38     1     0     0
SMALL
NO_CHARGES


@<TRIPOS>ATOM
      1 CAA       170.7070  183.0800  182.2620 C.3       1 Y01801      0.0000 
      2 CBA       172.0650  183.0280  181.5670 C.3       1 Y01801      0.0000 
      3 CAB       172.5680  184.4610  181.3990 C.3       1 Y01801      0.0000 
      4 CAN       171.9210  182.3430  180.2010 C.3       1 Y01801      0.0000 
      5 CAJ       173.2720  181.7830  179.7490 C.3       1 Y01801      0.0000 
      6 CAO       173.0820  180.9710  178.4620 C.3       1 Y01801      0.0000 
      7 CBB       173.9690  181.5380  177.3340 C.3       1 Y01801      0.0000 
      8 CAC       175.4130  181.1420  177.6600 C.3       1 Y01801      0.0000 
      9 CBE       173.5490  181.0260  175.9210 C.3       1 Y01801      0.0000 
     10 CAP       172.0680  180.5660  175.8590 C.3       1 Y01801      0.0000 
     11 CAQ       171.6090  180.8290  174.4210 C.3       1 Y01801      0.0000 
     12 CBG       172.8920  181.2960  173.7670 C.3       1 Y01801      0.0000 
     13 CBI       173.5410  182.1150  174.8490 C.3       1 Y01801      0.0000 
     14 CAE       172.6760  183.3180  175.2880 C.3       1 Y01801      0.0000 
     15 CAU       174.9210  182.5700  174.3310 C.3       1 Y01801      0.0000 
     16 CAS       174.7550  183.4160  173.0520 C.3       1 Y01801      0.0000 
     17 CBF       173.9610  182.6550  171.9680 C.3       1 Y01801      0.0000 
     18 CBD       172.6360  182.1500  172.5450 C.3       1 Y01801      0.0000 
     19 CAK       171.9240  181.3000  171.5160 C.3       1 Y01801      0.0000 
     20 CAI       171.9400  181.8620  170.2440 C.2       1 Y01801      0.0000 
     21 CAZ       172.7610  182.9330  169.8960 C.2       1 Y01801      0.0000 
     22 CAV       172.7460  183.3520  168.5780 C.3       1 Y01801      0.0000 
     23 CBH       173.6110  183.5960  170.8190 C.3       1 Y01801      0.0000 
     24 CAD       172.8810  184.8300  171.3600 C.3       1 Y01801      0.0000 
     25 CAT       174.9090  184.0860  170.1560 C.3       1 Y01801      0.0000 
     26 CAR       175.2690  183.0930  169.0640 C.3       1 Y01801      0.0000 
     27 CBC       174.1480  183.1280  167.9890 C.3       1 Y01801      0.0000 
     28 OAW       174.4000  184.1920  167.0940 O.3       1 Y01801      0.0000 
     29 CAY       174.6660  183.7160  165.8540 C.2       1 Y01801      0.0000 
     30 OAG       174.9410  182.5480  165.5910 O.2       1 Y01801      0.0000 
     31 CAM       174.6350  184.7720  164.7670 C.3       1 Y01801      0.0000 
     32 CAL       175.9890  184.7910  164.0770 C.3       1 Y01801      0.0000 
     33 CAX       175.8770  183.9870  162.7960 C.2       1 Y01801      0.0000 
     34 OAH       175.6320  184.6280  161.7540 O.co2     1 Y01801      0.0000 
     35 OAF       176.0290  182.7510  162.8890 O.co2     1 Y01801      0.0000 
@<TRIPOS>BOND
     1    1    2 1    
     2    2    3 1    
     3    2    4 1    
     4    4    5 1    
     5    5    6 1    
     6    6    7 1    
     7    7    8 1    
     8    7    9 1    
     9    9   10 1    
    10    9   13 1    
    11   10   11 1    
    12   11   12 1    
    13   12   13 1    
    14   12   18 1    
    15   13   14 1    
    16   13   15 1    
    17   15   16 1    
    18   16   17 1    
    19   17   18 1    
    20   17   23 1    
    21   18   19 1    
    22   19   20 1    
    23   20   21 2    
    24   21   22 1    
    25   21   23 1    
    26   22   27 1    
    27   23   24 1    
    28   23   25 1    
    29   25   26 1    
    30   26   27 1    
    31   27   28 1    
    32   28   29 1    
    33   29   30 2    
    34   29   31 1    
    35   31   32 1    
    36   32   33 1    
    37   33   34 ar   
    38   33   35 ar   
@<TRIPOS>SUBSTRUCTURE
     1 Y01801      1 GROUP   
@<TRIPOS>SET

