#    Name: 5z96_1_Y01
#    Modification time : Fri May 22 19:32:07 2020

@<TRIPOS>MOLECULE
5z96_1_Y01
   35    38     1     0     0
SMALL
NO_CHARGES


@<TRIPOS>ATOM
      1 CAA       182.5600  141.5190  182.3570 C.3       1 Y01801      0.0000 
      2 CBA       183.4750  142.2690  181.3950 C.3       1 Y01801      0.0000 
      3 CAB       183.3400  143.7780  181.6220 C.3       1 Y01801      0.0000 
      4 CAN       183.0950  141.9010  179.9530 C.3       1 Y01801      0.0000 
      5 CAJ       181.5810  141.8540  179.7080 C.3       1 Y01801      0.0000 
      6 CAO       181.2950  142.2640  178.2640 C.3       1 Y01801      0.0000 
      7 CBB       181.5370  141.1190  177.2460 C.3       1 Y01801      0.0000 
      8 CAC       180.7840  139.8690  177.7020 C.3       1 Y01801      0.0000 
      9 CBE       181.0660  141.4840  175.8070 C.3       1 Y01801      0.0000 
     10 CAP       180.5690  142.9500  175.6550 C.3       1 Y01801      0.0000 
     11 CAQ       180.9090  143.3530  174.2300 C.3       1 Y01801      0.0000 
     12 CBG       181.3670  142.0390  173.6580 C.3       1 Y01801      0.0000 
     13 CBI       182.1760  141.4390  174.7760 C.3       1 Y01801      0.0000 
     14 CAE       183.3840  142.3050  175.1950 C.3       1 Y01801      0.0000 
     15 CAU       182.6190  140.0350  174.3410 C.3       1 Y01801      0.0000 
     16 CAS       183.4700  140.1310  173.0470 C.3       1 Y01801      0.0000 
     17 CBF       182.7200  140.8880  171.9190 C.3       1 Y01801      0.0000 
     18 CBD       182.2140  142.2340  172.4330 C.3       1 Y01801      0.0000 
     19 CAK       181.3550  142.8830  171.3680 C.3       1 Y01801      0.0000 
     20 CAI       181.9410  142.8500  170.1110 C.2       1 Y01801      0.0000 
     21 CAZ       183.0230  142.0310  169.8040 C.2       1 Y01801      0.0000 
     22 CAV       183.4720  142.0290  168.4960 C.3       1 Y01801      0.0000 
     23 CBH       183.6710  141.2040  170.7580 C.3       1 Y01801      0.0000 
     24 CAD       184.8990  141.9500  171.2940 C.3       1 Y01801      0.0000 
     25 CAT       184.1710  139.8910  170.1270 C.3       1 Y01801      0.0000 
     26 CAR       183.2110  139.5140  169.0040 C.3       1 Y01801      0.0000 
     27 CBC       183.2590  140.6250  167.9160 C.3       1 Y01801      0.0000 
     28 OAW       184.3380  140.3830  167.0330 O.3       1 Y01801      0.0000 
     29 CAY       183.8730  139.9840  165.8270 C.2       1 Y01801      0.0000 
     30 OAG       182.7660  140.2670  165.3770 O.2       1 Y01801      0.0000 
     31 CAM       184.8610  139.1620  165.0170 C.3       1 Y01801      0.0000 
     32 CAL       185.0850  139.8430  163.6760 C.3       1 Y01801      0.0000 
     33 CAX       184.2410  139.1370  162.6250 C.2       1 Y01801      0.0000 
     34 OAH       184.7060  139.0930  161.4680 O.co2     1 Y01801      0.0000 
     35 OAF       183.1550  138.6500  163.0020 O.co2     1 Y01801      0.0000 
@<TRIPOS>BOND
     1    1    2 1    
     2    2    3 1    
     3    2    4 1    
     4    4    5 1    
     5    5    6 1    
     6    6    7 1    
     7    7    8 1    
     8    7    9 1    
     9    9   10 1    
    10    9   13 1    
    11   10   11 1    
    12   11   12 1    
    13   12   13 1    
    14   12   18 1    
    15   13   14 1    
    16   13   15 1    
    17   15   16 1    
    18   16   17 1    
    19   17   18 1    
    20   17   23 1    
    21   18   19 1    
    22   19   20 1    
    23   20   21 2    
    24   21   22 1    
    25   21   23 1    
    26   22   27 1    
    27   23   24 1    
    28   23   25 1    
    29   25   26 1    
    30   26   27 1    
    31   27   28 1    
    32   28   29 1    
    33   29   30 2    
    34   29   31 1    
    35   31   32 1    
    36   32   33 1    
    37   33   34 ar   
    38   33   35 ar   
@<TRIPOS>SUBSTRUCTURE
     1 Y01801      1 GROUP   
@<TRIPOS>SET

