#    Name: 5ysh_1_5AD_CAVITY_N1_4
#    Modification time : Fri May 22 19:23:24 2020

@<TRIPOS>MOLECULE
5ysh_1_5AD_CAVITY_N1_4
   51     0     5     0     0
SMALL
NO_CHARGES


@<TRIPOS>ATOM
      1 OG        111.2600  116.0600  -92.2100 O.3       1 SER1        0.0000 
      2 OG        108.5800  115.2400  -90.3600 O.3       1 SER1        0.0000 
      3 OG        109.2700  115.9900  -91.4600 O.3       1 SER1        0.0000 
      4 OG        109.9700  116.7400  -92.5600 O.3       1 SER1        0.0000 
      5 OG        110.6600  117.4900  -93.6500 O.3       1 SER1        0.0000 
      6 OG        109.3700  118.1700  -94.0000 O.3       1 SER1        0.0000 
      7 OG        109.6000  117.0900  -90.5000 O.3       1 SER1        0.0000 
      8 OG        110.2900  117.8400  -91.6000 O.3       1 SER1        0.0000 
      9 OG        109.0000  118.5300  -91.9400 O.3       1 SER1        0.0000 
     10 OG        109.6900  119.2800  -93.0400 O.3       1 SER1        0.0000 
     11 OG        111.9000  118.2700  -90.2800 O.3       1 SER1        0.0000 
     12 OG        110.6100  118.9500  -90.6300 O.3       1 SER1        0.0000 
     13 OG        111.5300  118.6200  -88.2300 O.3       1 SER1        0.0000 
     14 OG        110.2400  119.3000  -88.5800 O.3       1 SER1        0.0000 
     15 OG        110.5700  120.4100  -87.6100 O.3       1 SER1        0.0000 
     16 N         112.9700  118.6700  -93.4400 N.am      2 ALA2        0.0000 
     17 N         111.6800  119.3500  -93.7900 N.am      2 ALA2        0.0000 
     18 N         112.3700  120.1000  -94.8900 N.am      2 ALA2        0.0000 
     19 N         110.3900  120.0300  -94.1400 N.am      2 ALA2        0.0000 
     20 N         109.1000  120.7100  -94.4900 N.am      2 ALA2        0.0000 
     21 O         109.2800  121.0900  -87.9600 O.2       2 ALA2        0.0000 
     22 CZ        110.0700  118.9300  -95.1000 C.ar      3 PHE5        0.0000 
     23 CZ        110.8400  117.8700  -87.1300 C.ar      3 PHE5        0.0000 
     24 CZ        109.8700  119.6500  -86.5200 C.ar      3 PHE5        0.0000 
     25 CA        111.3500  118.2400  -94.7500 C.3       4 GLY6        0.0000 
     26 CA        112.2700  117.9100  -92.3400 C.3       4 GLY6        0.0000 
     27 CA        108.2100  115.5900  -88.3100 C.3       4 GLY6        0.0000 
     28 CA        111.0800  120.7800  -95.2300 C.3       4 GLY6        0.0000 
     29 CA        108.4000  119.9600  -93.3900 C.3       4 GLY6        0.0000 
     30 CA        112.6000  119.0200  -91.3800 C.3       4 GLY6        0.0000 
     31 CA        108.5300  116.6900  -87.3400 C.3       4 GLY6        0.0000 
     32 CA        109.2300  117.4500  -88.4400 C.3       4 GLY6        0.0000 
     33 CA        111.3100  119.7000  -91.7300 C.3       4 GLY6        0.0000 
     34 CA        112.0000  120.4500  -92.8300 C.3       4 GLY6        0.0000 
     35 CA        108.6300  118.8800  -89.8900 C.3       4 GLY6        0.0000 
     36 CA        109.3200  119.6300  -90.9800 C.3       4 GLY6        0.0000 
     37 CA        110.0200  120.3800  -92.0800 C.3       4 GLY6        0.0000 
     38 CA        110.7100  121.1300  -93.1800 C.3       4 GLY6        0.0000 
     39 CA        108.8500  117.8000  -86.3800 C.3       4 GLY6        0.0000 
     40 CA        109.5500  118.5500  -87.4800 C.3       4 GLY6        0.0000 
     41 CA        108.9500  119.9800  -88.9200 C.3       4 GLY6        0.0000 
     42 CA        109.6500  120.7400  -90.0200 C.3       4 GLY6        0.0000 
     43 CA        108.5800  120.3400  -86.8700 C.3       4 GLY6        0.0000 
     44 DU        111.9500  116.8100  -93.3100 H         5 CUB7        0.0000 
     45 DU        110.1900  115.6600  -89.0500 H         5 CUB7        0.0000 
     46 DU        110.8900  116.4100  -90.1500 H         5 CUB7        0.0000 
     47 DU        111.5800  117.1600  -91.2500 H         5 CUB7        0.0000 
     48 DU        110.9800  118.6000  -92.6900 H         5 CUB7        0.0000 
     49 DU        110.5100  116.7600  -88.0900 H         5 CUB7        0.0000 
     50 DU        111.2100  117.5200  -89.1900 H         5 CUB7        0.0000 
     51 DU        109.9200  118.2000  -89.5400 H         5 CUB7        0.0000 
@<TRIPOS>BOND
@<TRIPOS>SUBSTRUCTURE
     1 SER1        1 GROUP   
     2 ALA2       16 GROUP   
     3 PHE5       22 GROUP   
     4 GLY6       25 GROUP   
     5 CUB7       44 GROUP   
@<TRIPOS>SET

