#    Name: 5ysh_1_5AD
#    Modification time : Fri May 22 19:23:24 2020

@<TRIPOS>MOLECULE
5ysh_1_5AD
   11    12     1     0     0
SMALL
NO_CHARGES


@<TRIPOS>ATOM
      1 N1        109.4850  119.9970  -95.3580 N.ar      1 5AD605      0.0000 
      2 C2        108.7130  119.0450  -94.7790 C.ar      1 5AD605      0.0000 
      3 N3        108.6660  118.8200  -93.4510 N.ar      1 5AD605      0.0000 
      4 C4        109.4150  119.5540  -92.5840 C.ar      1 5AD605      0.0000 
      5 N9        109.5990  119.5840  -91.2490 N.pl3     1 5AD605      0.0000 
      6 C8        110.4850  120.5520  -90.9630 C.2       1 5AD605      0.0000 
      7 N7        110.9070  121.1700  -92.0950 N.2       1 5AD605      0.0000 
      8 C5        110.2730  120.6180  -93.1420 C.ar      1 5AD605      0.0000 
      9 C6        110.2860  120.8040  -94.6130 C.ar      1 5AD605      0.0000 
     10 N6        111.0770  121.7610  -95.1590 N.pl3     1 5AD605      0.0000 
     11 C1'       108.9420  118.7010  -90.2400 C.3       1 5AD605      0.0000 
@<TRIPOS>BOND
     1    1    2 ar   
     2    1    9 ar   
     3    2    3 ar   
     4    3    4 ar   
     5    4    5 1    
     6    4    8 ar   
     7    5    6 1    
     8    5   11 1    
     9    6    7 2    
    10    7    8 1    
    11    8    9 ar   
    12    9   10 1    
@<TRIPOS>SUBSTRUCTURE
     1 5AD605      1 GROUP   
@<TRIPOS>SET

