#    Name: 5ysh_1_5AD_CAVITY_N1_6
#    Modification time : Fri May 22 19:23:24 2020

@<TRIPOS>MOLECULE
5ysh_1_5AD_CAVITY_N1_6
   81     0     6     0     0
SMALL
NO_CHARGES


@<TRIPOS>ATOM
      1 OG        110.9300  114.9500  -93.1700 O.3       1 SER1        0.0000 
      2 OG        111.6300  115.7100  -94.2700 O.3       1 SER1        0.0000 
      3 OG        111.2600  116.0600  -92.2100 O.3       1 SER1        0.0000 
      4 OG        108.5800  115.2400  -90.3600 O.3       1 SER1        0.0000 
      5 OG        109.2700  115.9900  -91.4600 O.3       1 SER1        0.0000 
      6 OG        109.9700  116.7400  -92.5600 O.3       1 SER1        0.0000 
      7 OG        110.6600  117.4900  -93.6500 O.3       1 SER1        0.0000 
      8 OG        109.3700  118.1700  -94.0000 O.3       1 SER1        0.0000 
      9 OG        109.6000  117.0900  -90.5000 O.3       1 SER1        0.0000 
     10 OG        110.2900  117.8400  -91.6000 O.3       1 SER1        0.0000 
     11 OG        109.0000  118.5300  -91.9400 O.3       1 SER1        0.0000 
     12 OG        109.6900  119.2800  -93.0400 O.3       1 SER1        0.0000 
     13 OG        111.9000  118.2700  -90.2800 O.3       1 SER1        0.0000 
     14 OG        107.8400  115.9400  -86.2500 O.3       1 SER1        0.0000 
     15 OG        110.6100  118.9500  -90.6300 O.3       1 SER1        0.0000 
     16 OG        111.5300  118.6200  -88.2300 O.3       1 SER1        0.0000 
     17 OG        110.2400  119.3000  -88.5800 O.3       1 SER1        0.0000 
     18 OG        111.8600  119.7200  -87.2600 O.3       1 SER1        0.0000 
     19 OG        110.5700  120.4100  -87.6100 O.3       1 SER1        0.0000 
     20 N         113.9300  116.8800  -94.0500 N.am      2 ALA2        0.0000 
     21 N         114.6300  117.6300  -95.1500 N.am      2 ALA2        0.0000 
     22 N         112.6400  117.5600  -94.4000 N.am      2 ALA2        0.0000 
     23 N         113.3400  118.3100  -95.5000 N.am      2 ALA2        0.0000 
     24 N         107.1900  113.7300  -88.1700 N.am      2 ALA2        0.0000 
     25 N         107.8800  114.4800  -89.2700 N.am      2 ALA2        0.0000 
     26 N         114.2600  117.9900  -93.0900 N.am      2 ALA2        0.0000 
     27 N         108.8000  114.1500  -86.8600 N.am      2 ALA2        0.0000 
     28 N         112.9700  118.6700  -93.4400 N.am      2 ALA2        0.0000 
     29 N         107.5100  114.8400  -87.2100 N.am      2 ALA2        0.0000 
     30 N         111.6800  119.3500  -93.7900 N.am      2 ALA2        0.0000 
     31 N         112.3700  120.1000  -94.8900 N.am      2 ALA2        0.0000 
     32 N         110.3900  120.0300  -94.1400 N.am      2 ALA2        0.0000 
     33 N         109.1000  120.7100  -94.4900 N.am      2 ALA2        0.0000 
     34 N         109.1300  115.2600  -85.9000 N.am      2 ALA2        0.0000 
     35 O         109.2800  121.0900  -87.9600 O.2       2 ALA2        0.0000 
     36 N         109.6000  122.1900  -87.0000 N.am      2 ALA2        0.0000 
     37 NZ        107.5600  113.3800  -90.2300 N.4       3 LYS4        0.0000 
     38 NZ        108.9100  121.4400  -85.9000 N.4       3 LYS4        0.0000 
     39 CZ        110.0700  118.9300  -95.1000 C.ar      4 PHE5        0.0000 
     40 CZ        111.4300  116.4300  -85.6800 C.ar      4 PHE5        0.0000 
     41 CZ        110.1400  117.1200  -86.0300 C.ar      4 PHE5        0.0000 
     42 CZ        110.8400  117.8700  -87.1300 C.ar      4 PHE5        0.0000 
     43 CZ        113.1500  119.0400  -86.9200 C.ar      4 PHE5        0.0000 
     44 CZ        109.8700  119.6500  -86.5200 C.ar      4 PHE5        0.0000 
     45 CZ        110.8900  121.5100  -86.6500 C.ar      4 PHE5        0.0000 
     46 CA        113.6100  115.7800  -95.0200 C.3       5 GLY6        0.0000 
     47 CA        114.3100  116.5300  -96.1100 C.3       5 GLY6        0.0000 
     48 CA        112.3200  116.4600  -95.3600 C.3       5 GLY6        0.0000 
     49 CA        111.3500  118.2400  -94.7500 C.3       5 GLY6        0.0000 
     50 CA        112.2700  117.9100  -92.3400 C.3       5 GLY6        0.0000 
     51 CA        108.2100  115.5900  -88.3100 C.3       5 GLY6        0.0000 
     52 CA        111.0800  120.7800  -95.2300 C.3       5 GLY6        0.0000 
     53 CA        108.4000  119.9600  -93.3900 C.3       5 GLY6        0.0000 
     54 CA        112.6000  119.0200  -91.3800 C.3       5 GLY6        0.0000 
     55 CA        108.5300  116.6900  -87.3400 C.3       5 GLY6        0.0000 
     56 CA        109.2300  117.4500  -88.4400 C.3       5 GLY6        0.0000 
     57 CA        111.3100  119.7000  -91.7300 C.3       5 GLY6        0.0000 
     58 CA        112.0000  120.4500  -92.8300 C.3       5 GLY6        0.0000 
     59 CA        108.6300  118.8800  -89.8900 C.3       5 GLY6        0.0000 
     60 CA        109.3200  119.6300  -90.9800 C.3       5 GLY6        0.0000 
     61 CA        110.0200  120.3800  -92.0800 C.3       5 GLY6        0.0000 
     62 CA        110.7100  121.1300  -93.1800 C.3       5 GLY6        0.0000 
     63 CA        109.4500  116.3600  -84.9400 C.3       5 GLY6        0.0000 
     64 CA        108.8500  117.8000  -86.3800 C.3       5 GLY6        0.0000 
     65 CA        109.5500  118.5500  -87.4800 C.3       5 GLY6        0.0000 
     66 CA        108.9500  119.9800  -88.9200 C.3       5 GLY6        0.0000 
     67 CA        109.6500  120.7400  -90.0200 C.3       5 GLY6        0.0000 
     68 CA        108.5800  120.3400  -86.8700 C.3       5 GLY6        0.0000 
     69 DU        113.2400  116.1300  -92.9600 H         6 CUB7        0.0000 
     70 DU        109.1700  113.8000  -88.9200 H         6 CUB7        0.0000 
     71 DU        111.9500  116.8100  -93.3100 H         6 CUB7        0.0000 
     72 DU        109.5000  114.9100  -87.9600 H         6 CUB7        0.0000 
     73 DU        110.1900  115.6600  -89.0500 H         6 CUB7        0.0000 
     74 DU        110.8900  116.4100  -90.1500 H         6 CUB7        0.0000 
     75 DU        111.5800  117.1600  -91.2500 H         6 CUB7        0.0000 
     76 DU        110.9800  118.6000  -92.6900 H         6 CUB7        0.0000 
     77 DU        111.1100  115.3300  -86.6500 H         6 CUB7        0.0000 
     78 DU        109.8200  116.0100  -86.9900 H         6 CUB7        0.0000 
     79 DU        110.5100  116.7600  -88.0900 H         6 CUB7        0.0000 
     80 DU        111.2100  117.5200  -89.1900 H         6 CUB7        0.0000 
     81 DU        109.9200  118.2000  -89.5400 H         6 CUB7        0.0000 
@<TRIPOS>BOND
@<TRIPOS>SUBSTRUCTURE
     1 SER1        1 GROUP   
     2 ALA2       20 GROUP   
     3 LYS4       37 GROUP   
     4 PHE5       39 GROUP   
     5 GLY6       46 GROUP   
     6 CUB7       69 GROUP   
@<TRIPOS>SET

