#    Name: 5zm7_1_CLR
#    Modification time : Fri May 22 19:31:36 2020

@<TRIPOS>MOLECULE
5zm7_1_CLR
   28    31     1     0     0
SMALL
NO_CHARGES


@<TRIPOS>ATOM
      1 C1        -32.6360   15.0220  -18.2100 C.3       1 CLR1001     0.0000 
      2 C2        -33.1440   16.3860  -17.7590 C.3       1 CLR1001     0.0000 
      3 C3        -33.8860   16.2570  -16.4360 C.3       1 CLR1001     0.0000 
      4 C4        -32.9180   15.7690  -15.3660 C.3       1 CLR1001     0.0000 
      5 C5        -32.2270   14.5030  -15.8180 C.2       1 CLR1001     0.0000 
      6 C6        -32.1390   13.4820  -14.9450 C.2       1 CLR1001     0.0000 
      7 C7        -31.5990   12.1170  -15.3140 C.3       1 CLR1001     0.0000 
      8 C8        -30.6610   12.2190  -16.5080 C.3       1 CLR1001     0.0000 
      9 C9        -31.3320   12.9940  -17.6380 C.3       1 CLR1001     0.0000 
     10 C10       -31.6420   14.4300  -17.2160 C.3       1 CLR1001     0.0000 
     11 C11       -30.5280   12.9740  -18.9450 C.3       1 CLR1001     0.0000 
     12 C12       -30.0370   11.5830  -19.3500 C.3       1 CLR1001     0.0000 
     13 C13       -29.2860   10.9800  -18.1790 C.3       1 CLR1001     0.0000 
     14 C14       -30.2610   10.8500  -17.0320 C.3       1 CLR1001     0.0000 
     15 C15       -29.6020    9.8830  -16.0570 C.3       1 CLR1001     0.0000 
     16 C16       -28.7620    8.9630  -16.9470 C.3       1 CLR1001     0.0000 
     17 C17       -28.7870    9.5540  -18.3570 C.3       1 CLR1001     0.0000 
     18 C18       -28.1310   11.9030  -17.7890 C.3       1 CLR1001     0.0000 
     19 C19       -30.3590   15.2510  -17.2300 C.3       1 CLR1001     0.0000 
     20 C20       -27.4370    9.4430  -19.0590 C.3       1 CLR1001     0.0000 
     21 C21       -27.4920   10.0650  -20.4490 C.3       1 CLR1001     0.0000 
     22 C22       -26.9740    7.9930  -19.1270 C.3       1 CLR1001     0.0000 
     23 C23       -25.7280    7.8580  -19.9940 C.3       1 CLR1001     0.0000 
     24 C24       -24.7690    6.8250  -19.4140 C.3       1 CLR1001     0.0000 
     25 C25       -25.1760    5.4140  -19.8180 C.3       1 CLR1001     0.0000 
     26 C26       -25.4100    5.3220  -21.3210 C.3       1 CLR1001     0.0000 
     27 C27       -24.1380    4.3950  -19.3630 C.3       1 CLR1001     0.0000 
     28 O1        -34.4130   17.5340  -16.0570 O.3       1 CLR1001     0.0000 
@<TRIPOS>BOND
     1    1    2 1    
     2    1   10 1    
     3    2    3 1    
     4    3    4 1    
     5    3   28 1    
     6    4    5 1    
     7    5    6 2    
     8    5   10 1    
     9    6    7 1    
    10    7    8 1    
    11    8    9 1    
    12    8   14 1    
    13    9   10 1    
    14    9   11 1    
    15   10   19 1    
    16   11   12 1    
    17   12   13 1    
    18   13   14 1    
    19   13   17 1    
    20   13   18 1    
    21   14   15 1    
    22   15   16 1    
    23   16   17 1    
    24   17   20 1    
    25   20   21 1    
    26   20   22 1    
    27   22   23 1    
    28   23   24 1    
    29   24   25 1    
    30   25   26 1    
    31   25   27 1    
@<TRIPOS>SUBSTRUCTURE
     1 CLR1001     1 GROUP   
@<TRIPOS>SET

