#    Name: 6c3p_12_ATP_CAVITY_N1_4
#    Modification time : Fri May 22 19:31:25 2020

@<TRIPOS>MOLECULE
6c3p_12_ATP_CAVITY_N1_4
  121     0     6     0     0
SMALL
NO_CHARGES


@<TRIPOS>ATOM
      1 OG        114.0400  230.9000  154.4000 O.3       1 SER1        0.0000 
      2 OG        117.6100  232.6800  152.3300 O.3       1 SER1        0.0000 
      3 OG        119.6300  233.1000  151.8400 O.3       1 SER1        0.0000 
      4 OG        119.5500  231.8100  154.9300 O.3       1 SER1        0.0000 
      5 OG        119.0900  232.7500  153.8600 O.3       1 SER1        0.0000 
      6 OG        118.6300  233.6900  152.7800 O.3       1 SER1        0.0000 
      7 OG        117.6200  234.2800  153.7300 O.3       1 SER1        0.0000 
      8 OG        121.1100  233.1800  153.3600 O.3       1 SER1        0.0000 
      9 OG        120.1000  233.7600  154.3100 O.3       1 SER1        0.0000 
     10 OG        118.6300  235.2900  154.1700 O.3       1 SER1        0.0000 
     11 OG        118.1700  236.2300  153.1000 O.3       1 SER1        0.0000 
     12 OG        122.5800  233.2500  154.8800 O.3       1 SER1        0.0000 
     13 OG        121.9500  231.6100  160.0000 O.3       1 SER1        0.0000 
     14 OG        124.4300  231.0900  160.5800 O.3       1 SER1        0.0000 
     15 N         115.1300  231.6000  150.3600 N.am      2 ALA2        0.0000 
     16 N         113.6600  233.1300  150.2300 N.am      2 ALA2        0.0000 
     17 N         116.1400  232.6100  150.8100 N.am      2 ALA2        0.0000 
     18 O         116.0600  231.3200  153.9000 O.2       2 ALA2        0.0000 
     19 N         115.1300  233.2000  151.7500 N.am      2 ALA2        0.0000 
     20 N         114.2100  235.0800  149.6000 N.am      2 ALA2        0.0000 
     21 O         115.0500  231.9100  154.8500 O.2       2 ALA2        0.0000 
     22 N         113.6700  234.7200  151.6200 N.am      2 ALA2        0.0000 
     23 N         113.2100  235.6600  150.5500 N.am      2 ALA2        0.0000 
     24 O         117.0700  232.3300  154.3500 O.2       2 ALA2        0.0000 
     25 N         116.6100  233.2700  153.2800 N.am      2 ALA2        0.0000 
     26 N         116.1500  234.2100  152.2000 N.am      2 ALA2        0.0000 
     27 O         116.0600  232.9200  155.3000 O.2       2 ALA2        0.0000 
     28 N         115.1400  234.8000  153.1500 N.am      2 ALA2        0.0000 
     29 N         114.6800  235.7400  152.0700 N.am      2 ALA2        0.0000 
     30 N         114.2200  236.6700  151.0000 N.am      2 ALA2        0.0000 
     31 N         114.9700  232.2200  159.3400 N.am      2 ALA2        0.0000 
     32 N         114.5100  233.1600  158.2600 N.am      2 ALA2        0.0000 
     33 N         114.0500  234.1000  157.1900 N.am      2 ALA2        0.0000 
     34 N         113.5100  233.7400  159.2100 N.am      2 ALA2        0.0000 
     35 N         118.1700  234.6300  151.7100 N.am      2 ALA2        0.0000 
     36 O         118.5400  232.4000  155.8800 O.2       2 ALA2        0.0000 
     37 N         118.0800  233.3400  154.8000 N.am      2 ALA2        0.0000 
     38 N         117.1600  235.2200  152.6500 N.am      2 ALA2        0.0000 
     39 N         117.5400  232.9900  156.8200 N.am      2 ALA2        0.0000 
     40 N         117.0800  233.9300  155.7500 N.am      2 ALA2        0.0000 
     41 N         116.6200  234.8700  154.6700 N.am      2 ALA2        0.0000 
     42 N         115.6900  236.7500  152.5200 N.am      2 ALA2        0.0000 
     43 O         115.2300  237.6900  151.4500 O.2       2 ALA2        0.0000 
     44 N         116.9900  232.6400  158.8400 N.am      2 ALA2        0.0000 
     45 N         116.0700  234.5200  156.6900 N.am      2 ALA2        0.0000 
     46 N         115.6100  235.4600  155.6200 N.am      2 ALA2        0.0000 
     47 N         115.0600  235.1100  157.6400 N.am      2 ALA2        0.0000 
     48 N         114.0600  235.6900  158.5800 N.am      2 ALA2        0.0000 
     49 N         119.5600  233.4100  156.3300 N.am      2 ALA2        0.0000 
     50 N         119.0900  234.3500  155.2500 N.am      2 ALA2        0.0000 
     51 N         119.4700  232.1200  159.4200 N.am      2 ALA2        0.0000 
     52 N         119.0100  233.0600  158.3500 N.am      2 ALA2        0.0000 
     53 N         124.0500  231.7200  155.0100 N.am      2 ALA2        0.0000 
     54 N         123.5900  232.6600  153.9400 N.am      2 ALA2        0.0000 
     55 N         121.5700  233.8400  155.8300 N.am      2 ALA2        0.0000 
     56 N         121.4900  232.5500  158.9200 N.am      2 ALA2        0.0000 
     57 N         121.0300  233.4900  157.8500 N.am      2 ALA2        0.0000 
     58 N         120.5700  234.4200  156.7700 N.am      2 ALA2        0.0000 
     59 N         123.0500  233.9100  157.3500 N.am      2 ALA2        0.0000 
     60 N         122.5900  234.8500  156.2800 N.am      2 ALA2        0.0000 
     61 N         122.9600  232.6200  160.4500 N.am      2 ALA2        0.0000 
     62 N         122.0400  234.5000  158.3000 N.am      2 ALA2        0.0000 
     63 NZ        123.9700  232.0300  159.5000 N.4       3 LYS4        0.0000 
     64 NZ        123.5100  232.9700  158.4300 N.4       3 LYS4        0.0000 
     65 CZ        114.5000  231.5600  156.8700 C.ar      4 PHE5        0.0000 
     66 CZ        114.0400  232.5000  155.7900 C.ar      4 PHE5        0.0000 
     67 CZ        113.9600  231.2100  158.8900 C.ar      4 PHE5        0.0000 
     68 CZ        113.5000  232.1500  157.8100 C.ar      4 PHE5        0.0000 
     69 CZ        115.9800  231.6300  158.3900 C.ar      4 PHE5        0.0000 
     70 CZ        115.5200  232.5700  157.3200 C.ar      4 PHE5        0.0000 
     71 CZ        118.0000  232.0500  157.9000 C.ar      4 PHE5        0.0000 
     72 CZ        115.1500  236.4000  154.5400 C.ar      4 PHE5        0.0000 
     73 CZ        114.6900  237.3400  153.4600 C.ar      4 PHE5        0.0000 
     74 CZ        114.6000  236.0500  156.5600 C.ar      4 PHE5        0.0000 
     75 CZ        114.1400  236.9800  155.4800 C.ar      4 PHE5        0.0000 
     76 CZ        113.6800  237.9200  154.4100 C.ar      4 PHE5        0.0000 
     77 CZ        113.6000  236.6300  157.5000 C.ar      4 PHE5        0.0000 
     78 CZ        122.0300  231.3000  155.5100 C.ar      4 PHE5        0.0000 
     79 CZ        121.0200  231.8900  156.4600 C.ar      4 PHE5        0.0000 
     80 CZ        120.5600  232.8300  155.3800 C.ar      4 PHE5        0.0000 
     81 CZ        120.4800  231.5400  158.4800 C.ar      4 PHE5        0.0000 
     82 CZ        120.0200  232.4700  157.4000 C.ar      4 PHE5        0.0000 
     83 CZ        117.1700  236.8200  154.0400 C.ar      4 PHE5        0.0000 
     84 CZ        115.7000  238.3500  153.9100 C.ar      4 PHE5        0.0000 
     85 CZ        122.9600  231.0200  159.0500 C.ar      4 PHE5        0.0000 
     86 CZ        122.5000  231.9600  157.9800 C.ar      4 PHE5        0.0000 
     87 CZ        122.0300  232.9000  156.9000 C.ar      4 PHE5        0.0000 
     88 CA        115.5900  230.6600  151.4300 C.3       5 GLY6        0.0000 
     89 CA        114.5800  231.2500  152.3800 C.3       5 GLY6        0.0000 
     90 CA        113.5800  231.8400  153.3200 C.3       5 GLY6        0.0000 
     91 CA        116.6000  231.6700  151.8800 C.3       5 GLY6        0.0000 
     92 CA        115.5900  232.2600  152.8300 C.3       5 GLY6        0.0000 
     93 CA        118.6200  232.0900  151.3900 C.3       5 GLY6        0.0000 
     94 CA        113.2100  237.2600  151.9400 C.3       5 GLY6        0.0000 
     95 CA        112.6700  236.9100  153.9600 C.3       5 GLY6        0.0000 
     96 CA        114.2300  238.2700  152.3900 C.3       5 GLY6        0.0000 
     97 CA        123.0300  230.7100  154.5700 C.3       5 GLY6        0.0000 
     98 CA        122.5700  231.6500  153.4900 C.3       5 GLY6        0.0000 
     99 CA        117.6300  235.8800  155.1200 C.3       5 GLY6        0.0000 
    100 CA        116.7100  237.7600  152.9700 C.3       5 GLY6        0.0000 
    101 CA        123.9600  230.4300  158.1100 C.3       5 GLY6        0.0000 
    102 CA        123.5000  231.3700  157.0300 C.3       5 GLY6        0.0000 
    103 CA        123.4200  230.0800  160.1300 C.3       5 GLY6        0.0000 
    104 CA        123.5900  234.2600  155.3300 C.3       5 GLY6        0.0000 
    105 DU        114.1200  232.1900  151.3000 H         6 CUB7        0.0000 
    106 DU        113.1100  232.7700  152.2500 H         6 CUB7        0.0000 
    107 DU        112.6500  233.7100  151.1700 H         6 CUB7        0.0000 
    108 DU        114.5900  232.8500  153.7700 H         6 CUB7        0.0000 
    109 DU        114.1300  233.7900  152.7000 H         6 CUB7        0.0000 
    110 DU        112.2000  236.2500  151.4900 H         6 CUB7        0.0000 
    111 DU        115.6000  233.8600  154.2200 H         6 CUB7        0.0000 
    112 DU        115.0600  233.5100  156.2400 H         6 CUB7        0.0000 
    113 DU        114.6000  234.4500  155.1700 H         6 CUB7        0.0000 
    114 DU        114.1400  235.3900  154.0900 H         6 CUB7        0.0000 
    115 DU        113.6700  236.3200  153.0200 H         6 CUB7        0.0000 
    116 DU        113.5900  235.0300  156.1100 H         6 CUB7        0.0000 
    117 DU        113.1300  235.9700  155.0400 H         6 CUB7        0.0000 
    118 DU        112.5900  235.6200  157.0600 H         6 CUB7        0.0000 
    119 DU        116.1500  235.8100  153.6000 H         6 CUB7        0.0000 
    120 DU        123.0400  232.3100  155.9600 H         6 CUB7        0.0000 
    121 DU        124.0500  233.3200  156.4100 H         6 CUB7        0.0000 
@<TRIPOS>BOND
@<TRIPOS>SUBSTRUCTURE
     1 SER1        1 GROUP   
     2 ALA2       15 GROUP   
     3 LYS4       63 GROUP   
     4 PHE5       65 GROUP   
     5 GLY6       88 GROUP   
     6 CUB7      105 GROUP   
@<TRIPOS>SET

