#    Name: 6c3p_6_ATP
#    Modification time : Fri May 22 19:29:26 2020

@<TRIPOS>MOLECULE
6c3p_6_ATP
   31    33     1     0     1
SMALL
NO_CHARGES


@<TRIPOS>ATOM
      1 PG        236.8050  267.3540  149.3620 P.3       1 ATP2004     0.0000 
      2 O1G       236.0440  267.2920  148.0620 O.co2     1 ATP2004     0.0000 
      3 O2G       237.5730  266.1140  149.7360 O.co2     1 ATP2004     0.0000 
      4 O3G       237.5370  268.6460  149.6000 O.co2     1 ATP2004     0.0000 
      5 PB        234.4270  268.4270  150.2120 P.3       1 ATP2004     0.0000 
      6 O1B       234.8890  269.5970  149.3910 O.co2     1 ATP2004     0.0000 
      7 O2B       233.2520  267.6480  149.7200 O.co2     1 ATP2004     0.0000 
      8 O3B       235.6340  267.4030  150.4440 O.3       1 ATP2004     0.0000 
      9 PA        232.8320  269.7100  152.0640 P.3       1 ATP2004     0.0000 
     10 O1A       232.1300  269.9380  150.7590 O.co2     1 ATP2004     0.0000 
     11 O2A       232.1050  269.0340  153.2000 O.co2     1 ATP2004     0.0000 
     12 O3A       234.1600  268.8820  151.7250 O.3       1 ATP2004     0.0000 
     13 O5'       233.4650  271.0980  152.5860 O.3       1 ATP2004     0.0000 
     14 C5'       232.9260  272.3710  152.2370 C.3       1 ATP2004     0.0000 
     15 C4'       233.4850  273.4410  153.1700 C.3       1 ATP2004     0.0000 
     16 O4'       232.8520  273.3410  154.4450 O.3       1 ATP2004     0.0000 
     17 C3'       234.9830  273.2920  153.3910 C.3       1 ATP2004     0.0000 
     18 O3'       235.6540  274.4870  152.9890 O.3       1 ATP2004     0.0000 
     19 C2'       235.1840  273.0850  154.8780 C.3       1 ATP2004     0.0000 
     20 O2'       236.0990  274.0550  155.3930 O.3       1 ATP2004     0.0000 
     21 C1'       233.8120  273.2730  155.5010 C.3       1 ATP2004     0.0000 
     22 N9        233.4970  272.1000  156.3400 N.pl3     1 ATP2004     0.0000 
     23 C8        233.6670  270.8170  155.9800 C.2       1 ATP2004     0.0000 
     24 N7        233.2800  269.9780  156.9690 N.2       1 ATP2004     0.0000 
     25 C5        232.8570  270.7370  157.9900 C.ar      1 ATP2004     0.0000 
     26 C6        232.3150  270.4880  159.3370 C.ar      1 ATP2004     0.0000 
     27 N6        232.1550  269.2270  159.7950 N.pl3     1 ATP2004     0.0000 
     28 N1        231.9900  271.5600  160.0860 N.ar      1 ATP2004     0.0000 
     29 C2        232.1510  272.8150  159.6330 C.ar      1 ATP2004     0.0000 
     30 N3        232.6370  273.1160  158.4200 N.ar      1 ATP2004     0.0000 
     31 C4        233.0020  272.1340  157.5690 C.ar      1 ATP2004     0.0000 
@<TRIPOS>BOND
     1    1    2 ar   
     2    1    3 ar   
     3    1    4 ar   
     4    1    8 1    
     5    5    6 ar   
     6    5    7 ar   
     7    5    8 1    
     8    5   12 1    
     9    9   10 ar   
    10    9   11 ar   
    11    9   12 1    
    12    9   13 1    
    13   13   14 1    
    14   14   15 1    
    15   15   16 1    
    16   15   17 1    
    17   16   21 1    
    18   17   18 1    
    19   17   19 1    
    20   19   20 1    
    21   19   21 1    
    22   21   22 1    
    23   22   23 1    
    24   22   31 1    
    25   23   24 2    
    26   24   25 1    
    27   25   26 ar   
    28   25   31 ar   
    29   26   27 1    
    30   26   28 ar   
    31   28   29 ar   
    32   29   30 ar   
    33   30   31 ar   
@<TRIPOS>SUBSTRUCTURE
     1 ATP2004     1 GROUP   
@<TRIPOS>SET
ATOM$ORANGE STATIC     ATOMS   COLORGROUP SYSTEM 
20 14 14 15 15 17 17 19 19 21 21 23 23 25 25 26 26 29 \
29 31 31 

