#    Name: 6c3p_9_ADP_CAVITY_N1_4
#    Modification time : Fri May 22 19:30:26 2020

@<TRIPOS>MOLECULE
6c3p_9_ADP_CAVITY_N1_4
   32     0     5     0     0
SMALL
NO_CHARGES


@<TRIPOS>ATOM
      1 OG        137.0900  138.2400  155.6700 O.3       1 SER1        0.0000 
      2 OG        142.7600  138.5300  147.2300 O.3       1 SER1        0.0000 
      3 OG        141.7500  139.1200  148.1700 O.3       1 SER1        0.0000 
      4 OG        140.1200  138.0700  154.2300 O.3       1 SER1        0.0000 
      5 OG        139.1100  138.6600  155.1800 O.3       1 SER1        0.0000 
      6 OG        138.1100  139.2500  156.1200 O.3       1 SER1        0.0000 
      7 OG        143.7700  139.5400  147.6800 O.3       1 SER1        0.0000 
      8 OG        143.2200  139.1900  149.7000 O.3       1 SER1        0.0000 
      9 OG        141.7600  140.7200  149.5700 O.3       1 SER1        0.0000 
     10 OG        141.1300  139.0800  154.6800 O.3       1 SER1        0.0000 
     11 OG        139.6600  140.6100  154.5500 O.3       1 SER1        0.0000 
     12 OG        138.6600  141.2000  155.5000 O.3       1 SER1        0.0000 
     13 OG        144.2400  140.2000  150.1500 O.3       1 SER1        0.0000 
     14 OG        143.2300  140.7900  151.0900 O.3       1 SER1        0.0000 
     15 OG        142.2300  141.3800  152.0400 O.3       1 SER1        0.0000 
     16 OG        141.7700  142.3200  150.9600 O.3       1 SER1        0.0000 
     17 OG        142.1400  140.0900  155.1300 O.3       1 SER1        0.0000 
     18 OD1       141.2800  138.4600  145.7100 O.co2     2 ASP3        0.0000 
     19 OD1       141.2000  137.1700  148.8000 O.co2     2 ASP3        0.0000 
     20 OD1       140.7400  138.1100  147.7300 O.co2     2 ASP3        0.0000 
     21 OD1       142.2100  138.1800  149.2500 O.co2     2 ASP3        0.0000 
     22 OD1       140.7500  139.7100  149.1200 O.co2     2 ASP3        0.0000 
     23 OD1       141.1200  137.4800  153.2900 O.co2     2 ASP3        0.0000 
     24 OD1       142.6800  138.8400  151.7200 O.co2     2 ASP3        0.0000 
     25 OD1       142.2200  139.7800  150.6400 O.co2     2 ASP3        0.0000 
     26 OD1       142.1400  138.4900  153.7400 O.co2     2 ASP3        0.0000 
     27 OD1       141.6700  139.4300  152.6600 O.co2     2 ASP3        0.0000 
     28 OD1       141.2100  140.3700  151.5900 O.co2     2 ASP3        0.0000 
     29 OD1       140.7500  141.3100  150.5100 O.co2     2 ASP3        0.0000 
     30 NZ        140.1900  136.1600  148.3500 N.4       3 LYS4        0.0000 
     31 CA        142.3000  139.4700  146.1500 C.3       4 GLY6        0.0000 
     32 DU        140.1200  139.6700  155.6300 H         5 CUB7        0.0000 
@<TRIPOS>BOND
@<TRIPOS>SUBSTRUCTURE
     1 SER1        1 GROUP   
     2 ASP3       18 GROUP   
     3 LYS4       30 GROUP   
     4 GLY6       31 GROUP   
     5 CUB7       32 GROUP   
@<TRIPOS>SET

