#    Name: 6c3p_7_ADP_CAVITY_N1_4
#    Modification time : Fri May 22 19:29:46 2020

@<TRIPOS>MOLECULE
6c3p_7_ADP_CAVITY_N1_4
   58     0     5     0     0
SMALL
NO_CHARGES


@<TRIPOS>ATOM
      1 OG        245.6800  137.6300  152.5600 O.3       1 SER1        0.0000 
      2 OG        247.7000  138.0500  152.0600 O.3       1 SER1        0.0000 
      3 OG        246.6900  138.6400  153.0100 O.3       1 SER1        0.0000 
      4 OG        249.1700  138.1200  153.5900 O.3       1 SER1        0.0000 
      5 OG        247.7100  139.6500  153.4600 O.3       1 SER1        0.0000 
      6 OG        247.2400  140.5900  152.3800 O.3       1 SER1        0.0000 
      7 OG        245.8600  143.4000  149.1500 O.3       1 SER1        0.0000 
      8 OG        245.7800  142.1100  152.2500 O.3       1 SER1        0.0000 
      9 OG        250.3500  141.7100  147.8400 O.3       1 SER1        0.0000 
     10 OG        250.1800  139.1300  154.0300 O.3       1 SER1        0.0000 
     11 OG        249.1800  139.7200  154.9800 O.3       1 SER1        0.0000 
     12 OG        248.7200  140.6600  153.9000 O.3       1 SER1        0.0000 
     13 OG        248.2600  141.6000  152.8300 O.3       1 SER1        0.0000 
     14 OG        247.8000  142.5400  151.7500 O.3       1 SER1        0.0000 
     15 OG        247.3400  143.4800  150.6800 O.3       1 SER1        0.0000 
     16 OG        251.3700  142.7200  148.2900 O.3       1 SER1        0.0000 
     17 OG        250.9100  143.6600  147.2200 O.3       1 SER1        0.0000 
     18 OG        250.3600  143.3100  149.2400 O.3       1 SER1        0.0000 
     19 OG        251.6600  139.2000  155.5600 O.3       1 SER1        0.0000 
     20 OG        251.2000  140.1400  154.4800 O.3       1 SER1        0.0000 
     21 OG        249.3600  143.9000  150.1800 O.3       1 SER1        0.0000 
     22 OG        249.7300  141.6700  154.3500 O.3       1 SER1        0.0000 
     23 O         246.2200  137.9800  150.5400 O.2       2 ALA2        0.0000 
     24 N         245.2200  138.5700  151.4800 N.am      2 ALA2        0.0000 
     25 N         244.7600  139.5000  150.4100 N.am      2 ALA2        0.0000 
     26 O         248.7000  137.4600  151.1200 O.2       2 ALA2        0.0000 
     27 O         248.2400  138.4000  150.0400 O.2       2 ALA2        0.0000 
     28 O         247.7800  139.3400  148.9700 O.2       2 ALA2        0.0000 
     29 O         248.8000  140.3500  149.4200 O.2       2 ALA2        0.0000 
     30 O         247.7900  140.9400  150.3600 O.2       2 ALA2        0.0000 
     31 N         253.8400  140.6100  147.4800 N.am      2 ALA2        0.0000 
     32 OD1       249.8000  139.7600  148.4700 O.co2     3 ASP3        0.0000 
     33 OD1       249.2600  139.4100  150.4900 O.co2     3 ASP3        0.0000 
     34 OD1       248.7100  139.0600  152.5100 O.co2     3 ASP3        0.0000 
     35 OD1       248.2500  140.0000  151.4400 O.co2     3 ASP3        0.0000 
     36 OD1       251.8200  140.1800  147.9800 O.co2     3 ASP3        0.0000 
     37 OD1       251.3600  141.1200  146.9000 O.co2     3 ASP3        0.0000 
     38 OD1       249.8100  141.3600  149.8600 O.co2     3 ASP3        0.0000 
     39 OD1       249.7200  140.0700  152.9600 O.co2     3 ASP3        0.0000 
     40 OD1       249.2600  141.0100  151.8800 O.co2     3 ASP3        0.0000 
     41 OD1       248.8000  141.9500  150.8100 O.co2     3 ASP3        0.0000 
     42 OD1       252.8300  141.1900  148.4200 O.co2     3 ASP3        0.0000 
     43 OD1       250.8200  142.3700  150.3100 O.co2     3 ASP3        0.0000 
     44 OD1       250.7400  141.0800  153.4100 O.co2     3 ASP3        0.0000 
     45 OD1       250.2800  142.0200  152.3300 O.co2     3 ASP3        0.0000 
     46 OD1       249.8200  142.9600  151.2600 O.co2     3 ASP3        0.0000 
     47 OD1       251.7500  142.0900  153.8600 O.co2     3 ASP3        0.0000 
     48 CA        247.2400  138.9900  150.9900 C.3       4 GLY6        0.0000 
     49 CA        245.7700  140.5200  150.8600 C.3       4 GLY6        0.0000 
     50 CA        249.7200  138.4700  151.5700 C.3       4 GLY6        0.0000 
     51 CA        246.7800  141.5300  151.3100 C.3       4 GLY6        0.0000 
     52 CA        246.3200  142.4700  150.2300 C.3       4 GLY6        0.0000 
     53 CA        252.3600  140.5300  145.9600 C.3       4 GLY6        0.0000 
     54 CA        250.9000  142.0600  145.8200 C.3       4 GLY6        0.0000 
     55 DU        246.2300  139.5800  151.9300 H         5 CUB7        0.0000 
     56 DU        245.3200  143.0500  151.1700 H         5 CUB7        0.0000 
     57 DU        252.3700  142.1300  147.3500 H         5 CUB7        0.0000 
     58 DU        250.1900  140.7300  155.4300 H         5 CUB7        0.0000 
@<TRIPOS>BOND
@<TRIPOS>SUBSTRUCTURE
     1 SER1        1 GROUP   
     2 ALA2       23 GROUP   
     3 ASP3       32 GROUP   
     4 GLY6       48 GROUP   
     5 CUB7       55 GROUP   
@<TRIPOS>SET

