#    Name: 6c3p_10_ATP_CAVITY_N1_4
#    Modification time : Fri May 22 19:30:46 2020

@<TRIPOS>MOLECULE
6c3p_10_ATP_CAVITY_N1_4
  104     0     7     0     0
SMALL
NO_CHARGES


@<TRIPOS>ATOM
      1 OG        154.2100  117.6500  153.3800 O.3       1 SER1        0.0000 
      2 OG        157.7000  116.5400  153.0100 O.3       1 SER1        0.0000 
      3 OG        156.6900  117.1300  153.9600 O.3       1 SER1        0.0000 
      4 OG        156.2300  118.0700  152.8800 O.3       1 SER1        0.0000 
      5 OG        157.7000  118.1400  154.4100 O.3       1 SER1        0.0000 
      6 OG        157.2400  119.0800  153.3300 O.3       1 SER1        0.0000 
      7 OG        156.2400  119.6700  154.2800 O.3       1 SER1        0.0000 
      8 OG        157.2500  120.6800  154.7200 O.3       1 SER1        0.0000 
      9 OG        156.7900  121.6200  153.6500 O.3       1 SER1        0.0000 
     10 OG        155.7900  122.2100  154.5900 O.3       1 SER1        0.0000 
     11 OG        158.1900  122.0000  159.6600 O.3       1 SER1        0.0000 
     12 OG        159.2000  123.0100  160.1100 O.3       1 SER1        0.0000 
     13 N         151.1700  114.6100  152.0300 N.am      2 ALA2        0.0000 
     14 N         155.6600  112.9200  150.7200 N.am      2 ALA2        0.0000 
     15 N         154.2000  114.4500  150.5900 N.am      2 ALA2        0.0000 
     16 N         153.1900  115.0400  151.5400 N.am      2 ALA2        0.0000 
     17 O         152.1900  115.6300  152.4800 O.2       2 ALA2        0.0000 
     18 N         156.6800  113.9300  151.1700 N.am      2 ALA2        0.0000 
     19 N         155.6700  114.5200  152.1100 N.am      2 ALA2        0.0000 
     20 N         154.6700  115.1100  153.0600 N.am      2 ALA2        0.0000 
     21 N         154.2000  116.0500  151.9800 N.am      2 ALA2        0.0000 
     22 N         154.0400  113.4700  158.1700 N.am      2 ALA2        0.0000 
     23 N         157.6900  114.9400  151.6200 N.am      2 ALA2        0.0000 
     24 N         156.6800  115.5300  152.5600 N.am      2 ALA2        0.0000 
     25 N         155.6800  116.1200  153.5100 N.am      2 ALA2        0.0000 
     26 N         155.2200  117.0600  152.4300 N.am      2 ALA2        0.0000 
     27 N         155.5900  114.8300  156.6000 N.am      2 ALA2        0.0000 
     28 N         155.1300  115.7700  155.5300 N.am      2 ALA2        0.0000 
     29 N         154.6700  116.7100  154.4500 N.am      2 ALA2        0.0000 
     30 N         154.5900  115.4200  157.5500 N.am      2 ALA2        0.0000 
     31 N         157.2400  117.4800  151.9400 N.am      2 ALA2        0.0000 
     32 O         157.6100  115.2500  156.1100 O.2       2 ALA2        0.0000 
     33 O         157.1500  116.1900  155.0300 O.2       2 ALA2        0.0000 
     34 N         157.5300  113.9600  159.2000 N.am      2 ALA2        0.0000 
     35 N         157.0700  114.9000  158.1300 N.am      2 ALA2        0.0000 
     36 N         156.6100  115.8400  157.0500 N.am      2 ALA2        0.0000 
     37 N         156.1500  116.7800  155.9800 N.am      2 ALA2        0.0000 
     38 N         155.6900  117.7200  154.9000 N.am      2 ALA2        0.0000 
     39 O         157.6200  116.8500  157.5000 O.2       2 ALA2        0.0000 
     40 O         157.1600  117.7900  156.4300 O.2       2 ALA2        0.0000 
     41 N         156.7000  118.7300  155.3500 N.am      2 ALA2        0.0000 
     42 N         155.6900  119.3200  156.3000 N.am      2 ALA2        0.0000 
     43 O         155.2300  120.2600  155.2200 O.2       2 ALA2        0.0000 
     44 N         157.1700  119.3900  157.8200 N.am      2 ALA2        0.0000 
     45 N         156.7100  120.3300  156.7400 N.am      2 ALA2        0.0000 
     46 N         156.2500  121.2700  155.6700 N.am      2 ALA2        0.0000 
     47 N         155.7000  120.9200  157.6900 N.am      2 ALA2        0.0000 
     48 N         155.2400  121.8600  156.6100 N.am      2 ALA2        0.0000 
     49 N         154.7800  122.8000  155.5400 N.am      2 ALA2        0.0000 
     50 N         156.8000  123.2200  155.0400 N.am      2 ALA2        0.0000 
     51 N         156.7100  121.9300  158.1400 N.am      2 ALA2        0.0000 
     52 N         156.2500  122.8700  157.0600 N.am      2 ALA2        0.0000 
     53 N         155.2500  123.4600  158.0100 N.am      2 ALA2        0.0000 
     54 N         157.8100  124.2300  155.4900 N.am      2 ALA2        0.0000 
     55 N         157.7300  122.9400  158.5900 N.am      2 ALA2        0.0000 
     56 OD1       157.8000  122.6300  154.1000 O.co2     3 ASP3        0.0000 
     57 NZ        156.7200  123.5300  159.5300 N.4       4 LYS4        0.0000 
     58 NZ        157.7300  124.5400  159.9800 N.4       4 LYS4        0.0000 
     59 CZ        153.5700  112.8100  155.7100 C.ar      5 PHE5        0.0000 
     60 CZ        153.1100  113.7500  154.6300 C.ar      5 PHE5        0.0000 
     61 CZ        152.6500  114.6900  153.5600 C.ar      5 PHE5        0.0000 
     62 CZ        154.5800  113.8200  156.1500 C.ar      5 PHE5        0.0000 
     63 CZ        153.6600  115.7000  154.0000 C.ar      5 PHE5        0.0000 
     64 CZ        159.0800  113.7300  156.2400 C.ar      5 PHE5        0.0000 
     65 CZ        158.6200  114.6600  155.1600 C.ar      5 PHE5        0.0000 
     66 CZ        158.5300  113.3800  158.2600 C.ar      5 PHE5        0.0000 
     67 CZ        158.0700  114.3100  157.1800 C.ar      5 PHE5        0.0000 
     68 CZ        158.0800  115.9100  158.5800 C.ar      5 PHE5        0.0000 
     69 CZ        157.7100  119.7400  155.8000 C.ar      5 PHE5        0.0000 
     70 CZ        158.2600  121.6900  155.1700 C.ar      5 PHE5        0.0000 
     71 CZ        158.1800  120.4000  158.2700 C.ar      5 PHE5        0.0000 
     72 CZ        157.7200  121.3400  157.1900 C.ar      5 PHE5        0.0000 
     73 CZ        158.7300  122.3500  157.6400 C.ar      5 PHE5        0.0000 
     74 CZ        158.2700  123.2900  156.5700 C.ar      5 PHE5        0.0000 
     75 CZ        160.2100  122.4200  159.1700 C.ar      5 PHE5        0.0000 
     76 CA        153.1000  112.1500  153.2400 C.3       6 GLY6        0.0000 
     77 CA        152.6400  113.0900  152.1600 C.3       6 GLY6        0.0000 
     78 CA        152.1800  114.0300  151.0900 C.3       6 GLY6        0.0000 
     79 CA        151.6300  113.6800  153.1100 C.3       6 GLY6        0.0000 
     80 CA        152.7300  115.9800  150.4600 C.3       6 GLY6        0.0000 
     81 CA        153.2000  116.6400  152.9300 C.3       6 GLY6        0.0000 
     82 CA        158.7000  114.3600  150.6700 C.3       6 GLY6        0.0000 
     83 CA        158.6100  113.0700  153.7700 C.3       6 GLY6        0.0000 
     84 CA        158.1500  114.0000  152.6900 C.3       6 GLY6        0.0000 
     85 CA        153.6700  117.3000  155.4000 C.3       6 GLY6        0.0000 
     86 CA        158.7000  115.9500  152.0700 C.3       6 GLY6        0.0000 
     87 CA        158.5400  114.9700  159.6500 C.3       6 GLY6        0.0000 
     88 CA        158.8200  123.6400  154.5500 C.3       6 GLY6        0.0000 
     89 CA        159.7500  123.3600  158.0900 C.3       6 GLY6        0.0000 
     90 DU        153.6400  112.5000  151.2200 H         7 CUB7        0.0000 
     91 DU        154.5700  112.2200  154.7600 H         7 CUB7        0.0000 
     92 DU        154.1100  113.1600  153.6900 H         7 CUB7        0.0000 
     93 DU        153.6500  114.1000  152.6100 H         7 CUB7        0.0000 
     94 DU        157.1400  112.9900  152.2500 H         7 CUB7        0.0000 
     95 DU        156.1300  113.5800  153.1900 H         7 CUB7        0.0000 
     96 DU        155.0400  112.8800  157.2300 H         7 CUB7        0.0000 
     97 DU        157.6100  113.6500  154.7100 H         7 CUB7        0.0000 
     98 DU        157.1400  114.5900  153.6400 H         7 CUB7        0.0000 
     99 DU        157.0600  113.3000  156.7300 H         7 CUB7        0.0000 
    100 DU        156.6000  114.2400  155.6600 H         7 CUB7        0.0000 
    101 DU        156.1400  115.1800  154.5800 H         7 CUB7        0.0000 
    102 DU        157.2600  122.2800  156.1200 H         7 CUB7        0.0000 
    103 DU        157.2700  123.8800  157.5100 H         7 CUB7        0.0000 
    104 DU        158.7400  123.9500  159.0400 H         7 CUB7        0.0000 
@<TRIPOS>BOND
@<TRIPOS>SUBSTRUCTURE
     1 SER1        1 GROUP   
     2 ALA2       13 GROUP   
     3 ASP3       56 GROUP   
     4 LYS4       57 GROUP   
     5 PHE5       59 GROUP   
     6 GLY6       76 GROUP   
     7 CUB7       90 GROUP   
@<TRIPOS>SET

