#    Name: 6c3p_6_ATP_CAVITY_N1_4
#    Modification time : Fri May 22 19:29:27 2020

@<TRIPOS>MOLECULE
6c3p_6_ATP_CAVITY_N1_4
   86     0     7     0     0
SMALL
NO_CHARGES


@<TRIPOS>ATOM
      1 OG        231.8800  268.8500  153.7900 O.3       1 SER1        0.0000 
      2 OG        231.7200  266.2800  159.9800 O.3       1 SER1        0.0000 
      3 OG        234.3600  268.3400  154.3700 O.3       1 SER1        0.0000 
      4 OG        232.9000  269.8700  154.2400 O.3       1 SER1        0.0000 
      5 OG        233.9100  270.8800  154.6900 O.3       1 SER1        0.0000 
      6 OG        233.4500  271.8200  153.6100 O.3       1 SER1        0.0000 
      7 OG        232.9900  272.7500  152.5400 O.3       1 SER1        0.0000 
      8 OG        232.4400  272.4000  154.5600 O.3       1 SER1        0.0000 
      9 OG        231.9800  273.3400  153.4800 O.3       1 SER1        0.0000 
     10 OG        235.4700  272.2400  153.1200 O.3       1 SER1        0.0000 
     11 OG        234.4600  272.8300  154.0600 O.3       1 SER1        0.0000 
     12 OG        236.4800  273.2500  153.5700 O.3       1 SER1        0.0000 
     13 N         232.8000  265.3800  154.5500 N.am      2 ALA2        0.0000 
     14 N         233.8100  266.3900  155.0000 N.am      2 ALA2        0.0000 
     15 N         234.2800  267.0500  157.4700 N.am      2 ALA2        0.0000 
     16 N         233.8200  267.9900  156.3900 N.am      2 ALA2        0.0000 
     17 N         233.2700  267.6400  158.4100 N.am      2 ALA2        0.0000 
     18 N         234.8300  269.0000  156.8400 N.am      2 ALA2        0.0000 
     19 N         233.8300  269.5900  157.7800 N.am      2 ALA2        0.0000 
     20 N         233.3700  270.5300  156.7100 N.am      2 ALA2        0.0000 
     21 N         232.8200  270.1800  158.7300 N.am      2 ALA2        0.0000 
     22 N         234.9200  271.8900  155.1400 N.am      2 ALA2        0.0000 
     23 N         234.0000  273.7700  152.9900 N.am      2 ALA2        0.0000 
     24 N         233.5400  274.7000  151.9100 N.am      2 ALA2        0.0000 
     25 N         233.0800  275.6400  150.8400 N.am      2 ALA2        0.0000 
     26 N         233.9200  272.4800  156.0800 N.am      2 ALA2        0.0000 
     27 O         233.4600  273.4200  155.0100 O.2       2 ALA2        0.0000 
     28 O         233.0000  274.3500  153.9300 O.2       2 ALA2        0.0000 
     29 O         232.9100  273.0600  157.0300 O.2       2 ALA2        0.0000 
     30 O         231.9900  274.9400  154.8800 O.2       2 ALA2        0.0000 
     31 N         235.9400  272.9000  155.5900 N.am      2 ALA2        0.0000 
     32 N         235.0200  274.7800  153.4400 N.am      2 ALA2        0.0000 
     33 N         234.5500  275.7200  152.3600 N.am      2 ALA2        0.0000 
     34 N         234.0900  276.6500  151.2900 N.am      2 ALA2        0.0000 
     35 N         234.4700  274.4300  155.4600 N.am      2 ALA2        0.0000 
     36 N         233.9300  274.0800  157.4800 N.am      2 ALA2        0.0000 
     37 N         232.9200  274.6600  158.4200 N.am      2 ALA2        0.0000 
     38 N         235.9400  274.5000  156.9800 N.am      2 ALA2        0.0000 
     39 N         234.9400  275.0900  157.9300 N.am      2 ALA2        0.0000 
     40 N         233.9300  275.6800  158.8700 N.am      2 ALA2        0.0000 
     41 OD1       233.3500  267.3300  153.9200 O.co2     3 ASP3        0.0000 
     42 OD1       232.8900  268.2700  152.8500 O.co2     3 ASP3        0.0000 
     43 NZ        232.7200  265.6900  159.0400 N.4       4 LYS4        0.0000 
     44 NZ        233.7300  266.7000  159.4900 N.4       4 LYS4        0.0000 
     45 CZ        232.3400  267.9200  154.8700 C.ar      5 PHE5        0.0000 
     46 CZ        231.8000  267.5700  156.8900 C.ar      5 PHE5        0.0000 
     47 CZ        231.2500  267.2100  158.9100 C.ar      5 PHE5        0.0000 
     48 CZ        233.3600  268.9300  155.3200 C.ar      5 PHE5        0.0000 
     49 CZ        232.8100  268.5800  157.3400 C.ar      5 PHE5        0.0000 
     50 CZ        232.3500  269.5200  156.2600 C.ar      5 PHE5        0.0000 
     51 CZ        232.9000  271.4700  155.6300 C.ar      5 PHE5        0.0000 
     52 CZ        232.3600  271.1100  157.6500 C.ar      5 PHE5        0.0000 
     53 CZ        233.4600  275.0100  156.4000 C.ar      5 PHE5        0.0000 
     54 CZ        232.4600  275.6000  157.3500 C.ar      5 PHE5        0.0000 
     55 CZ        232.0000  276.5400  156.2700 C.ar      5 PHE5        0.0000 
     56 CZ        231.9100  275.2500  159.3700 C.ar      5 PHE5        0.0000 
     57 CZ        231.4500  276.1900  158.2900 C.ar      5 PHE5        0.0000 
     58 CA        231.7900  265.9700  155.4900 C.3       6 GLY6        0.0000 
     59 CA        231.3300  266.9100  154.4200 C.3       6 GLY6        0.0000 
     60 CA        230.3300  267.4900  155.3600 C.3       6 GLY6        0.0000 
     61 CA        230.2400  266.2000  158.4600 C.3       6 GLY6        0.0000 
     62 CA        234.8200  267.4000  155.4500 C.3       6 GLY6        0.0000 
     63 CA        234.3700  269.9400  155.7600 C.3       6 GLY6        0.0000 
     64 CA        232.5300  273.6900  151.4600 C.3       6 GLY6        0.0000 
     65 CA        232.0700  274.6300  150.3900 C.3       6 GLY6        0.0000 
     66 CA        231.5200  274.2800  152.4100 C.3       6 GLY6        0.0000 
     67 CA        231.0600  275.2200  151.3300 C.3       6 GLY6        0.0000 
     68 CA        232.5400  275.2900  152.8600 C.3       6 GLY6        0.0000 
     69 CA        232.0700  276.2300  151.7800 C.3       6 GLY6        0.0000 
     70 CA        231.5300  275.8800  153.8000 C.3       6 GLY6        0.0000 
     71 CA        230.9100  275.8400  160.3100 C.3       6 GLY6        0.0000 
     72 CA        232.9300  276.2600  159.8100 C.3       6 GLY6        0.0000 
     73 DU        233.2700  266.0400  157.0200 H         7 CUB7        0.0000 
     74 DU        232.8100  266.9800  155.9400 H         7 CUB7        0.0000 
     75 DU        232.2600  266.6300  157.9600 H         7 CUB7        0.0000 
     76 DU        235.4800  273.8400  154.5100 H         7 CUB7        0.0000 
     77 DU        234.0100  275.3700  154.3800 H         7 CUB7        0.0000 
     78 DU        233.5500  276.3000  153.3100 H         7 CUB7        0.0000 
     79 DU        233.0900  277.2400  152.2300 H         7 CUB7        0.0000 
     80 DU        233.0000  275.9500  155.3300 H         7 CUB7        0.0000 
     81 DU        232.5400  276.8900  154.2500 H         7 CUB7        0.0000 
     82 DU        235.5700  276.7300  152.8100 H         7 CUB7        0.0000 
     83 DU        235.4800  275.4400  155.9100 H         7 CUB7        0.0000 
     84 DU        234.4800  276.0300  156.8500 H         7 CUB7        0.0000 
     85 DU        233.4700  276.6100  157.7900 H         7 CUB7        0.0000 
     86 DU        235.4900  277.0400  157.3000 H         7 CUB7        0.0000 
@<TRIPOS>BOND
@<TRIPOS>SUBSTRUCTURE
     1 SER1        1 GROUP   
     2 ALA2       13 GROUP   
     3 ASP3       41 GROUP   
     4 LYS4       43 GROUP   
     5 PHE5       45 GROUP   
     6 GLY6       58 GROUP   
     7 CUB7       73 GROUP   
@<TRIPOS>SET

