#    Name: 6c3p_7_ADP
#    Modification time : Fri May 22 19:29:45 2020

@<TRIPOS>MOLECULE
6c3p_7_ADP
   27    29     1     0     1
SMALL
NO_CHARGES


@<TRIPOS>ATOM
      1 PB        249.1290  139.6670  149.0780 P.3       1 ADP2001     0.0000 
      2 O1B       248.9980  141.0250  148.4400 O.co2     1 ADP2001     0.0000 
      3 O2B       248.1540  138.6440  148.5540 O.co2     1 ADP2001     0.0000 
      4 O3B       250.5450  139.1720  149.2310 O.co2     1 ADP2001     0.0000 
      5 PA        248.6310  138.6790  151.6330 P.3       1 ADP2001     0.0000 
      6 O1A       249.0040  137.4080  150.9060 O.co2     1 ADP2001     0.0000 
      7 O2A       249.3930  139.0810  152.8720 O.co2     1 ADP2001     0.0000 
      8 O3A       248.6990  139.9130  150.6040 O.3       1 ADP2001     0.0000 
      9 O5'       247.0700  138.6210  152.0060 O.3       1 ADP2001     0.0000 
     10 C5'       246.0860  138.4800  150.9880 C.3       1 ADP2001     0.0000 
     11 C4'       244.7220  138.6060  151.6460 C.3       1 ADP2001     0.0000 
     12 O4'       244.8190  138.1180  152.9850 O.3       1 ADP2001     0.0000 
     13 C3'       244.2590  140.0510  151.7180 C.3       1 ADP2001     0.0000 
     14 O3'       243.0240  140.1710  151.0090 O.3       1 ADP2001     0.0000 
     15 C2'       244.0370  140.3490  153.1870 C.3       1 ADP2001     0.0000 
     16 O2'       242.7200  140.8650  153.4000 O.3       1 ADP2001     0.0000 
     17 C1'       244.2010  139.0190  153.9000 C.3       1 ADP2001     0.0000 
     18 N9        245.0840  139.1800  155.0750 N.pl3     1 ADP2001     0.0000 
     19 C8        246.4180  139.3370  155.0420 C.2       1 ADP2001     0.0000 
     20 N7        246.9250  139.4580  156.2970 N.2       1 ADP2001     0.0000 
     21 C5        245.8940  139.3790  157.1560 C.ar      1 ADP2001     0.0000 
     22 C6        245.7190  139.4300  158.6210 C.ar      1 ADP2001     0.0000 
     23 N6        246.7760  139.5910  159.4510 N.pl3     1 ADP2001     0.0000 
     24 N1        244.4680  139.3080  159.1100 N.ar      1 ADP2001     0.0000 
     25 C2        243.4030  139.1420  158.3060 C.ar      1 ADP2001     0.0000 
     26 N3        243.4860  139.0870  156.9670 N.ar      1 ADP2001     0.0000 
     27 C4        244.6820  139.2010  156.3450 C.ar      1 ADP2001     0.0000 
@<TRIPOS>BOND
     1    1    2 ar   
     2    1    3 ar   
     3    1    4 ar   
     4    1    8 1    
     5    5    6 ar   
     6    5    7 ar   
     7    5    8 1    
     8    5    9 1    
     9    9   10 1    
    10   10   11 1    
    11   11   12 1    
    12   11   13 1    
    13   12   17 1    
    14   13   14 1    
    15   13   15 1    
    16   15   16 1    
    17   15   17 1    
    18   17   18 1    
    19   18   19 1    
    20   18   27 1    
    21   19   20 2    
    22   20   21 1    
    23   21   22 ar   
    24   21   27 ar   
    25   22   23 1    
    26   22   24 ar   
    27   24   25 ar   
    28   25   26 ar   
    29   26   27 ar   
@<TRIPOS>SUBSTRUCTURE
     1 ADP2001     1 GROUP   
@<TRIPOS>SET
ATOM$ORANGE STATIC     ATOMS   COLORGROUP SYSTEM 
20 10 10 11 11 13 13 15 15 17 17 19 19 21 21 22 22 25 \
25 27 27 

