#    Name: 6c3p_3_ATP
#    Modification time : Fri May 22 19:28:34 2020

@<TRIPOS>MOLECULE
6c3p_3_ATP
   31    33     1     0     1
SMALL
NO_CHARGES


@<TRIPOS>ATOM
      1 PG        192.2730  160.8790  178.6540 P.3       1 ATP501      0.0000 
      2 O1G       192.6930  159.7090  177.8010 O.co2     1 ATP501      0.0000 
      3 O2G       191.1650  160.5910  179.6360 O.co2     1 ATP501      0.0000 
      4 O3G       192.1160  162.1770  177.8990 O.co2     1 ATP501      0.0000 
      5 PB        194.9030  161.6590  178.9110 P.3       1 ATP501      0.0000 
      6 O1B       195.0050  161.1530  177.4960 O.co2     1 ATP501      0.0000 
      7 O2B       196.0410  161.4600  179.8820 O.co2     1 ATP501      0.0000 
      8 O3B       193.5470  161.1460  179.5900 O.3       1 ATP501      0.0000 
      9 PA        195.5960  164.1340  178.0180 P.3       1 ATP501      0.0000 
     10 O1A       195.0310  164.3960  176.6460 O.co2     1 ATP501      0.0000 
     11 O2A       196.9500  163.5040  178.2170 O.co2     1 ATP501      0.0000 
     12 O3A       194.5780  163.2190  178.8360 O.3       1 ATP501      0.0000 
     13 O5'       195.5080  165.4690  178.8930 O.3       1 ATP501      0.0000 
     14 C5'       196.6870  166.1480  179.2930 C.3       1 ATP501      0.0000 
     15 C4'       196.3940  166.6890  180.6780 C.3       1 ATP501      0.0000 
     16 O4'       194.9870  166.8770  180.7940 O.3       1 ATP501      0.0000 
     17 C3'       196.7980  165.6820  181.7390 C.3       1 ATP501      0.0000 
     18 O3'       197.8670  166.2200  182.5210 O.3       1 ATP501      0.0000 
     19 C2'       195.5700  165.4550  182.5980 C.3       1 ATP501      0.0000 
     20 O2'       195.8310  165.8050  183.9570 O.3       1 ATP501      0.0000 
     21 C1'       194.5100  166.3810  182.0430 C.3       1 ATP501      0.0000 
     22 N9        193.2530  165.6240  181.8510 N.pl3     1 ATP501      0.0000 
     23 C8        193.0730  164.5700  181.0350 C.2       1 ATP501      0.0000 
     24 N7        191.7970  164.1140  181.1030 N.2       1 ATP501      0.0000 
     25 C5        191.1380  164.8880  181.9850 C.ar      1 ATP501      0.0000 
     26 C6        189.7600  164.9680  182.5290 C.ar      1 ATP501      0.0000 
     27 N6        188.7980  164.0930  182.1550 N.pl3     1 ATP501      0.0000 
     28 N1        189.5010  165.9270  183.4420 N.ar      1 ATP501      0.0000 
     29 C2        190.4430  166.7980  183.8370 C.ar      1 ATP501      0.0000 
     30 N3        191.7060  166.7910  183.3820 N.ar      1 ATP501      0.0000 
     31 C4        192.1070  165.8760  182.4760 C.ar      1 ATP501      0.0000 
@<TRIPOS>BOND
     1    1    2 ar   
     2    1    3 ar   
     3    1    4 ar   
     4    1    8 1    
     5    5    6 ar   
     6    5    7 ar   
     7    5    8 1    
     8    5   12 1    
     9    9   10 ar   
    10    9   11 ar   
    11    9   12 1    
    12    9   13 1    
    13   13   14 1    
    14   14   15 1    
    15   15   16 1    
    16   15   17 1    
    17   16   21 1    
    18   17   18 1    
    19   17   19 1    
    20   19   20 1    
    21   19   21 1    
    22   21   22 1    
    23   22   23 1    
    24   22   31 1    
    25   23   24 2    
    26   24   25 1    
    27   25   26 ar   
    28   25   31 ar   
    29   26   27 1    
    30   26   28 ar   
    31   28   29 ar   
    32   29   30 ar   
    33   30   31 ar   
@<TRIPOS>SUBSTRUCTURE
     1 ATP501      1 GROUP   
@<TRIPOS>SET
ATOM$ORANGE STATIC     ATOMS   COLORGROUP SYSTEM 
20 14 14 15 15 17 17 19 19 21 21 23 23 25 25 26 26 29 \
29 31 31 

