#    Name: 6c3p_9_ADP
#    Modification time : Fri May 22 19:30:24 2020

@<TRIPOS>MOLECULE
6c3p_9_ADP
   27    29     1     0     1
SMALL
NO_CHARGES


@<TRIPOS>ATOM
      1 PB        139.4420  140.8160  149.2620 P.3       1 ADP2001     0.0000 
      2 O1B       140.8010  140.9470  148.6220 O.co2     1 ADP2001     0.0000 
      3 O2B       138.4200  141.7940  148.7370 O.co2     1 ADP2001     0.0000 
      4 O3B       138.9450  139.4020  149.4180 O.co2     1 ADP2001     0.0000 
      5 PA        138.4580  141.3230  151.8160 P.3       1 ADP2001     0.0000 
      6 O1A       137.1860  140.9500  151.0910 O.co2     1 ADP2001     0.0000 
      7 O2A       138.8600  140.5620  153.0560 O.co2     1 ADP2001     0.0000 
      8 O3A       139.6910  141.2520  150.7870 O.3       1 ADP2001     0.0000 
      9 O5'       138.4030  142.8840  152.1860 O.3       1 ADP2001     0.0000 
     10 C5'       138.2610  143.8660  151.1660 C.3       1 ADP2001     0.0000 
     11 C4'       138.3920  145.2320  151.8220 C.3       1 ADP2001     0.0000 
     12 O4'       137.9030  145.1380  153.1590 O.3       1 ADP2001     0.0000 
     13 C3'       139.8360  145.6930  151.8910 C.3       1 ADP2001     0.0000 
     14 O3'       139.9570  146.9270  151.1790 O.3       1 ADP2001     0.0000 
     15 C2'       140.1370  145.9180  153.3600 C.3       1 ADP2001     0.0000 
     16 O2'       140.6540  147.2340  153.5690 O.3       1 ADP2001     0.0000 
     17 C1'       138.8060  145.7560  154.0730 C.3       1 ADP2001     0.0000 
     18 N9        138.9680  144.8770  155.2500 N.pl3     1 ADP2001     0.0000 
     19 C8        139.1230  143.5420  155.2210 C.2       1 ADP2001     0.0000 
     20 N7        139.2430  143.0370  156.4760 N.2       1 ADP2001     0.0000 
     21 C5        139.1670  144.0710  157.3320 C.ar      1 ADP2001     0.0000 
     22 C6        139.2190  144.2490  158.7980 C.ar      1 ADP2001     0.0000 
     23 N6        139.3800  143.1940  159.6280 N.pl3     1 ADP2001     0.0000 
     24 N1        139.1000  145.5020  159.2850 N.ar      1 ADP2001     0.0000 
     25 C2        138.9350  146.5650  158.4770 C.ar      1 ADP2001     0.0000 
     26 N3        138.8780  146.4780  157.1380 N.ar      1 ADP2001     0.0000 
     27 C4        138.9890  145.2800  156.5200 C.ar      1 ADP2001     0.0000 
@<TRIPOS>BOND
     1    1    2 ar   
     2    1    3 ar   
     3    1    4 ar   
     4    1    8 1    
     5    5    6 ar   
     6    5    7 ar   
     7    5    8 1    
     8    5    9 1    
     9    9   10 1    
    10   10   11 1    
    11   11   12 1    
    12   11   13 1    
    13   12   17 1    
    14   13   14 1    
    15   13   15 1    
    16   15   16 1    
    17   15   17 1    
    18   17   18 1    
    19   18   19 1    
    20   18   27 1    
    21   19   20 2    
    22   20   21 1    
    23   21   22 ar   
    24   21   27 ar   
    25   22   23 1    
    26   22   24 ar   
    27   24   25 ar   
    28   25   26 ar   
    29   26   27 ar   
@<TRIPOS>SUBSTRUCTURE
     1 ADP2001     1 GROUP   
@<TRIPOS>SET
ATOM$ORANGE STATIC     ATOMS   COLORGROUP SYSTEM 
20 10 10 11 11 13 13 15 15 17 17 19 19 21 21 22 22 25 \
25 27 27 

