#    Name: 6c3p_10_ATP
#    Modification time : Fri May 22 19:30:45 2020

@<TRIPOS>MOLECULE
6c3p_10_ATP
   31    33     1     0     1
SMALL
NO_CHARGES


@<TRIPOS>ATOM
      1 PG        153.5410  122.7300  149.2990 P.3       1 ATP2004     0.0000 
      2 O1G       154.3090  122.7970  148.0030 O.co2     1 ATP2004     0.0000 
      3 O2G       152.7690  123.9670  149.6730 O.co2     1 ATP2004     0.0000 
      4 O3G       152.8120  121.4340  149.5300 O.co2     1 ATP2004     0.0000 
      5 PB        155.9200  121.6630  150.1540 P.3       1 ATP2004     0.0000 
      6 O1B       155.4650  120.4930  149.3290 O.co2     1 ATP2004     0.0000 
      7 O2B       157.0950  122.4450  149.6700 O.co2     1 ATP2004     0.0000 
      8 O3B       154.7100  122.6820  150.3850 O.3       1 ATP2004     0.0000 
      9 PA        157.5120  120.3810  152.0100 P.3       1 ATP2004     0.0000 
     10 O1A       158.2200  120.1570  150.7060 O.co2     1 ATP2004     0.0000 
     11 O2A       158.2340  121.0550  153.1490 O.co2     1 ATP2004     0.0000 
     12 O3A       156.1840  121.2040  151.6680 O.3       1 ATP2004     0.0000 
     13 O5'       156.8810  118.9890  152.5260 O.3       1 ATP2004     0.0000 
     14 C5'       157.4260  117.7180  152.1750 C.3       1 ATP2004     0.0000 
     15 C4'       156.8670  116.6440  153.1040 C.3       1 ATP2004     0.0000 
     16 O4'       157.4950  116.7420  154.3820 O.3       1 ATP2004     0.0000 
     17 C3'       155.3670  116.7890  153.3200 C.3       1 ATP2004     0.0000 
     18 O3'       154.7010  115.5930  152.9130 O.3       1 ATP2004     0.0000 
     19 C2'       155.1610  116.9910  154.8070 C.3       1 ATP2004     0.0000 
     20 O2'       154.2460  116.0180  155.3170 O.3       1 ATP2004     0.0000 
     21 C1'       156.5310  116.8060  155.4340 C.3       1 ATP2004     0.0000 
     22 N9        156.8390  117.9780  156.2780 N.pl3     1 ATP2004     0.0000 
     23 C8        156.6660  119.2620  155.9200 C.2       1 ATP2004     0.0000 
     24 N7        157.0470  120.0980  156.9110 N.2       1 ATP2004     0.0000 
     25 C5        157.4690  119.3390  157.9310 C.ar      1 ATP2004     0.0000 
     26 C6        158.0060  119.5860  159.2830 C.ar      1 ATP2004     0.0000 
     27 N6        158.1610  120.8470  159.7430 N.pl3     1 ATP2004     0.0000 
     28 N1        158.3320  118.5130  160.0290 N.ar      1 ATP2004     0.0000 
     29 C2        158.1760  117.2600  159.5740 C.ar      1 ATP2004     0.0000 
     30 N3        157.6960  116.9590  158.3570 N.ar      1 ATP2004     0.0000 
     31 C4        157.3300  117.9420  157.5090 C.ar      1 ATP2004     0.0000 
@<TRIPOS>BOND
     1    1    2 ar   
     2    1    3 ar   
     3    1    4 ar   
     4    1    8 1    
     5    5    6 ar   
     6    5    7 ar   
     7    5    8 1    
     8    5   12 1    
     9    9   10 ar   
    10    9   11 ar   
    11    9   12 1    
    12    9   13 1    
    13   13   14 1    
    14   14   15 1    
    15   15   16 1    
    16   15   17 1    
    17   16   21 1    
    18   17   18 1    
    19   17   19 1    
    20   19   20 1    
    21   19   21 1    
    22   21   22 1    
    23   22   23 1    
    24   22   31 1    
    25   23   24 2    
    26   24   25 1    
    27   25   26 ar   
    28   25   31 ar   
    29   26   27 1    
    30   26   28 ar   
    31   28   29 ar   
    32   29   30 ar   
    33   30   31 ar   
@<TRIPOS>SUBSTRUCTURE
     1 ATP2004     1 GROUP   
@<TRIPOS>SET
ATOM$ORANGE STATIC     ATOMS   COLORGROUP SYSTEM 
20 14 14 15 15 17 17 19 19 21 21 23 23 25 25 26 26 29 \
29 31 31 

