#    Name: 6c3p_11_ADP_CAVITY_N1_4
#    Modification time : Fri May 22 19:31:05 2020

@<TRIPOS>MOLECULE
6c3p_11_ADP_CAVITY_N1_4
   51     0     6     0     0
SMALL
NO_CHARGES


@<TRIPOS>ATOM
      1 OG        139.4700  245.9600  148.2800 O.3       1 SER1        0.0000 
      2 OG        139.0100  246.8900  147.2100 O.3       1 SER1        0.0000 
      3 OG        140.9500  246.0300  149.8000 O.3       1 SER1        0.0000 
      4 OG        141.9600  247.0400  150.2500 O.3       1 SER1        0.0000 
      5 OG        139.4000  247.8700  154.1600 O.3       1 SER1        0.0000 
      6 OG        137.9400  249.3900  154.0300 O.3       1 SER1        0.0000 
      7 OG        144.4400  246.5200  150.8300 O.3       1 SER1        0.0000 
      8 OG        143.4300  247.1100  151.7800 O.3       1 SER1        0.0000 
      9 OG        141.9700  248.6400  151.6500 O.3       1 SER1        0.0000 
     10 OG        140.8800  247.9400  155.6900 O.3       1 SER1        0.0000 
     11 OG        140.4200  248.8800  154.6100 O.3       1 SER1        0.0000 
     12 OG        138.9500  250.4000  154.4800 O.3       1 SER1        0.0000 
     13 OG        137.9500  250.9900  155.4300 O.3       1 SER1        0.0000 
     14 OG        141.4300  249.8900  155.0600 O.3       1 SER1        0.0000 
     15 OG        140.9700  250.8300  153.9900 O.3       1 SER1        0.0000 
     16 OG        139.9600  251.4100  154.9300 O.3       1 SER1        0.0000 
     17 OG        138.9600  252.0000  155.8700 O.3       1 SER1        0.0000 
     18 OG        142.4400  250.9000  155.5100 O.3       1 SER1        0.0000 
     19 OG        141.4400  251.4900  156.4500 O.3       1 SER1        0.0000 
     20 N         136.5400  249.0100  148.0200 N.am      2 ALA2        0.0000 
     21 OD1       138.0100  247.4800  148.1500 O.co2     3 ASP3        0.0000 
     22 OD1       137.0000  248.0700  149.0900 O.co2     3 ASP3        0.0000 
     23 OD1       139.5600  248.8400  146.5800 O.co2     3 ASP3        0.0000 
     24 OD1       139.9400  246.6200  150.7500 O.co2     3 ASP3        0.0000 
     25 OD1       139.4800  247.5600  149.6700 O.co2     3 ASP3        0.0000 
     26 OD1       139.0200  248.4900  148.6000 O.co2     3 ASP3        0.0000 
     27 OD1       138.9400  247.2000  151.6900 O.co2     3 ASP3        0.0000 
     28 OD1       140.9500  247.6300  151.2000 O.co2     3 ASP3        0.0000 
     29 OD1       140.4900  248.5700  150.1200 O.co2     3 ASP3        0.0000 
     30 OD1       140.0300  249.5100  149.0500 O.co2     3 ASP3        0.0000 
     31 OD1       139.9500  248.2200  152.1400 O.co2     3 ASP3        0.0000 
     32 OD1       138.9400  248.8000  153.0900 O.co2     3 ASP3        0.0000 
     33 OD1       141.5100  249.5800  150.5700 O.co2     3 ASP3        0.0000 
     34 OD1       141.0500  250.5200  149.5000 O.co2     3 ASP3        0.0000 
     35 OD1       140.9600  249.2300  152.5900 O.co2     3 ASP3        0.0000 
     36 OD1       139.9600  249.8200  153.5400 O.co2     3 ASP3        0.0000 
     37 OD1       139.4200  251.0600  156.9500 O.co2     3 ASP3        0.0000 
     38 NZ        146.9200  246.0100  151.4100 N.4       4 LYS4        0.0000 
     39 CA        138.5500  247.8300  146.1300 C.3       5 GLY6        0.0000 
     40 CA        137.5500  248.4200  147.0700 C.3       5 GLY6        0.0000 
     41 CA        138.5600  249.4300  147.5200 C.3       5 GLY6        0.0000 
     42 CA        139.5700  250.4400  147.9700 C.3       5 GLY6        0.0000 
     43 CA        143.9800  247.4600  149.7600 C.3       5 GLY6        0.0000 
     44 CA        142.9700  248.0500  150.7000 C.3       5 GLY6        0.0000 
     45 CA        143.9900  249.0600  151.1500 C.3       5 GLY6        0.0000 
     46 CA        140.5100  251.7700  152.9100 C.3       5 GLY6        0.0000 
     47 DU        138.4700  246.5400  149.2300 H         6 CUB7        0.0000 
     48 DU        139.8700  248.5300  156.6300 H         6 CUB7        0.0000 
     49 DU        139.4100  249.4600  155.5600 H         6 CUB7        0.0000 
     50 DU        145.9100  246.5900  152.3600 H         6 CUB7        0.0000 
     51 DU        140.4200  250.4800  156.0100 H         6 CUB7        0.0000 
@<TRIPOS>BOND
@<TRIPOS>SUBSTRUCTURE
     1 SER1        1 GROUP   
     2 ALA2       20 GROUP   
     3 ASP3       21 GROUP   
     4 LYS4       38 GROUP   
     5 GLY6       39 GROUP   
     6 CUB7       47 GROUP   
@<TRIPOS>SET

