#    Name: 6c3p_2_ATP
#    Modification time : Fri May 22 19:28:22 2020

@<TRIPOS>MOLECULE
6c3p_2_ATP
   31    33     1     0     1
SMALL
NO_CHARGES


@<TRIPOS>ATOM
      1 PG        197.5480  229.1790  178.4400 P.3       1 ATP502      0.0000 
      2 O1G       197.6650  227.9160  177.6200 O.co2     1 ATP502      0.0000 
      3 O2G       198.6750  229.4000  179.4180 O.co2     1 ATP502      0.0000 
      4 O3G       197.1310  230.3950  177.6510 O.co2     1 ATP502      0.0000 
      5 PB        194.9210  228.4060  178.6950 P.3       1 ATP502      0.0000 
      6 O1B       194.8450  228.8980  177.2740 O.co2     1 ATP502      0.0000 
      7 O2B       193.7890  228.6560  179.6610 O.co2     1 ATP502      0.0000 
      8 O3B       196.2860  228.8870  179.3810 O.3       1 ATP502      0.0000 
      9 PA        194.1200  225.9270  177.9170 P.3       1 ATP502      0.0000 
     10 O1A       194.5930  225.6370  176.5160 O.co2     1 ATP502      0.0000 
     11 O2A       192.7940  226.5900  178.1880 O.co2     1 ATP502      0.0000 
     12 O3A       195.2040  226.8340  178.6560 O.3       1 ATP502      0.0000 
     13 O5'       194.2210  224.5960  178.7990 O.3       1 ATP502      0.0000 
     14 C5'       193.0540  223.8600  179.1250 C.3       1 ATP502      0.0000 
     15 C4'       193.2920  223.2920  180.5080 C.3       1 ATP502      0.0000 
     16 O4'       194.6880  223.0440  180.6380 O.3       1 ATP502      0.0000 
     17 C3'       192.9100  224.3060  181.5710 C.3       1 ATP502      0.0000 
     18 O3'       191.8690  223.7690  182.3900 O.3       1 ATP502      0.0000 
     19 C2'       194.1590  224.5480  182.3930 C.3       1 ATP502      0.0000 
     20 O2'       193.9220  224.2880  183.7770 O.3       1 ATP502      0.0000 
     21 C1'       195.1810  223.5650  181.8680 C.3       1 ATP502      0.0000 
     22 N9        196.4640  224.2620  181.6480 N.pl3     1 ATP502      0.0000 
     23 C8        196.6940  225.2960  180.8180 C.2       1 ATP502      0.0000 
     24 N7        197.9930  225.6850  180.8740 N.2       1 ATP502      0.0000 
     25 C5        198.6140  224.8800  181.7570 C.ar      1 ATP502      0.0000 
     26 C6        199.9850  224.7230  182.2950 C.ar      1 ATP502      0.0000 
     27 N6        200.9900  225.5400  181.9170 N.pl3     1 ATP502      0.0000 
     28 N1        200.1950  223.7630  183.2180 N.ar      1 ATP502      0.0000 
     29 C2        199.2050  222.9520  183.6280 C.ar      1 ATP502      0.0000 
     30 N3        197.9430  223.0250  183.1790 N.ar      1 ATP502      0.0000 
     31 C4        197.5950  223.9550  182.2670 C.ar      1 ATP502      0.0000 
@<TRIPOS>BOND
     1    1    2 ar   
     2    1    3 ar   
     3    1    4 ar   
     4    1    8 1    
     5    5    6 ar   
     6    5    7 ar   
     7    5    8 1    
     8    5   12 1    
     9    9   10 ar   
    10    9   11 ar   
    11    9   12 1    
    12    9   13 1    
    13   13   14 1    
    14   14   15 1    
    15   15   16 1    
    16   15   17 1    
    17   16   21 1    
    18   17   18 1    
    19   17   19 1    
    20   19   20 1    
    21   19   21 1    
    22   21   22 1    
    23   22   23 1    
    24   22   31 1    
    25   23   24 2    
    26   24   25 1    
    27   25   26 ar   
    28   25   31 ar   
    29   26   27 1    
    30   26   28 ar   
    31   28   29 ar   
    32   29   30 ar   
    33   30   31 ar   
@<TRIPOS>SUBSTRUCTURE
     1 ATP502      1 GROUP   
@<TRIPOS>SET
ATOM$ORANGE STATIC     ATOMS   COLORGROUP SYSTEM 
20 14 14 15 15 17 17 19 19 21 21 23 23 25 25 26 26 29 \
29 31 31 

