#    Name: 6c3p_5_ADP_CAVITY_N1_4
#    Modification time : Fri May 22 19:29:07 2020

@<TRIPOS>MOLECULE
6c3p_5_ADP_CAVITY_N1_4
   87     0     6     0     0
SMALL
NO_CHARGES


@<TRIPOS>ATOM
      1 OG        246.8900  244.9600  153.6900 O.3       1 SER1        0.0000 
      2 OG        248.4500  246.3200  152.1200 O.3       1 SER1        0.0000 
      3 OG        247.9900  247.2600  151.0500 O.3       1 SER1        0.0000 
      4 OG        246.9900  247.8400  151.9900 O.3       1 SER1        0.0000 
      5 OG        246.5200  248.7800  150.9200 O.3       1 SER1        0.0000 
      6 OG        246.0600  249.7200  149.8400 O.3       1 SER1        0.0000 
      7 OG        249.0900  249.5600  148.4000 O.3       1 SER1        0.0000 
      8 OG        249.9300  246.3900  153.6500 O.3       1 SER1        0.0000 
      9 OG        249.4700  247.3300  152.5700 O.3       1 SER1        0.0000 
     10 OG        249.0000  248.2700  151.4900 O.3       1 SER1        0.0000 
     11 OG        248.5400  249.2100  150.4200 O.3       1 SER1        0.0000 
     12 OG        248.0800  250.1400  149.3400 O.3       1 SER1        0.0000 
     13 OG        247.6200  251.0800  148.2700 O.3       1 SER1        0.0000 
     14 OG        248.9200  246.9800  154.5900 O.3       1 SER1        0.0000 
     15 OG        248.0000  248.8600  152.4400 O.3       1 SER1        0.0000 
     16 OG        247.0800  250.7300  150.2900 O.3       1 SER1        0.0000 
     17 OG        251.9400  246.8100  153.1500 O.3       1 SER1        0.0000 
     18 OG        251.4800  247.7500  152.0700 O.3       1 SER1        0.0000 
     19 OG        250.9400  247.4000  154.0900 O.3       1 SER1        0.0000 
     20 OG        250.3900  247.0500  156.1100 O.3       1 SER1        0.0000 
     21 OG        249.9300  247.9900  155.0400 O.3       1 SER1        0.0000 
     22 OG        249.4700  248.9300  153.9600 O.3       1 SER1        0.0000 
     23 OG        248.4700  249.5200  154.9100 O.3       1 SER1        0.0000 
     24 OG        248.0100  250.4500  153.8300 O.3       1 SER1        0.0000 
     25 OG        252.5000  248.7600  152.5200 O.3       1 SER1        0.0000 
     26 OG        250.9500  249.0000  155.4900 O.3       1 SER1        0.0000 
     27 OG        252.5000  250.3600  153.9200 O.3       1 SER1        0.0000 
     28 OG        251.9600  250.0100  155.9400 O.3       1 SER1        0.0000 
     29 OG        251.5000  250.9500  154.8600 O.3       1 SER1        0.0000 
     30 OG        250.4900  251.5400  155.8100 O.3       1 SER1        0.0000 
     31 OG        250.0300  252.4800  154.7300 O.3       1 SER1        0.0000 
     32 O         245.8800  243.9400  153.2400 O.2       2 ALA2        0.0000 
     33 N         251.9400  245.2100  151.7600 N.am      2 ALA2        0.0000 
     34 O         249.5500  248.6200  149.4700 O.2       2 ALA2        0.0000 
     35 O         252.0300  248.1000  150.0500 O.2       2 ALA2        0.0000 
     36 O         251.5700  249.0400  148.9800 O.2       2 ALA2        0.0000 
     37 OD1       247.5400  249.7900  151.3600 O.co2     3 ASP3        0.0000 
     38 OD1       251.0200  248.6900  151.0000 O.co2     3 ASP3        0.0000 
     39 OD1       250.1000  250.5700  148.8500 O.co2     3 ASP3        0.0000 
     40 OD1       249.6400  251.5100  147.7700 O.co2     3 ASP3        0.0000 
     41 OD1       250.4800  248.3400  153.0200 O.co2     3 ASP3        0.0000 
     42 OD1       250.0200  249.2800  151.9400 O.co2     3 ASP3        0.0000 
     43 OD1       248.6400  252.0900  148.7200 O.co2     3 ASP3        0.0000 
     44 OD1       249.0100  249.8700  152.8900 O.co2     3 ASP3        0.0000 
     45 OD1       248.0900  251.7400  150.7400 O.co2     3 ASP3        0.0000 
     46 OD1       252.0400  249.7000  151.4500 O.co2     3 ASP3        0.0000 
     47 OD1       249.6500  253.1100  149.1700 O.co2     3 ASP3        0.0000 
     48 OD1       250.4900  249.9400  154.4100 O.co2     3 ASP3        0.0000 
     49 OD1       249.0200  251.4700  154.2800 O.co2     3 ASP3        0.0000 
     50 CZ        251.3200  246.7700  159.6600 C.ar      4 PHE5        0.0000 
     51 CZ        250.8600  247.7100  158.5800 C.ar      4 PHE5        0.0000 
     52 CZ        252.4200  249.0700  157.0100 C.ar      4 PHE5        0.0000 
     53 CZ        252.3400  247.7800  160.1100 C.ar      4 PHE5        0.0000 
     54 CZ        251.8800  248.7200  159.0300 C.ar      4 PHE5        0.0000 
     55 CZ        253.3500  248.7900  160.5600 C.ar      4 PHE5        0.0000 
     56 CZ        252.8900  249.7300  159.4800 C.ar      4 PHE5        0.0000 
     57 CA        247.9800  245.6600  149.6500 C.3       5 GLY6        0.0000 
     58 CA        249.4600  245.7300  151.1800 C.3       5 GLY6        0.0000 
     59 CA        247.1500  250.4200  145.8000 C.3       5 GLY6        0.0000 
     60 CA        251.4800  246.1500  150.6800 C.3       5 GLY6        0.0000 
     61 CA        250.4700  246.7400  151.6300 C.3       5 GLY6        0.0000 
     62 CA        250.0100  247.6800  150.5500 C.3       5 GLY6        0.0000 
     63 CA        248.6300  250.5000  147.3200 C.3       5 GLY6        0.0000 
     64 CA        248.1700  251.4300  146.2500 C.3       5 GLY6        0.0000 
     65 CA        252.4900  247.1600  151.1300 C.3       5 GLY6        0.0000 
     66 CA        249.1800  252.4500  146.7000 C.3       5 GLY6        0.0000 
     67 CA        250.6500  252.5200  148.2200 C.3       5 GLY6        0.0000 
     68 CA        250.1900  253.4600  147.1500 C.3       5 GLY6        0.0000 
     69 CA        251.4900  249.3500  153.4700 C.3       5 GLY6        0.0000 
     70 CA        250.3200  247.3600  160.6000 C.3       5 GLY6        0.0000 
     71 CA        251.3300  248.3700  161.0500 C.3       5 GLY6        0.0000 
     72 CA        249.8600  249.9000  160.9200 C.3       5 GLY6        0.0000 
     73 CA        252.9700  251.0200  156.3900 C.3       5 GLY6        0.0000 
     74 CA        252.3400  249.3800  161.5000 C.3       5 GLY6        0.0000 
     75 DU        247.4400  245.3100  151.6700 H         6 CUB7        0.0000 
     76 DU        250.9300  245.8000  152.7000 H         6 CUB7        0.0000 
     77 DU        246.6200  251.6700  149.2100 H         6 CUB7        0.0000 
     78 DU        250.4000  248.6500  157.5100 H         6 CUB7        0.0000 
     79 DU        249.9400  249.5900  156.4300 H         6 CUB7        0.0000 
     80 DU        249.4800  250.5300  155.3600 H         6 CUB7        0.0000 
     81 DU        249.8600  248.3000  159.5300 H         6 CUB7        0.0000 
     82 DU        248.9400  250.1800  157.3800 H         6 CUB7        0.0000 
     83 DU        251.4100  249.6600  157.9600 H         6 CUB7        0.0000 
     84 DU        250.9500  250.6000  156.8800 H         6 CUB7        0.0000 
     85 DU        250.8700  249.3100  159.9800 H         6 CUB7        0.0000 
     86 DU        250.4100  250.2500  158.9000 H         6 CUB7        0.0000 
     87 DU        251.8800  250.3200  160.4200 H         6 CUB7        0.0000 
@<TRIPOS>BOND
@<TRIPOS>SUBSTRUCTURE
     1 SER1        1 GROUP   
     2 ALA2       32 GROUP   
     3 ASP3       37 GROUP   
     4 PHE5       50 GROUP   
     5 GLY6       57 GROUP   
     6 CUB7       75 GROUP   
@<TRIPOS>SET

