#    Name: 6c3p_1_ATP
#    Modification time : Fri May 22 19:28:10 2020

@<TRIPOS>MOLECULE
6c3p_1_ATP
   31    33     1     0     1
SMALL
NO_CHARGES


@<TRIPOS>ATOM
      1 PG        229.0060  192.3780  178.4550 P.3       1 ATP501      0.0000 
      2 O1G       227.7390  192.2700  177.6430 O.co2     1 ATP501      0.0000 
      3 O2G       229.2440  191.2250  179.4000 O.co2     1 ATP501      0.0000 
      4 O3G       230.2140  192.8220  177.6680 O.co2     1 ATP501      0.0000 
      5 PB        228.2460  195.0060  178.7940 P.3       1 ATP501      0.0000 
      6 O1B       228.7920  195.1550  177.3990 O.co2     1 ATP501      0.0000 
      7 O2B       228.4410  196.0990  179.8160 O.co2     1 ATP501      0.0000 
      8 O3B       228.7130  193.6140  179.4330 O.3       1 ATP501      0.0000 
      9 PA        225.8050  195.7930  177.8790 P.3       1 ATP501      0.0000 
     10 O1A       225.5550  195.2960  176.4770 O.co2     1 ATP501      0.0000 
     11 O2A       226.4650  197.1220  178.1480 O.co2     1 ATP501      0.0000 
     12 O3A       226.6810  194.7170  178.6650 O.3       1 ATP501      0.0000 
     13 O5'       224.4500  195.7030  178.7240 O.3       1 ATP501      0.0000 
     14 C5'       223.7700  196.8820  179.1240 C.3       1 ATP501      0.0000 
     15 C4'       223.2280  196.5930  180.5100 C.3       1 ATP501      0.0000 
     16 O4'       223.0290  195.1880  180.6260 O.3       1 ATP501      0.0000 
     17 C3'       224.2370  196.9890  181.5730 C.3       1 ATP501      0.0000 
     18 O3'       223.6970  198.0400  182.3750 O.3       1 ATP501      0.0000 
     19 C2'       224.4760  195.7500  182.4120 C.3       1 ATP501      0.0000 
     20 O2'       224.1690  196.0000  183.7830 O.3       1 ATP501      0.0000 
     21 C1'       223.5290  194.7030  181.8690 C.3       1 ATP501      0.0000 
     22 N9        224.2570  193.4300  181.6710 N.pl3     1 ATP501      0.0000 
     23 C8        225.3020  193.2290  180.8500 C.2       1 ATP501      0.0000 
     24 N7        225.7330  191.9440  180.9100 N.2       1 ATP501      0.0000 
     25 C5        224.9480  191.2990  181.7930 C.ar      1 ATP501      0.0000 
     26 C6        224.8400  189.9210  182.3300 C.ar      1 ATP501      0.0000 
     27 N6        225.6940  188.9430  181.9500 N.pl3     1 ATP501      0.0000 
     28 N1        223.8800  189.6780  183.2450 N.ar      1 ATP501      0.0000 
     29 C2        223.0320  190.6380  183.6500 C.ar      1 ATP501      0.0000 
     30 N3        223.0620  191.9030  183.2020 N.ar      1 ATP501      0.0000 
     31 C4        223.9840  192.2870  182.2920 C.ar      1 ATP501      0.0000 
@<TRIPOS>BOND
     1    1    2 ar   
     2    1    3 ar   
     3    1    4 ar   
     4    1    8 1    
     5    5    6 ar   
     6    5    7 ar   
     7    5    8 1    
     8    5   12 1    
     9    9   10 ar   
    10    9   11 ar   
    11    9   12 1    
    12    9   13 1    
    13   13   14 1    
    14   14   15 1    
    15   15   16 1    
    16   15   17 1    
    17   16   21 1    
    18   17   18 1    
    19   17   19 1    
    20   19   20 1    
    21   19   21 1    
    22   21   22 1    
    23   22   23 1    
    24   22   31 1    
    25   23   24 2    
    26   24   25 1    
    27   25   26 ar   
    28   25   31 ar   
    29   26   27 1    
    30   26   28 ar   
    31   28   29 ar   
    32   29   30 ar   
    33   30   31 ar   
@<TRIPOS>SUBSTRUCTURE
     1 ATP501      1 GROUP   
@<TRIPOS>SET
ATOM$ORANGE STATIC     ATOMS   COLORGROUP SYSTEM 
20 14 14 15 15 17 17 19 19 21 21 23 23 25 25 26 26 29 \
29 31 31 

