#    Name: 6c3p_4_ATP
#    Modification time : Fri May 22 19:28:46 2020

@<TRIPOS>MOLECULE
6c3p_4_ATP
   31    33     1     0     1
SMALL
NO_CHARGES


@<TRIPOS>ATOM
      1 PG        160.7790  197.5910  178.6850 P.3       1 ATP501      0.0000 
      2 O1G       162.0320  197.7440  177.8580 O.co2     1 ATP501      0.0000 
      3 O2G       160.5470  198.6950  179.6860 O.co2     1 ATP501      0.0000 
      4 O3G       159.5620  197.1710  177.8980 O.co2     1 ATP501      0.0000 
      5 PB        161.5920  194.9690  178.8780 P.3       1 ATP501      0.0000 
      6 O1B       161.0780  194.9170  177.4630 O.co2     1 ATP501      0.0000 
      7 O2B       161.3810  193.8090  179.8180 O.co2     1 ATP501      0.0000 
      8 O3B       161.0990  196.3130  179.5980 O.3       1 ATP501      0.0000 
      9 PA        164.0570  194.2570  177.9770 P.3       1 ATP501      0.0000 
     10 O1A       164.3110  194.8300  176.6060 O.co2     1 ATP501      0.0000 
     11 O2A       163.4170  192.9080  178.1690 O.co2     1 ATP501      0.0000 
     12 O3A       163.1580  195.2770  178.8100 O.3       1 ATP501      0.0000 
     13 O5'       165.4030  194.3240  178.8380 O.3       1 ATP501      0.0000 
     14 C5'       166.0550  193.1310  179.2400 C.3       1 ATP501      0.0000 
     15 C4'       166.6160  193.4160  180.6180 C.3       1 ATP501      0.0000 
     16 O4'       166.8290  194.8210  180.7230 O.3       1 ATP501      0.0000 
     17 C3'       165.6110  193.0340  181.6900 C.3       1 ATP501      0.0000 
     18 O3'       166.1480  191.9750  182.4880 O.3       1 ATP501      0.0000 
     19 C2'       165.3960  194.2750  182.5300 C.3       1 ATP501      0.0000 
     20 O2'       165.7210  194.0300  183.8990 O.3       1 ATP501      0.0000 
     21 C1'       166.3510  195.3080  181.9740 C.3       1 ATP501      0.0000 
     22 N9        165.6300  196.5850  181.7940 N.pl3     1 ATP501      0.0000 
     23 C8        164.5770  196.8090  180.9880 C.2       1 ATP501      0.0000 
     24 N7        164.1640  198.1000  181.0760 N.2       1 ATP501      0.0000 
     25 C5        164.9680  198.7170  181.9600 C.ar      1 ATP501      0.0000 
     26 C6        165.1050  200.0800  182.5230 C.ar      1 ATP501      0.0000 
     27 N6        164.2590  201.0740  182.1780 N.pl3     1 ATP501      0.0000 
     28 N1        166.0750  200.2940  183.4350 N.ar      1 ATP501      0.0000 
     29 C2        166.9120  199.3150  183.8100 C.ar      1 ATP501      0.0000 
     30 N3        166.8590  198.0610  183.3380 N.ar      1 ATP501      0.0000 
     31 C4        165.9230  197.7090  182.4330 C.ar      1 ATP501      0.0000 
@<TRIPOS>BOND
     1    1    2 ar   
     2    1    3 ar   
     3    1    4 ar   
     4    1    8 1    
     5    5    6 ar   
     6    5    7 ar   
     7    5    8 1    
     8    5   12 1    
     9    9   10 ar   
    10    9   11 ar   
    11    9   12 1    
    12    9   13 1    
    13   13   14 1    
    14   14   15 1    
    15   15   16 1    
    16   15   17 1    
    17   16   21 1    
    18   17   18 1    
    19   17   19 1    
    20   19   20 1    
    21   19   21 1    
    22   21   22 1    
    23   22   23 1    
    24   22   31 1    
    25   23   24 2    
    26   24   25 1    
    27   25   26 ar   
    28   25   31 ar   
    29   26   27 1    
    30   26   28 ar   
    31   28   29 ar   
    32   29   30 ar   
    33   30   31 ar   
@<TRIPOS>SUBSTRUCTURE
     1 ATP501      1 GROUP   
@<TRIPOS>SET
ATOM$ORANGE STATIC     ATOMS   COLORGROUP SYSTEM 
20 14 14 15 15 17 17 19 19 21 21 23 23 25 25 26 26 29 \
29 31 31 

