#    Name: 6c3p_8_ATP
#    Modification time : Fri May 22 19:30:05 2020

@<TRIPOS>MOLECULE
6c3p_8_ATP
   31    33     1     0     1
SMALL
NO_CHARGES


@<TRIPOS>ATOM
      1 PG        267.1990  153.7900  149.0890 P.3       1 ATP2004     0.0000 
      2 O1G       267.1280  154.5570  147.7930 O.co2     1 ATP2004     0.0000 
      3 O2G       265.9630  153.0140  149.4650 O.co2     1 ATP2004     0.0000 
      4 O3G       268.4960  153.0630  149.3180 O.co2     1 ATP2004     0.0000 
      5 PB        268.2640  156.1700  149.9440 P.3       1 ATP2004     0.0000 
      6 O1B       269.4340  155.7150  149.1160 O.co2     1 ATP2004     0.0000 
      7 O2B       267.4770  157.3430  149.4620 O.co2     1 ATP2004     0.0000 
      8 O3B       267.2460  154.9570  150.1760 O.3       1 ATP2004     0.0000 
      9 PA        269.5480  157.7610  151.7990 P.3       1 ATP2004     0.0000 
     10 O1A       269.7680  158.4710  150.4950 O.co2     1 ATP2004     0.0000 
     11 O2A       268.8750  158.4810  152.9400 O.co2     1 ATP2004     0.0000 
     12 O3A       268.7250  156.4320  151.4570 O.3       1 ATP2004     0.0000 
     13 O5'       270.9420  157.1320  152.3110 O.3       1 ATP2004     0.0000 
     14 C5'       272.2110  157.6780  151.9580 C.3       1 ATP2004     0.0000 
     15 C4'       273.2880  157.1200  152.8850 C.3       1 ATP2004     0.0000 
     16 O4'       273.1910  157.7470  154.1630 O.3       1 ATP2004     0.0000 
     17 C3'       273.1460  155.6210  153.0990 C.3       1 ATP2004     0.0000 
     18 O3'       274.3410  154.9560  152.6890 O.3       1 ATP2004     0.0000 
     19 C2'       272.9460  155.4120  154.5870 C.3       1 ATP2004     0.0000 
     20 O2'       273.9220  154.4980  155.0940 O.3       1 ATP2004     0.0000 
     21 C1'       273.1310  156.7810  155.2140 C.3       1 ATP2004     0.0000 
     22 N9        271.9600  157.0880  156.0600 N.pl3     1 ATP2004     0.0000 
     23 C8        270.6780  156.9130  155.7050 C.2       1 ATP2004     0.0000 
     24 N7        269.8400  157.2920  156.7000 N.2       1 ATP2004     0.0000 
     25 C5        270.6010  157.7140  157.7190 C.ar      1 ATP2004     0.0000 
     26 C6        270.3570  158.2490  159.0710 C.ar      1 ATP2004     0.0000 
     27 N6        269.0970  158.4030  159.5340 N.pl3     1 ATP2004     0.0000 
     28 N1        271.4310  158.5760  159.8160 N.ar      1 ATP2004     0.0000 
     29 C2        272.6850  158.4220  159.3560 C.ar      1 ATP2004     0.0000 
     30 N3        272.9830  157.9430  158.1380 N.ar      1 ATP2004     0.0000 
     31 C4        271.9980  157.5780  157.2910 C.ar      1 ATP2004     0.0000 
@<TRIPOS>BOND
     1    1    2 ar   
     2    1    3 ar   
     3    1    4 ar   
     4    1    8 1    
     5    5    6 ar   
     6    5    7 ar   
     7    5    8 1    
     8    5   12 1    
     9    9   10 ar   
    10    9   11 ar   
    11    9   12 1    
    12    9   13 1    
    13   13   14 1    
    14   14   15 1    
    15   15   16 1    
    16   15   17 1    
    17   16   21 1    
    18   17   18 1    
    19   17   19 1    
    20   19   20 1    
    21   19   21 1    
    22   21   22 1    
    23   22   23 1    
    24   22   31 1    
    25   23   24 2    
    26   24   25 1    
    27   25   26 ar   
    28   25   31 ar   
    29   26   27 1    
    30   26   28 ar   
    31   28   29 ar   
    32   29   30 ar   
    33   30   31 ar   
@<TRIPOS>SUBSTRUCTURE
     1 ATP2004     1 GROUP   
@<TRIPOS>SET
ATOM$ORANGE STATIC     ATOMS   COLORGROUP SYSTEM 
20 14 14 15 15 17 17 19 19 21 21 23 23 25 25 26 26 29 \
29 31 31 

