#    Name: 6c3p_11_ADP_CAVITY_N1_6
#    Modification time : Fri May 22 19:31:05 2020

@<TRIPOS>MOLECULE
6c3p_11_ADP_CAVITY_N1_6
  113     0     6     0     0
SMALL
NO_CHARGES


@<TRIPOS>ATOM
      1 OG        140.9400  244.4300  148.4100 O.3       1 SER1        0.0000 
      2 OG        139.9300  245.0200  149.3600 O.3       1 SER1        0.0000 
      3 OG        139.4700  245.9600  148.2800 O.3       1 SER1        0.0000 
      4 OG        139.0100  246.8900  147.2100 O.3       1 SER1        0.0000 
      5 OG        143.4200  243.9100  148.9900 O.3       1 SER1        0.0000 
      6 OG        142.4100  244.5000  149.9300 O.3       1 SER1        0.0000 
      7 OG        140.9500  246.0300  149.8000 O.3       1 SER1        0.0000 
      8 OG        138.3900  246.8500  153.7100 O.3       1 SER1        0.0000 
      9 OG        144.4300  244.9200  149.4400 O.3       1 SER1        0.0000 
     10 OG        143.4300  245.5100  150.3800 O.3       1 SER1        0.0000 
     11 OG        142.4200  246.1000  151.3300 O.3       1 SER1        0.0000 
     12 OG        141.9600  247.0400  150.2500 O.3       1 SER1        0.0000 
     13 OG        139.8600  246.9300  155.2400 O.3       1 SER1        0.0000 
     14 OG        139.4000  247.8700  154.1600 O.3       1 SER1        0.0000 
     15 OG        137.9400  249.3900  154.0300 O.3       1 SER1        0.0000 
     16 OG        136.9300  249.9800  154.9800 O.3       1 SER1        0.0000 
     17 OG        135.4700  251.5100  154.8500 O.3       1 SER1        0.0000 
     18 OG        145.4500  245.9300  149.8900 O.3       1 SER1        0.0000 
     19 OG        144.9000  245.5800  151.9100 O.3       1 SER1        0.0000 
     20 OG        144.4400  246.5200  150.8300 O.3       1 SER1        0.0000 
     21 OG        143.4300  247.1100  151.7800 O.3       1 SER1        0.0000 
     22 OG        141.9700  248.6400  151.6500 O.3       1 SER1        0.0000 
     23 OG        140.8800  247.9400  155.6900 O.3       1 SER1        0.0000 
     24 OG        140.4200  248.8800  154.6100 O.3       1 SER1        0.0000 
     25 OG        138.9500  250.4000  154.4800 O.3       1 SER1        0.0000 
     26 OG        137.9500  250.9900  155.4300 O.3       1 SER1        0.0000 
     27 OG        141.4300  249.8900  155.0600 O.3       1 SER1        0.0000 
     28 OG        140.9700  250.8300  153.9900 O.3       1 SER1        0.0000 
     29 OG        139.9600  251.4100  154.9300 O.3       1 SER1        0.0000 
     30 OG        138.9600  252.0000  155.8700 O.3       1 SER1        0.0000 
     31 OG        142.4400  250.9000  155.5100 O.3       1 SER1        0.0000 
     32 OG        141.4400  251.4900  156.4500 O.3       1 SER1        0.0000 
     33 N         139.4700  244.3600  146.8900 N.am      2 ALA2        0.0000 
     34 N         138.9200  244.0100  148.9100 N.am      2 ALA2        0.0000 
     35 N         138.4600  244.9400  147.8300 N.am      2 ALA2        0.0000 
     36 N         138.0000  245.8800  146.7600 N.am      2 ALA2        0.0000 
     37 N         137.9200  244.5900  149.8500 N.am      2 ALA2        0.0000 
     38 N         137.4500  245.5300  148.7800 N.am      2 ALA2        0.0000 
     39 N         136.9900  246.4700  147.7000 N.am      2 ALA2        0.0000 
     40 N         135.9900  247.0600  148.6500 N.am      2 ALA2        0.0000 
     41 N         135.5300  248.0000  147.5700 N.am      2 ALA2        0.0000 
     42 O         139.3900  244.6700  151.3800 O.2       2 ALA2        0.0000 
     43 O         138.3800  245.2500  152.3200 O.2       2 ALA2        0.0000 
     44 N         136.5400  249.0100  148.0200 N.am      2 ALA2        0.0000 
     45 OD1       138.0900  248.7700  145.0500 O.co2     3 ASP3        0.0000 
     46 OD1       138.0100  247.4800  148.1500 O.co2     3 ASP3        0.0000 
     47 OD1       137.4600  247.1300  150.1700 O.co2     3 ASP3        0.0000 
     48 OD1       137.0000  248.0700  149.0900 O.co2     3 ASP3        0.0000 
     49 OD1       139.5600  248.8400  146.5800 O.co2     3 ASP3        0.0000 
     50 OD1       139.9400  246.6200  150.7500 O.co2     3 ASP3        0.0000 
     51 OD1       139.4800  247.5600  149.6700 O.co2     3 ASP3        0.0000 
     52 OD1       139.0200  248.4900  148.6000 O.co2     3 ASP3        0.0000 
     53 OD1       138.9400  247.2000  151.6900 O.co2     3 ASP3        0.0000 
     54 OD1       137.9300  247.7900  152.6400 O.co2     3 ASP3        0.0000 
     55 OD1       136.9200  248.3800  153.5800 O.co2     3 ASP3        0.0000 
     56 OD1       136.4600  249.3200  152.5100 O.co2     3 ASP3        0.0000 
     57 OD1       136.3800  248.0300  155.6000 O.co2     3 ASP3        0.0000 
     58 OD1       140.9500  247.6300  151.2000 O.co2     3 ASP3        0.0000 
     59 OD1       140.4900  248.5700  150.1200 O.co2     3 ASP3        0.0000 
     60 OD1       140.0300  249.5100  149.0500 O.co2     3 ASP3        0.0000 
     61 OD1       139.9500  248.2200  152.1400 O.co2     3 ASP3        0.0000 
     62 OD1       138.9400  248.8000  153.0900 O.co2     3 ASP3        0.0000 
     63 OD1       137.8500  248.1000  157.1300 O.co2     3 ASP3        0.0000 
     64 OD1       137.3900  249.0400  156.0500 O.co2     3 ASP3        0.0000 
     65 OD1       135.9300  250.5700  155.9200 O.co2     3 ASP3        0.0000 
     66 OD1       141.5100  249.5800  150.5700 O.co2     3 ASP3        0.0000 
     67 OD1       141.0500  250.5200  149.5000 O.co2     3 ASP3        0.0000 
     68 OD1       140.9600  249.2300  152.5900 O.co2     3 ASP3        0.0000 
     69 OD1       139.9600  249.8200  153.5400 O.co2     3 ASP3        0.0000 
     70 OD1       138.4100  250.0500  156.5000 O.co2     3 ASP3        0.0000 
     71 OD1       136.9400  251.5800  156.3700 O.co2     3 ASP3        0.0000 
     72 OD1       139.4200  251.0600  156.9500 O.co2     3 ASP3        0.0000 
     73 NZ        145.9100  245.0000  150.9600 N.4       4 LYS4        0.0000 
     74 NZ        146.9200  246.0100  151.4100 N.4       4 LYS4        0.0000 
     75 CA        139.0000  245.3000  145.8100 C.3       5 GLY6        0.0000 
     76 CA        137.5400  246.8200  145.6800 C.3       5 GLY6        0.0000 
     77 CA        137.0800  247.7600  144.6100 C.3       5 GLY6        0.0000 
     78 CA        136.0700  248.3500  145.5500 C.3       5 GLY6        0.0000 
     79 CA        136.4500  246.1200  149.7200 C.3       5 GLY6        0.0000 
     80 CA        135.0700  248.9400  146.5000 C.3       5 GLY6        0.0000 
     81 CA        141.4000  243.4900  149.4900 C.3       5 GLY6        0.0000 
     82 CA        139.5600  247.2500  145.1900 C.3       5 GLY6        0.0000 
     83 CA        140.3900  244.0800  150.4300 C.3       5 GLY6        0.0000 
     84 CA        138.5500  247.8300  146.1300 C.3       5 GLY6        0.0000 
     85 CA        137.5500  248.4200  147.0700 C.3       5 GLY6        0.0000 
     86 CA        137.0900  249.3600  146.0000 C.3       5 GLY6        0.0000 
     87 CA        136.0800  249.9500  146.9400 C.3       5 GLY6        0.0000 
     88 CA        136.9200  246.7800  152.1900 C.3       5 GLY6        0.0000 
     89 CA        136.4600  247.7200  151.1100 C.3       5 GLY6        0.0000 
     90 CA        141.4100  245.0900  150.8800 C.3       5 GLY6        0.0000 
     91 CA        140.4000  245.6800  151.8200 C.3       5 GLY6        0.0000 
     92 CA        138.5600  249.4300  147.5200 C.3       5 GLY6        0.0000 
     93 CA        139.4000  246.2700  152.7700 C.3       5 GLY6        0.0000 
     94 CA        138.8500  245.9200  154.7900 C.3       5 GLY6        0.0000 
     95 CA        135.9200  248.9700  154.5300 C.3       5 GLY6        0.0000 
     96 CA        143.8900  244.5700  151.4600 C.3       5 GLY6        0.0000 
     97 CA        139.5700  250.4400  147.9700 C.3       5 GLY6        0.0000 
     98 CA        143.9800  247.4600  149.7600 C.3       5 GLY6        0.0000 
     99 CA        142.9700  248.0500  150.7000 C.3       5 GLY6        0.0000 
    100 CA        143.9900  249.0600  151.1500 C.3       5 GLY6        0.0000 
    101 CA        140.5100  251.7700  152.9100 C.3       5 GLY6        0.0000 
    102 CA        139.9700  253.0100  156.3200 C.3       5 GLY6        0.0000 
    103 DU        136.5300  247.4100  146.6300 H         6 CUB7        0.0000 
    104 DU        138.9300  245.6100  150.3000 H         6 CUB7        0.0000 
    105 DU        138.4700  246.5400  149.2300 H         6 CUB7        0.0000 
    106 DU        137.9200  246.1900  151.2500 H         6 CUB7        0.0000 
    107 DU        137.3900  247.4400  154.6600 H         6 CUB7        0.0000 
    108 DU        138.8600  247.5100  156.1800 H         6 CUB7        0.0000 
    109 DU        138.4000  248.4500  155.1100 H         6 CUB7        0.0000 
    110 DU        139.8700  248.5300  156.6300 H         6 CUB7        0.0000 
    111 DU        139.4100  249.4600  155.5600 H         6 CUB7        0.0000 
    112 DU        145.9100  246.5900  152.3600 H         6 CUB7        0.0000 
    113 DU        140.4200  250.4800  156.0100 H         6 CUB7        0.0000 
@<TRIPOS>BOND
@<TRIPOS>SUBSTRUCTURE
     1 SER1        1 GROUP   
     2 ALA2       33 GROUP   
     3 ASP3       45 GROUP   
     4 LYS4       73 GROUP   
     5 GLY6       75 GROUP   
     6 CUB7      103 GROUP   
@<TRIPOS>SET

