#    Name: 6c3p_12_ATP
#    Modification time : Fri May 22 19:31:23 2020

@<TRIPOS>MOLECULE
6c3p_12_ATP
   31    33     1     0     1
SMALL
NO_CHARGES


@<TRIPOS>ATOM
      1 PG        122.8280  236.3430  149.2220 P.3       1 ATP2004     0.0000 
      2 O1G       122.8930  235.5740  147.9260 O.co2     1 ATP2004     0.0000 
      3 O2G       124.0690  237.1120  149.5920 O.co2     1 ATP2004     0.0000 
      4 O3G       121.5370  237.0780  149.4510 O.co2     1 ATP2004     0.0000 
      5 PB        121.7530  233.9710  150.0830 P.3       1 ATP2004     0.0000 
      6 O1B       120.5850  234.4280  149.2570 O.co2     1 ATP2004     0.0000 
      7 O2B       122.5330  232.7920  149.6010 O.co2     1 ATP2004     0.0000 
      8 O3B       122.7770  235.1800  150.3100 O.3       1 ATP2004     0.0000 
      9 PA        120.4670  232.3880  151.9430 P.3       1 ATP2004     0.0000 
     10 O1A       120.2410  231.6770  150.6420 O.co2     1 ATP2004     0.0000 
     11 O2A       121.1390  231.6680  153.0850 O.co2     1 ATP2004     0.0000 
     12 O3A       121.2950  233.7140  151.5980 O.3       1 ATP2004     0.0000 
     13 O5'       119.0770  233.0260  152.4580 O.3       1 ATP2004     0.0000 
     14 C5'       117.8040  232.4840  152.1090 C.3       1 ATP2004     0.0000 
     15 C4'       116.7320  233.0510  153.0360 C.3       1 ATP2004     0.0000 
     16 O4'       116.8290  232.4240  154.3160 O.3       1 ATP2004     0.0000 
     17 C3'       116.8820  234.5490  153.2480 C.3       1 ATP2004     0.0000 
     18 O3'       115.6890  235.2180  152.8400 O.3       1 ATP2004     0.0000 
     19 C2'       117.0860  234.7590  154.7340 C.3       1 ATP2004     0.0000 
     20 O2'       116.1150  235.6780  155.2430 O.3       1 ATP2004     0.0000 
     21 C1'       116.8960  233.3920  155.3650 C.3       1 ATP2004     0.0000 
     22 N9        118.0670  233.0810  156.2100 N.pl3     1 ATP2004     0.0000 
     23 C8        119.3510  233.2490  155.8510 C.2       1 ATP2004     0.0000 
     24 N7        120.1870  232.8680  156.8450 N.2       1 ATP2004     0.0000 
     25 C5        119.4270  232.4510  157.8660 C.ar      1 ATP2004     0.0000 
     26 C6        119.6720  231.9180  159.2180 C.ar      1 ATP2004     0.0000 
     27 N6        120.9310  231.7590  159.6790 N.pl3     1 ATP2004     0.0000 
     28 N1        118.5980  231.5980  159.9670 N.ar      1 ATP2004     0.0000 
     29 C2        117.3450  231.7560  159.5090 C.ar      1 ATP2004     0.0000 
     30 N3        117.0470  232.2360  158.2920 N.ar      1 ATP2004     0.0000 
     31 C4        118.0300  232.5940  157.4420 C.ar      1 ATP2004     0.0000 
@<TRIPOS>BOND
     1    1    2 ar   
     2    1    3 ar   
     3    1    4 ar   
     4    1    8 1    
     5    5    6 ar   
     6    5    7 ar   
     7    5    8 1    
     8    5   12 1    
     9    9   10 ar   
    10    9   11 ar   
    11    9   12 1    
    12    9   13 1    
    13   13   14 1    
    14   14   15 1    
    15   15   16 1    
    16   15   17 1    
    17   16   21 1    
    18   17   18 1    
    19   17   19 1    
    20   19   20 1    
    21   19   21 1    
    22   21   22 1    
    23   22   23 1    
    24   22   31 1    
    25   23   24 2    
    26   24   25 1    
    27   25   26 ar   
    28   25   31 ar   
    29   26   27 1    
    30   26   28 ar   
    31   28   29 ar   
    32   29   30 ar   
    33   30   31 ar   
@<TRIPOS>SUBSTRUCTURE
     1 ATP2004     1 GROUP   
@<TRIPOS>SET
ATOM$ORANGE STATIC     ATOMS   COLORGROUP SYSTEM 
20 14 14 15 15 17 17 19 19 21 21 23 23 25 25 26 26 29 \
29 31 31 

