#    Name: 6c3p_5_ADP
#    Modification time : Fri May 22 19:29:05 2020

@<TRIPOS>MOLECULE
6c3p_5_ADP
   27    29     1     0     1
SMALL
NO_CHARGES


@<TRIPOS>ATOM
      1 PB        250.8480  249.2240  149.3340 P.3       1 ADP2001     0.0000 
      2 O1B       249.4920  249.1000  148.6880 O.co2     1 ADP2001     0.0000 
      3 O2B       251.8690  248.2450  148.8100 O.co2     1 ADP2001     0.0000 
      4 O3B       251.3490  250.6360  149.4960 O.co2     1 ADP2001     0.0000 
      5 PA        251.8230  248.7080  151.8900 P.3       1 ADP2001     0.0000 
      6 O1A       253.0980  249.0800  151.1710 O.co2     1 ADP2001     0.0000 
      7 O2A       251.4190  249.4680  153.1300 O.co2     1 ADP2001     0.0000 
      8 O3A       250.5940  248.7860  150.8570 O.3       1 ADP2001     0.0000 
      9 O5'       251.8710  247.1460  152.2570 O.3       1 ADP2001     0.0000 
     10 C5'       252.0130  246.1660  151.2350 C.3       1 ADP2001     0.0000 
     11 C4'       251.8780  244.8000  151.8870 C.3       1 ADP2001     0.0000 
     12 O4'       252.3610  244.8880  153.2270 O.3       1 ADP2001     0.0000 
     13 C3'       250.4310  244.3430  151.9510 C.3       1 ADP2001     0.0000 
     14 O3'       250.3090  243.1110  151.2360 O.3       1 ADP2001     0.0000 
     15 C2'       250.1250  244.1150  153.4170 C.3       1 ADP2001     0.0000 
     16 O2'       249.6020  242.7990  153.6220 O.3       1 ADP2001     0.0000 
     17 C1'       251.4540  244.2710  154.1360 C.3       1 ADP2001     0.0000 
     18 N9        251.2900  245.1480  155.3140 N.pl3     1 ADP2001     0.0000 
     19 C8        251.1390  246.4840  155.2870 C.2       1 ADP2001     0.0000 
     20 N7        251.0150  246.9860  156.5440 N.2       1 ADP2001     0.0000 
     21 C5        251.0860  245.9510  157.3970 C.ar      1 ADP2001     0.0000 
     22 C6        251.0270  245.7690  158.8630 C.ar      1 ADP2001     0.0000 
     23 N6        250.8670  246.8220  159.6960 N.pl3     1 ADP2001     0.0000 
     24 N1        251.1410  244.5150  159.3460 N.ar      1 ADP2001     0.0000 
     25 C2        251.3060  243.4530  158.5370 C.ar      1 ADP2001     0.0000 
     26 N3        251.3670  243.5430  157.1990 N.ar      1 ADP2001     0.0000 
     27 C4        251.2620  244.7430  156.5830 C.ar      1 ADP2001     0.0000 
@<TRIPOS>BOND
     1    1    2 ar   
     2    1    3 ar   
     3    1    4 ar   
     4    1    8 1    
     5    5    6 ar   
     6    5    7 ar   
     7    5    8 1    
     8    5    9 1    
     9    9   10 1    
    10   10   11 1    
    11   11   12 1    
    12   11   13 1    
    13   12   17 1    
    14   13   14 1    
    15   13   15 1    
    16   15   16 1    
    17   15   17 1    
    18   17   18 1    
    19   18   19 1    
    20   18   27 1    
    21   19   20 2    
    22   20   21 1    
    23   21   22 ar   
    24   21   27 ar   
    25   22   23 1    
    26   22   24 ar   
    27   24   25 ar   
    28   25   26 ar   
    29   26   27 ar   
@<TRIPOS>SUBSTRUCTURE
     1 ADP2001     1 GROUP   
@<TRIPOS>SET
ATOM$ORANGE STATIC     ATOMS   COLORGROUP SYSTEM 
20 10 10 11 11 13 13 15 15 17 17 19 19 21 21 22 22 25 \
25 27 27 

