#    Name: 6c3p_9_ADP_CAVITY_N1_6
#    Modification time : Fri May 22 19:30:26 2020

@<TRIPOS>MOLECULE
6c3p_9_ADP_CAVITY_N1_6
   83     0     6     0     0
SMALL
NO_CHARGES


@<TRIPOS>ATOM
      1 OG        139.5600  136.1200  154.8600 O.3       1 SER1        0.0000 
      2 OG        138.5600  136.7100  155.8100 O.3       1 SER1        0.0000 
      3 OG        137.0900  138.2400  155.6700 O.3       1 SER1        0.0000 
      4 OG        142.7600  138.5300  147.2300 O.3       1 SER1        0.0000 
      5 OG        141.7500  139.1200  148.1700 O.3       1 SER1        0.0000 
      6 OG        140.5800  137.1300  155.3100 O.3       1 SER1        0.0000 
      7 OG        140.1200  138.0700  154.2300 O.3       1 SER1        0.0000 
      8 OG        139.1100  138.6600  155.1800 O.3       1 SER1        0.0000 
      9 OG        138.1100  139.2500  156.1200 O.3       1 SER1        0.0000 
     10 OG        143.7700  139.5400  147.6800 O.3       1 SER1        0.0000 
     11 OG        143.2200  139.1900  149.7000 O.3       1 SER1        0.0000 
     12 OG        141.7600  140.7200  149.5700 O.3       1 SER1        0.0000 
     13 OG        141.1300  139.0800  154.6800 O.3       1 SER1        0.0000 
     14 OG        139.6600  140.6100  154.5500 O.3       1 SER1        0.0000 
     15 OG        138.6600  141.2000  155.5000 O.3       1 SER1        0.0000 
     16 OG        145.7900  139.9700  147.1800 O.3       1 SER1        0.0000 
     17 OG        145.2400  139.6200  149.2000 O.3       1 SER1        0.0000 
     18 OG        144.2400  140.2000  150.1500 O.3       1 SER1        0.0000 
     19 OG        143.2300  140.7900  151.0900 O.3       1 SER1        0.0000 
     20 OG        143.1500  139.5000  154.1900 O.3       1 SER1        0.0000 
     21 OG        142.2300  141.3800  152.0400 O.3       1 SER1        0.0000 
     22 OG        141.7700  142.3200  150.9600 O.3       1 SER1        0.0000 
     23 OG        142.6000  139.1500  156.2100 O.3       1 SER1        0.0000 
     24 OG        142.1400  140.0900  155.1300 O.3       1 SER1        0.0000 
     25 OG        145.8000  141.5700  148.5800 O.3       1 SER1        0.0000 
     26 N         141.1900  135.5700  147.4100 N.am      2 ALA2        0.0000 
     27 N         143.2100  135.9900  146.9100 N.am      2 ALA2        0.0000 
     28 N         142.6600  135.6400  148.9300 N.am      2 ALA2        0.0000 
     29 N         142.2000  136.5800  147.8600 N.am      2 ALA2        0.0000 
     30 N         141.6600  136.2300  149.8800 N.am      2 ALA2        0.0000 
     31 N         144.2200  137.0100  147.3600 N.am      2 ALA2        0.0000 
     32 N         143.6800  136.6600  149.3800 N.am      2 ALA2        0.0000 
     33 N         143.2200  137.5900  148.3000 N.am      2 ALA2        0.0000 
     34 N         144.7800  138.9600  146.7300 N.am      2 ALA2        0.0000 
     35 N         144.6900  137.6700  149.8300 N.am      2 ALA2        0.0000 
     36 N         144.2300  138.6100  148.7500 N.am      2 ALA2        0.0000 
     37 N         146.2500  139.0300  148.2600 N.am      2 ALA2        0.0000 
     38 O         145.7000  138.6800  150.2800 O.2       2 ALA2        0.0000 
     39 O         144.7000  139.2700  151.2200 O.2       2 ALA2        0.0000 
     40 O         145.7100  140.2800  151.6700 O.2       2 ALA2        0.0000 
     41 OD1       141.2800  138.4600  145.7100 O.co2     3 ASP3        0.0000 
     42 OD1       141.2000  137.1700  148.8000 O.co2     3 ASP3        0.0000 
     43 OD1       140.7400  138.1100  147.7300 O.co2     3 ASP3        0.0000 
     44 OD1       140.1100  136.4700  152.8400 O.co2     3 ASP3        0.0000 
     45 OD1       142.6700  137.2400  150.3200 O.co2     3 ASP3        0.0000 
     46 OD1       142.2100  138.1800  149.2500 O.co2     3 ASP3        0.0000 
     47 OD1       142.1300  136.8900  152.3400 O.co2     3 ASP3        0.0000 
     48 OD1       140.7500  139.7100  149.1200 O.co2     3 ASP3        0.0000 
     49 OD1       141.1200  137.4800  153.2900 O.co2     3 ASP3        0.0000 
     50 OD1       141.0400  136.1900  156.3800 O.co2     3 ASP3        0.0000 
     51 OD1       139.5700  137.7200  156.2500 O.co2     3 ASP3        0.0000 
     52 OD1       143.1400  137.9000  152.7900 O.co2     3 ASP3        0.0000 
     53 OD1       142.6800  138.8400  151.7200 O.co2     3 ASP3        0.0000 
     54 OD1       142.2200  139.7800  150.6400 O.co2     3 ASP3        0.0000 
     55 OD1       142.1400  138.4900  153.7400 O.co2     3 ASP3        0.0000 
     56 OD1       141.6700  139.4300  152.6600 O.co2     3 ASP3        0.0000 
     57 OD1       141.2100  140.3700  151.5900 O.co2     3 ASP3        0.0000 
     58 OD1       140.7500  141.3100  150.5100 O.co2     3 ASP3        0.0000 
     59 OD1       142.0500  137.2000  156.8300 O.co2     3 ASP3        0.0000 
     60 NZ        140.1900  136.1600  148.3500 N.4       4 LYS4        0.0000 
     61 CA        140.7300  136.5100  146.3300 C.3       5 GLY6        0.0000 
     62 CA        142.7500  136.9300  145.8400 C.3       5 GLY6        0.0000 
     63 CA        142.2900  137.8700  144.7600 C.3       5 GLY6        0.0000 
     64 CA        141.1100  135.8800  151.9000 C.3       5 GLY6        0.0000 
     65 CA        140.5700  135.5300  153.9200 C.3       5 GLY6        0.0000 
     66 CA        143.7600  137.9400  146.2800 C.3       5 GLY6        0.0000 
     67 CA        143.3000  138.8800  145.2100 C.3       5 GLY6        0.0000 
     68 CA        142.3000  139.4700  146.1500 C.3       5 GLY6        0.0000 
     69 CA        143.1300  136.3000  151.4000 C.3       5 GLY6        0.0000 
     70 CA        142.5900  135.9500  153.4200 C.3       5 GLY6        0.0000 
     71 CA        141.5800  136.5400  154.3600 C.3       5 GLY6        0.0000 
     72 CA        144.1500  138.9200  153.2400 C.3       5 GLY6        0.0000 
     73 CA        143.6900  139.8500  152.1700 C.3       5 GLY6        0.0000 
     74 CA        143.6100  138.5600  155.2600 C.3       5 GLY6        0.0000 
     75 CA        146.2600  140.6300  149.6500 C.3       5 GLY6        0.0000 
     76 CA        145.2500  141.2200  150.6000 C.3       5 GLY6        0.0000 
     77 CA        144.2500  141.8000  151.5400 C.3       5 GLY6        0.0000 
     78 DU        141.7400  137.5200  146.7800 H         6 CUB7        0.0000 
     79 DU        144.1500  137.3200  151.8500 H         6 CUB7        0.0000 
     80 DU        143.6900  138.2500  150.7700 H         6 CUB7        0.0000 
     81 DU        142.6000  137.5500  154.8100 H         6 CUB7        0.0000 
     82 DU        141.5900  138.1400  155.7600 H         6 CUB7        0.0000 
     83 DU        140.1200  139.6700  155.6300 H         6 CUB7        0.0000 
@<TRIPOS>BOND
@<TRIPOS>SUBSTRUCTURE
     1 SER1        1 GROUP   
     2 ALA2       26 GROUP   
     3 ASP3       41 GROUP   
     4 LYS4       60 GROUP   
     5 GLY6       61 GROUP   
     6 CUB7       78 GROUP   
@<TRIPOS>SET

