#    Name: 6c3p_11_ADP
#    Modification time : Fri May 22 19:31:04 2020

@<TRIPOS>MOLECULE
6c3p_11_ADP
   27    29     1     0     1
SMALL
NO_CHARGES


@<TRIPOS>ATOM
      1 PB        140.9650  250.3800  149.1430 P.3       1 ADP2001     0.0000 
      2 O1B       141.0890  249.0190  148.5060 O.co2     1 ADP2001     0.0000 
      3 O2B       141.9450  251.3970  148.6140 O.co2     1 ADP2001     0.0000 
      4 O3B       139.5520  250.8820  149.2980 O.co2     1 ADP2001     0.0000 
      5 PA        141.4760  251.3700  151.6930 P.3       1 ADP2001     0.0000 
      6 O1A       141.1060  252.6410  150.9650 O.co2     1 ADP2001     0.0000 
      7 O2A       140.7120  250.9730  152.9350 O.co2     1 ADP2001     0.0000 
      8 O3A       141.3980  250.1340  150.6680 O.3       1 ADP2001     0.0000 
      9 O5'       143.0360  251.4200  152.0630 O.3       1 ADP2001     0.0000 
     10 C5'       144.0180  251.5540  151.0430 C.3       1 ADP2001     0.0000 
     11 C4'       145.3840  251.4240  151.6990 C.3       1 ADP2001     0.0000 
     12 O4'       145.2920  251.9140  153.0350 O.3       1 ADP2001     0.0000 
     13 C3'       145.8410  249.9770  151.7730 C.3       1 ADP2001     0.0000 
     14 O3'       147.0730  249.8490  151.0610 O.3       1 ADP2001     0.0000 
     15 C2'       146.0650  249.6800  153.2420 C.3       1 ADP2001     0.0000 
     16 O2'       147.3780  249.1580  153.4520 O.3       1 ADP2001     0.0000 
     17 C1'       145.9070  251.0130  153.9510 C.3       1 ADP2001     0.0000 
     18 N9        145.0270  250.8570  155.1300 N.pl3     1 ADP2001     0.0000 
     19 C8        143.6920  250.7070  155.1000 C.2       1 ADP2001     0.0000 
     20 N7        143.1870  250.5910  156.3550 N.2       1 ADP2001     0.0000 
     21 C5        144.2200  250.6670  157.2110 C.ar      1 ADP2001     0.0000 
     22 C6        144.3990  250.6180  158.6780 C.ar      1 ADP2001     0.0000 
     23 N6        143.3440  250.4630  159.5090 N.pl3     1 ADP2001     0.0000 
     24 N1        145.6510  250.7340  159.1640 N.ar      1 ADP2001     0.0000 
     25 C2        146.7160  250.8940  158.3560 C.ar      1 ADP2001     0.0000 
     26 N3        146.6290  250.9470  157.0170 N.ar      1 ADP2001     0.0000 
     27 C4        145.4310  250.8380  156.3990 C.ar      1 ADP2001     0.0000 
@<TRIPOS>BOND
     1    1    2 ar   
     2    1    3 ar   
     3    1    4 ar   
     4    1    8 1    
     5    5    6 ar   
     6    5    7 ar   
     7    5    8 1    
     8    5    9 1    
     9    9   10 1    
    10   10   11 1    
    11   11   12 1    
    12   11   13 1    
    13   12   17 1    
    14   13   14 1    
    15   13   15 1    
    16   15   16 1    
    17   15   17 1    
    18   17   18 1    
    19   18   19 1    
    20   18   27 1    
    21   19   20 2    
    22   20   21 1    
    23   21   22 ar   
    24   21   27 ar   
    25   22   23 1    
    26   22   24 ar   
    27   24   25 ar   
    28   25   26 ar   
    29   26   27 ar   
@<TRIPOS>SUBSTRUCTURE
     1 ADP2001     1 GROUP   
@<TRIPOS>SET
ATOM$ORANGE STATIC     ATOMS   COLORGROUP SYSTEM 
20 10 10 11 11 13 13 15 15 17 17 19 19 21 21 22 22 25 \
25 27 27 

