#    Name: 6c3p_8_ATP_CAVITY_N1_4
#    Modification time : Fri May 22 19:30:06 2020

@<TRIPOS>MOLECULE
6c3p_8_ATP_CAVITY_N1_4
  108     0     7     0     0
SMALL
NO_CHARGES


@<TRIPOS>ATOM
      1 OG        268.5700  156.7100  153.1400 O.3       1 SER1        0.0000 
      2 OG        268.0300  156.3600  155.1600 O.3       1 SER1        0.0000 
      3 OG        272.5200  154.6700  153.8500 O.3       1 SER1        0.0000 
      4 OG        272.0600  155.6100  152.7700 O.3       1 SER1        0.0000 
      5 OG        271.0500  156.1900  153.7100 O.3       1 SER1        0.0000 
      6 OG        270.5900  157.1300  152.6400 O.3       1 SER1        0.0000 
      7 OG        270.0500  156.7800  154.6600 O.3       1 SER1        0.0000 
      8 OG        269.5900  157.7200  153.5800 O.3       1 SER1        0.0000 
      9 OG        268.5800  158.3100  154.5300 O.3       1 SER1        0.0000 
     10 OG        272.6100  157.5600  152.1400 O.3       1 SER1        0.0000 
     11 OG        272.0700  157.2100  154.1600 O.3       1 SER1        0.0000 
     12 OG        276.5700  158.7100  155.6400 O.3       1 SER1        0.0000 
     13 N         266.5600  156.2900  153.6300 N.am      2 ALA2        0.0000 
     14 N         267.9500  155.0700  158.2500 N.am      2 ALA2        0.0000 
     15 N         267.4800  156.0100  157.1800 N.am      2 ALA2        0.0000 
     16 N         266.5600  157.8900  155.0300 N.am      2 ALA2        0.0000 
     17 N         275.5400  152.9000  151.0100 N.am      2 ALA2        0.0000 
     18 N         274.9900  152.5500  153.0300 N.am      2 ALA2        0.0000 
     19 N         274.5300  153.4900  151.9600 N.am      2 ALA2        0.0000 
     20 N         273.5300  154.0800  152.9000 N.am      2 ALA2        0.0000 
     21 N         271.6000  156.5400  151.6900 N.am      2 ALA2        0.0000 
     22 N         271.5100  155.2600  154.7900 N.am      2 ALA2        0.0000 
     23 N         270.5100  155.8400  155.7300 N.am      2 ALA2        0.0000 
     24 N         269.5000  156.4300  156.6800 N.am      2 ALA2        0.0000 
     25 N         268.5000  157.0200  157.6200 N.am      2 ALA2        0.0000 
     26 N         267.4900  157.6100  158.5700 N.am      2 ALA2        0.0000 
     27 N         275.5400  154.5000  152.4000 N.am      2 ALA2        0.0000 
     28 N         275.0800  155.4400  151.3300 N.am      2 ALA2        0.0000 
     29 N         274.0800  156.0300  152.2700 N.am      2 ALA2        0.0000 
     30 N         273.9900  154.7400  155.3700 N.am      2 ALA2        0.0000 
     31 N         273.0700  156.6200  153.2200 N.am      2 ALA2        0.0000 
     32 N         272.5300  156.2700  155.2400 N.am      2 ALA2        0.0000 
     33 N         271.5200  156.8500  156.1800 N.am      2 ALA2        0.0000 
     34 N         270.5200  157.4400  157.1300 N.am      2 ALA2        0.0000 
     35 N         276.1000  156.4500  151.7800 N.am      2 ALA2        0.0000 
     36 N         275.6400  157.3900  150.7000 N.am      2 ALA2        0.0000 
     37 N         275.1800  158.3300  149.6300 N.am      2 ALA2        0.0000 
     38 N         274.6300  157.9800  151.6500 N.am      2 ALA2        0.0000 
     39 N         275.4700  154.8100  156.8900 N.am      2 ALA2        0.0000 
     40 N         275.0100  155.7500  155.8200 N.am      2 ALA2        0.0000 
     41 O         274.0900  157.6300  153.6700 O.2       2 ALA2        0.0000 
     42 N         274.0000  156.3400  156.7600 N.am      2 ALA2        0.0000 
     43 O         273.5400  157.2800  155.6900 O.2       2 ALA2        0.0000 
     44 O         273.0800  158.2200  154.6100 O.2       2 ALA2        0.0000 
     45 O         272.5400  157.8700  156.6300 O.2       2 ALA2        0.0000 
     46 N         271.9900  157.5200  158.6500 N.am      2 ALA2        0.0000 
     47 N         276.6500  158.4000  151.1500 N.am      2 ALA2        0.0000 
     48 N         276.4800  155.8200  157.3400 N.am      2 ALA2        0.0000 
     49 N         275.4800  156.4100  158.2900 N.am      2 ALA2        0.0000 
     50 N         276.4900  157.4200  158.7400 N.am      2 ALA2        0.0000 
     51 OD1       267.5700  157.3000  154.0800 O.co2     3 ASP3        0.0000 
     52 NZ        266.4800  156.6000  158.1200 N.4       4 LYS4        0.0000 
     53 NZ        265.4700  157.1900  159.0600 N.4       4 LYS4        0.0000 
     54 NZ        266.4900  158.2000  159.5100 N.4       4 LYS4        0.0000 
     55 NZ        265.4800  158.7900  160.4600 N.4       4 LYS4        0.0000 
     56 CZ        273.9900  153.1400  153.9800 C.ar      5 PHE5        0.0000 
     57 CZ        272.9800  153.7300  154.9200 C.ar      5 PHE5        0.0000 
     58 CZ        269.0400  157.3700  155.6000 C.ar      5 PHE5        0.0000 
     59 CZ        268.0400  157.9600  156.5500 C.ar      5 PHE5        0.0000 
     60 CZ        267.5800  158.9000  155.4700 C.ar      5 PHE5        0.0000 
     61 CZ        267.0300  158.5500  157.4900 C.ar      5 PHE5        0.0000 
     62 CZ        276.4700  152.6200  154.5500 C.ar      5 PHE5        0.0000 
     63 CZ        275.0000  154.1500  154.4200 C.ar      5 PHE5        0.0000 
     64 CZ        271.0600  157.7900  155.1100 C.ar      5 PHE5        0.0000 
     65 CZ        269.5100  158.0300  158.0700 C.ar      5 PHE5        0.0000 
     66 CZ        268.5100  158.6200  159.0200 C.ar      5 PHE5        0.0000 
     67 CZ        267.0400  160.1500  158.8900 C.ar      5 PHE5        0.0000 
     68 CZ        276.9300  153.2800  157.0200 C.ar      5 PHE5        0.0000 
     69 CZ        276.4700  154.2200  155.9500 C.ar      5 PHE5        0.0000 
     70 CZ        275.9300  153.8700  157.9700 C.ar      5 PHE5        0.0000 
     71 CZ        275.5600  157.7000  155.1900 C.ar      5 PHE5        0.0000 
     72 CZ        275.0200  157.3500  157.2100 C.ar      5 PHE5        0.0000 
     73 CZ        274.5500  158.2900  156.1400 C.ar      5 PHE5        0.0000 
     74 CZ        274.0100  157.9400  158.1600 C.ar      5 PHE5        0.0000 
     75 CZ        276.0300  158.3600  157.6600 C.ar      5 PHE5        0.0000 
     76 CA        267.0200  155.3500  154.7100 C.3       6 GLY6        0.0000 
     77 CA        272.5100  153.0700  152.4500 C.3       6 GLY6        0.0000 
     78 CA        266.1000  158.8300  153.9500 C.3       6 GLY6        0.0000 
     79 CA        266.5700  159.4900  156.4200 C.3       6 GLY6        0.0000 
     80 CA        266.0300  159.1400  158.4400 C.3       6 GLY6        0.0000 
     81 CA        277.0100  152.9700  152.5300 C.3       6 GLY6        0.0000 
     82 CA        277.4800  153.6300  155.0000 C.3       6 GLY6        0.0000 
     83 CA        274.1700  158.9200  150.5700 C.3       6 GLY6        0.0000 
     84 CA        273.6300  158.5700  152.5900 C.3       6 GLY6        0.0000 
     85 CA        276.1000  158.0500  153.1700 C.3       6 GLY6        0.0000 
     86 CA        275.6400  158.9900  152.1000 C.3       6 GLY6        0.0000 
     87 CA        275.1800  159.9300  151.0200 C.3       6 GLY6        0.0000 
     88 CA        275.1000  158.6400  154.1200 C.3       6 GLY6        0.0000 
     89 CA        275.4800  158.0100  159.6800 C.3       6 GLY6        0.0000 
     90 CA        276.5000  159.0200  160.1300 C.3       6 GLY6        0.0000 
     91 CA        276.0400  159.9600  159.0500 C.3       6 GLY6        0.0000 
     92 DU        267.0200  156.9500  156.1000 H         7 CUB7        0.0000 
     93 DU        266.0200  157.5400  157.0500 H         7 CUB7        0.0000 
     94 DU        276.5500  153.9100  151.4600 H         7 CUB7        0.0000 
     95 DU        276.0100  153.5600  153.4800 H         7 CUB7        0.0000 
     96 DU        274.5400  155.0900  153.3500 H         7 CUB7        0.0000 
     97 DU        273.5300  155.6800  154.2900 H         7 CUB7        0.0000 
     98 DU        278.0200  153.9800  152.9800 H         7 CUB7        0.0000 
     99 DU        277.5600  154.9200  151.9100 H         7 CUB7        0.0000 
    100 DU        277.0200  154.5700  153.9300 H         7 CUB7        0.0000 
    101 DU        276.5600  155.5100  152.8500 H         7 CUB7        0.0000 
    102 DU        276.0100  155.1600  154.8700 H         7 CUB7        0.0000 
    103 DU        275.5500  156.1000  153.8000 H         7 CUB7        0.0000 
    104 DU        275.0900  157.0400  152.7200 H         7 CUB7        0.0000 
    105 DU        274.5500  156.6900  154.7400 H         7 CUB7        0.0000 
    106 DU        277.1100  157.4600  152.2300 H         7 CUB7        0.0000 
    107 DU        277.4900  155.2300  156.4000 H         7 CUB7        0.0000 
    108 DU        276.0200  156.7600  156.2700 H         7 CUB7        0.0000 
@<TRIPOS>BOND
@<TRIPOS>SUBSTRUCTURE
     1 SER1        1 GROUP   
     2 ALA2       13 GROUP   
     3 ASP3       51 GROUP   
     4 LYS4       52 GROUP   
     5 PHE5       56 GROUP   
     6 GLY6       76 GROUP   
     7 CUB7       92 GROUP   
@<TRIPOS>SET

