#    Name: 6owp_1_NAJ
#    Modification time : Fri May 22 19:33:52 2020

@<TRIPOS>MOLECULE
6owp_1_NAJ
   44    48     1     0     0
SMALL
NO_CHARGES


@<TRIPOS>ATOM
      1 PA         14.5800  -25.8730   -1.4450 P.3       1 NAJ403      0.0000 
      2 O1A        15.9240  -26.4140   -1.1270 O.co2     1 NAJ403      0.0000 
      3 O2A        13.4420  -26.1860   -0.5920 O.co2     1 NAJ403      0.0000 
      4 O5B        14.1280  -26.3260   -2.8890 O.3       1 NAJ403      0.0000 
      5 C5B        15.0750  -26.6190   -3.9560 C.3       1 NAJ403      0.0000 
      6 C4B        14.5810  -27.8310   -4.6960 C.3       1 NAJ403      0.0000 
      7 O4B        15.5120  -28.0670   -5.7550 O.3       1 NAJ403      0.0000 
      8 C3B        14.4970  -29.1360   -3.8820 C.3       1 NAJ403      0.0000 
      9 O3B        13.1800  -29.6660   -3.8530 O.3       1 NAJ403      0.0000 
     10 C2B        15.5080  -30.0490   -4.5860 C.3       1 NAJ403      0.0000 
     11 O2B        15.2290  -31.4190   -4.5680 O.3       1 NAJ403      0.0000 
     12 C1B        15.5650  -29.4720   -5.9720 C.3       1 NAJ403      0.0000 
     13 N9A        16.7800  -29.7630   -6.7010 N.pl3     1 NAJ403      0.0000 
     14 C8A        18.0820  -29.8110   -6.2230 C.2       1 NAJ403      0.0000 
     15 N7A        18.8820  -30.0950   -7.2520 N.2       1 NAJ403      0.0000 
     16 C5A        18.1380  -30.2250   -8.3710 C.ar      1 NAJ403      0.0000 
     17 C6A        18.4100  -30.5710   -9.7500 C.ar      1 NAJ403      0.0000 
     18 N6A        19.6420  -30.7940  -10.1430 N.pl3     1 NAJ403      0.0000 
     19 N1A        17.3990  -30.5610  -10.5640 N.ar      1 NAJ403      0.0000 
     20 C2A        16.1340  -30.3210  -10.1730 C.ar      1 NAJ403      0.0000 
     21 N3A        15.8040  -30.0870   -8.8930 N.ar      1 NAJ403      0.0000 
     22 C4A        16.8380  -30.0590   -8.0340 C.ar      1 NAJ403      0.0000 
     23 O3         14.7930  -24.3050   -1.5770 O.3       1 NAJ403      0.0000 
     24 PN         13.8260  -23.0000   -1.5980 P.3       1 NAJ403      0.0000 
     25 O1N        13.7090  -22.4740   -0.2320 O.co2     1 NAJ403      0.0000 
     26 O2N        12.6230  -23.3280   -2.3900 O.co2     1 NAJ403      0.0000 
     27 O5D        14.8080  -22.0290   -2.3880 O.3       1 NAJ403      0.0000 
     28 C5D        15.1190  -22.3140   -3.7570 C.3       1 NAJ403      0.0000 
     29 C4D        16.2150  -21.4170   -4.2000 C.3       1 NAJ403      0.0000 
     30 O4D        15.7350  -20.0530   -4.3240 O.3       1 NAJ403      0.0000 
     31 C3D        17.4520  -21.3670   -3.2900 C.3       1 NAJ403      0.0000 
     32 O3D        18.6680  -21.2340   -4.0170 O.3       1 NAJ403      0.0000 
     33 C2D        17.2370  -20.0410   -2.5240 C.3       1 NAJ403      0.0000 
     34 O2D        18.4230  -19.5220   -2.0190 O.3       1 NAJ403      0.0000 
     35 C1D        16.6320  -19.1950   -3.6300 C.3       1 NAJ403      0.0000 
     36 N1N        15.8660  -18.0260   -3.1780 N.pl3     1 NAJ403      0.0000 
     37 C2N        15.9790  -16.8830   -3.8990 C.ar      1 NAJ403      0.0000 
     38 C3N        15.2480  -15.7580   -3.6330 C.ar      1 NAJ403      0.0000 
     39 C7N        15.2810  -14.5640   -4.4670 C.2       1 NAJ403      0.0000 
     40 O7N        14.8200  -13.4980   -4.0220 O.2       1 NAJ403      0.0000 
     41 N7N        15.7490  -14.6490   -5.7130 N.am      1 NAJ403      0.0000 
     42 C4N        14.3390  -15.8300   -2.5350 C.ar      1 NAJ403      0.0000 
     43 C5N        14.1620  -17.0190   -1.8850 C.ar      1 NAJ403      0.0000 
     44 C6N        14.8940  -18.1210   -2.2010 C.ar      1 NAJ403      0.0000 
@<TRIPOS>BOND
     1    1    2 ar   
     2    1    3 ar   
     3    1    4 1    
     4    1   23 1    
     5    4    5 1    
     6    5    6 1    
     7    6    7 1    
     8    6    8 1    
     9    7   12 1    
    10    8    9 1    
    11    8   10 1    
    12   10   11 1    
    13   10   12 1    
    14   12   13 1    
    15   13   14 1    
    16   13   22 1    
    17   14   15 2    
    18   15   16 1    
    19   16   17 ar   
    20   16   22 ar   
    21   17   18 1    
    22   17   19 ar   
    23   19   20 ar   
    24   20   21 ar   
    25   21   22 ar   
    26   23   24 1    
    27   24   25 ar   
    28   24   26 ar   
    29   24   27 1    
    30   27   28 1    
    31   28   29 1    
    32   29   30 1    
    33   29   31 1    
    34   30   35 1    
    35   31   32 1    
    36   31   33 1    
    37   33   34 1    
    38   33   35 1    
    39   35   36 1    
    40   36   37 ar   
    41   36   44 ar   
    42   37   38 ar   
    43   38   39 1    
    44   38   42 ar   
    45   39   40 2    
    46   39   41 am   
    47   42   43 ar   
    48   43   44 ar   
@<TRIPOS>SUBSTRUCTURE
     1 NAJ403      1 GROUP   
@<TRIPOS>SET

