#    Name: 6njn_3_ZK1
#    Modification time : Fri May 22 19:24:56 2020

@<TRIPOS>MOLECULE
6njn_3_ZK1
   27    29     1     0     0
SMALL
NO_CHARGES


@<TRIPOS>ATOM
      1 OAA       274.1330  300.7820  240.4680 O.2       1 ZK1901      0.0000 
      2 OAB       276.5080  299.4550  239.9320 O.2       1 ZK1901      0.0000 
      3 OAC       278.2000  297.0140  236.3060 O.co2     1 ZK1901      0.0000 
      4 OAD       275.8820  297.3720  237.0690 O.co2     1 ZK1901      0.0000 
      5 OAE       277.6940  297.0840  238.7160 O.co2     1 ZK1901      0.0000 
      6 FAF       273.0510  302.2340  232.7300 F         1 ZK1901      0.0000 
      7 FAG       272.6150  303.7520  234.2850 F         1 ZK1901      0.0000 
      8 FAH       274.4060  303.9890  233.0060 F         1 ZK1901      0.0000 
      9 CAI       276.2640  300.9170  235.3970 C.ar      1 ZK1901      0.0000 
     10 CAJ       273.8950  302.2330  235.9670 C.ar      1 ZK1901      0.0000 
     11 CAK       276.5850  300.6560  230.7790 C.3       1 ZK1901      0.0000 
     12 CAL       277.9540  302.4330  231.4430 C.3       1 ZK1901      0.0000 
     13 CAM       275.7910  300.6410  232.0860 C.3       1 ZK1901      0.0000 
     14 CAN       277.2820  302.5770  232.8100 C.3       1 ZK1901      0.0000 
     15 CAO       277.6250  299.4900  237.3990 C.3       1 ZK1901      0.0000 
     16 NAP       274.0490  301.4850  238.2200 N.am      1 ZK1901      0.0000 
     17 OAQ       277.0690  301.9390  230.4650 O.3       1 ZK1901      0.0000 
     18 CAR       275.6090  301.6160  234.3910 C.ar      1 ZK1901      0.0000 
     19 CAS       274.4110  302.2850  234.6790 C.ar      1 ZK1901      0.0000 
     20 CAT       274.6730  300.8190  239.1770 C.2       1 ZK1901      0.0000 
     21 CAU       275.8630  300.1520  238.9040 C.2       1 ZK1901      0.0000 
     22 CAV       274.5630  301.5230  236.9810 C.ar      1 ZK1901      0.0000 
     23 CAW       275.7360  300.8640  236.7050 C.ar      1 ZK1901      0.0000 
     24 NAX       276.2250  301.6170  233.0710 N.3       1 ZK1901      0.0000 
     25 NAY       276.3780  300.1860  237.6810 N.am      1 ZK1901      0.0000 
     26 CAZ       273.6130  303.0800  233.6410 C.3       1 ZK1901      0.0000 
     27 PBA       277.3340  297.6530  237.3660 P.3       1 ZK1901      0.0000 
@<TRIPOS>BOND
     1    1   20 2    
     2    2   21 2    
     3    3   27 ar   
     4    4   27 ar   
     5    5   27 ar   
     6    6   26 1    
     7    7   26 1    
     8    8   26 1    
     9    9   18 ar   
    10    9   23 ar   
    11   10   19 ar   
    12   10   22 ar   
    13   11   13 1    
    14   11   17 1    
    15   12   14 1    
    16   12   17 1    
    17   13   24 1    
    18   14   24 1    
    19   15   25 1    
    20   15   27 1    
    21   16   20 am   
    22   16   22 1    
    23   18   19 ar   
    24   18   24 1    
    25   19   26 1    
    26   20   21 1    
    27   21   25 am   
    28   22   23 ar   
    29   23   25 1    
@<TRIPOS>SUBSTRUCTURE
     1 ZK1901      1 GROUP   
@<TRIPOS>SET

