#    Name: 6njn_4_ZK1
#    Modification time : Fri May 22 19:25:02 2020

@<TRIPOS>MOLECULE
6njn_4_ZK1
   27    29     1     0     0
SMALL
NO_CHARGES


@<TRIPOS>ATOM
      1 OAA       300.7900  253.8040  237.1520 O.2       1 ZK1901      0.0000 
      2 OAB       302.6790  253.0450  235.2690 O.2       1 ZK1901      0.0000 
      3 OAC       302.6260  253.0880  230.5330 O.co2     1 ZK1901      0.0000 
      4 OAD       300.9630  252.6680  232.3020 O.co2     1 ZK1901      0.0000 
      5 OAE       303.2450  251.7460  232.4990 O.co2     1 ZK1901      0.0000 
      6 FAF       297.6960  259.0940  232.0930 F         1 ZK1901      0.0000 
      7 FAG       297.9360  259.5220  234.2540 F         1 ZK1901      0.0000 
      8 FAH       299.3050  260.4790  232.7980 F         1 ZK1901      0.0000 
      9 CAI       301.3120  256.6760  232.5020 C.ar      1 ZK1901      0.0000 
     10 CAJ       299.4340  257.4040  234.4060 C.ar      1 ZK1901      0.0000 
     11 CAK       299.8530  259.2380  228.7940 C.3       1 ZK1901      0.0000 
     12 CAL       301.5560  260.4930  229.8090 C.3       1 ZK1901      0.0000 
     13 CAM       299.8620  258.1600  229.8790 C.3       1 ZK1901      0.0000 
     14 CAN       301.7390  259.4940  230.9510 C.3       1 ZK1901      0.0000 
     15 CAO       302.9830  254.4560  232.9100 C.3       1 ZK1901      0.0000 
     16 NAP       300.1420  255.5830  235.7620 N.am      1 ZK1901      0.0000 
     17 OAQ       300.2420  260.4940  229.2990 O.3       1 ZK1901      0.0000 
     18 CAR       300.4960  257.7760  232.2750 C.ar      1 ZK1901      0.0000 
     19 CAS       299.5490  258.1470  233.2390 C.ar      1 ZK1901      0.0000 
     20 CAT       300.9180  254.5360  235.9710 C.2       1 ZK1901      0.0000 
     21 CAU       301.8640  254.1580  235.0240 C.2       1 ZK1901      0.0000 
     22 CAV       300.2640  256.2880  234.6260 C.ar      1 ZK1901      0.0000 
     23 CAW       301.1950  255.9220  233.6850 C.ar      1 ZK1901      0.0000 
     24 NAX       300.6880  258.4950  231.0250 N.3       1 ZK1901      0.0000 
     25 NAY       301.9910  254.8520  233.8990 N.am      1 ZK1901      0.0000 
     26 CAZ       298.6070  259.3410  233.0790 C.3       1 ZK1901      0.0000 
     27 PBA       302.4250  252.9190  232.0190 P.3       1 ZK1901      0.0000 
@<TRIPOS>BOND
     1    1   20 2    
     2    2   21 2    
     3    3   27 ar   
     4    4   27 ar   
     5    5   27 ar   
     6    6   26 1    
     7    7   26 1    
     8    8   26 1    
     9    9   18 ar   
    10    9   23 ar   
    11   10   19 ar   
    12   10   22 ar   
    13   11   13 1    
    14   11   17 1    
    15   12   14 1    
    16   12   17 1    
    17   13   24 1    
    18   14   24 1    
    19   15   25 1    
    20   15   27 1    
    21   16   20 am   
    22   16   22 1    
    23   18   19 ar   
    24   18   24 1    
    25   19   26 1    
    26   20   21 1    
    27   21   25 am   
    28   22   23 ar   
    29   23   25 1    
@<TRIPOS>SUBSTRUCTURE
     1 ZK1901      1 GROUP   
@<TRIPOS>SET

