#    Name: 6njn_1_ZK1
#    Modification time : Fri May 22 19:24:43 2020

@<TRIPOS>MOLECULE
6njn_1_ZK1
   27    29     1     0     0
SMALL
NO_CHARGES


@<TRIPOS>ATOM
      1 OAA       272.4460  244.8940  240.2780 O.2       1 ZK1901      0.0000 
      2 OAB       269.9860  246.1160  239.9110 O.2       1 ZK1901      0.0000 
      3 OAC       268.2840  248.5100  236.1800 O.co2     1 ZK1901      0.0000 
      4 OAD       270.4400  248.2790  237.3530 O.co2     1 ZK1901      0.0000 
      5 OAE       268.3550  248.5480  238.6430 O.co2     1 ZK1901      0.0000 
      6 FAF       272.9220  243.6820  232.2940 F         1 ZK1901      0.0000 
      7 FAG       273.8730  242.4130  233.8380 F         1 ZK1901      0.0000 
      8 FAH       271.9720  241.7570  232.9090 F         1 ZK1901      0.0000 
      9 CAI       270.0480  244.8110  235.3320 C.ar      1 ZK1901      0.0000 
     10 CAJ       272.5060  243.5940  235.7160 C.ar      1 ZK1901      0.0000 
     11 CAK       268.8250  245.7530  231.4620 C.3       1 ZK1901      0.0000 
     12 CAL       267.7940  243.6760  231.9760 C.3       1 ZK1901      0.0000 
     13 CAM       270.1550  245.3200  232.0880 C.3       1 ZK1901      0.0000 
     14 CAN       269.0640  243.1340  232.6390 C.3       1 ZK1901      0.0000 
     15 CAO       268.7400  246.1030  237.4500 C.3       1 ZK1901      0.0000 
     16 NAP       272.4460  244.2630  238.0050 N.am      1 ZK1901      0.0000 
     17 OAQ       268.0700  244.6540  230.9950 O.3       1 ZK1901      0.0000 
     18 CAR       270.6730  244.1790  234.2650 C.ar      1 ZK1901      0.0000 
     19 CAS       271.9170  243.5640  234.4570 C.ar      1 ZK1901      0.0000 
     20 CAT       271.8440  244.8680  239.0160 C.2       1 ZK1901      0.0000 
     21 CAU       270.6110  245.4800  238.8300 C.2       1 ZK1901      0.0000 
     22 CAV       271.8650  244.2400  236.7930 C.ar      1 ZK1901      0.0000 
     23 CAW       270.6490  244.8460  236.6060 C.ar      1 ZK1901      0.0000 
     24 NAX       269.9770  244.2000  232.9880 N.3       1 ZK1901      0.0000 
     25 NAY       270.0320  245.4610  237.6370 N.am      1 ZK1901      0.0000 
     26 CAZ       272.6770  242.8420  233.3400 C.3       1 ZK1901      0.0000 
     27 PBA       268.9680  247.9470  237.4030 P.3       1 ZK1901      0.0000 
@<TRIPOS>BOND
     1    1   20 2    
     2    2   21 2    
     3    3   27 ar   
     4    4   27 ar   
     5    5   27 ar   
     6    6   26 1    
     7    7   26 1    
     8    8   26 1    
     9    9   18 ar   
    10    9   23 ar   
    11   10   19 ar   
    12   10   22 ar   
    13   11   13 1    
    14   11   17 1    
    15   12   14 1    
    16   12   17 1    
    17   13   24 1    
    18   14   24 1    
    19   15   25 1    
    20   15   27 1    
    21   16   20 am   
    22   16   22 1    
    23   18   19 ar   
    24   18   24 1    
    25   19   26 1    
    26   20   21 1    
    27   21   25 am   
    28   22   23 ar   
    29   23   25 1    
@<TRIPOS>SUBSTRUCTURE
     1 ZK1901      1 GROUP   
@<TRIPOS>SET

