#    Name: 6njn_2_ZK1
#    Modification time : Fri May 22 19:24:48 2020

@<TRIPOS>MOLECULE
6njn_2_ZK1
   27    29     1     0     0
SMALL
NO_CHARGES


@<TRIPOS>ATOM
      1 OAA       244.9220  292.0220  238.2270 O.2       1 ZK1901      0.0000 
      2 OAB       243.0720  292.8630  236.3450 O.2       1 ZK1901      0.0000 
      3 OAC       242.8410  293.0710  231.6860 O.co2     1 ZK1901      0.0000 
      4 OAD       244.8700  293.0290  233.0910 O.co2     1 ZK1901      0.0000 
      5 OAE       242.8660  294.2500  233.8500 O.co2     1 ZK1901      0.0000 
      6 FAF       247.6150  286.5210  232.8770 F         1 ZK1901      0.0000 
      7 FAG       247.8800  286.4750  235.0790 F         1 ZK1901      0.0000 
      8 FAH       246.2130  285.3410  234.1510 F         1 ZK1901      0.0000 
      9 CAI       244.3430  289.2420  233.5210 C.ar      1 ZK1901      0.0000 
     10 CAJ       246.1830  288.4220  235.4240 C.ar      1 ZK1901      0.0000 
     11 CAK       245.9210  286.8470  229.8050 C.3       1 ZK1901      0.0000 
     12 CAL       244.4220  285.2740  230.8700 C.3       1 ZK1901      0.0000 
     13 CAM       245.5770  287.9320  230.8260 C.3       1 ZK1901      0.0000 
     14 CAN       244.0320  286.2960  231.9390 C.3       1 ZK1901      0.0000 
     15 CAO       242.7390  291.5050  233.9630 C.3       1 ZK1901      0.0000 
     16 NAP       245.5260  290.2390  236.8090 N.am      1 ZK1901      0.0000 
     17 OAQ       244.9830  285.7990  229.6850 O.3       1 ZK1901      0.0000 
     18 CAR       245.1230  288.1200  233.2800 C.ar      1 ZK1901      0.0000 
     19 CAS       246.0550  287.7050  234.2420 C.ar      1 ZK1901      0.0000 
     20 CAT       244.7790  291.3070  237.0330 C.2       1 ZK1901      0.0000 
     21 CAU       243.8540  291.7300  236.0850 C.2       1 ZK1901      0.0000 
     22 CAV       245.3900  289.5600  235.6600 C.ar      1 ZK1901      0.0000 
     23 CAW       244.4790  289.9710  234.7190 C.ar      1 ZK1901      0.0000 
     24 NAX       244.9180  287.4320  232.0120 N.3       1 ZK1901      0.0000 
     25 NAY       243.7140  291.0600  234.9490 N.am      1 ZK1901      0.0000 
     26 CAZ       246.9590  286.4820  234.0710 C.3       1 ZK1901      0.0000 
     27 PBA       243.3610  293.0350  233.1040 P.3       1 ZK1901      0.0000 
@<TRIPOS>BOND
     1    1   20 2    
     2    2   21 2    
     3    3   27 ar   
     4    4   27 ar   
     5    5   27 ar   
     6    6   26 1    
     7    7   26 1    
     8    8   26 1    
     9    9   18 ar   
    10    9   23 ar   
    11   10   19 ar   
    12   10   22 ar   
    13   11   13 1    
    14   11   17 1    
    15   12   14 1    
    16   12   17 1    
    17   13   24 1    
    18   14   24 1    
    19   15   25 1    
    20   15   27 1    
    21   16   20 am   
    22   16   22 1    
    23   18   19 ar   
    24   18   24 1    
    25   19   26 1    
    26   20   21 1    
    27   21   25 am   
    28   22   23 ar   
    29   23   25 1    
@<TRIPOS>SUBSTRUCTURE
     1 ZK1901      1 GROUP   
@<TRIPOS>SET

