#    Name: 6hoy_3_AR6
#    Modification time : Fri May 22 19:26:31 2020

@<TRIPOS>MOLECULE
6hoy_3_AR6
   36    39     1     0     0
SMALL
NO_CHARGES


@<TRIPOS>ATOM
      1 N1        -19.2720   24.7240   36.8160 N.ar      1 AR6702      0.0000 
      2 C2        -19.4360   25.6230   37.7980 C.ar      1 AR6702      0.0000 
      3 N3        -20.5350   25.9440   38.4900 N.ar      1 AR6702      0.0000 
      4 C4        -21.5670   25.1680   38.1100 C.ar      1 AR6702      0.0000 
      5 C5        -21.5740   24.2610   37.0680 C.ar      1 AR6702      0.0000 
      6 C6        -20.3610   24.0220   36.3890 C.ar      1 AR6702      0.0000 
      7 N6        -20.2400   23.1040   35.4290 N.pl3     1 AR6702      0.0000 
      8 N7        -22.8450   23.7310   36.9230 N.2       1 AR6702      0.0000 
      9 C8        -23.5760   24.3400   37.8250 C.2       1 AR6702      0.0000 
     10 N9        -22.8650   25.2030   38.5720 N.pl3     1 AR6702      0.0000 
     11 PA        -27.1690   24.1410   43.8460 P.3       1 AR6702      0.0000 
     12 PB        -26.1320   22.3530   45.9030 P.3       1 AR6702      0.0000 
     13 C1'       -23.3460   25.9160   39.7620 C.3       1 AR6702      0.0000 
     14 O1A       -27.8170   25.0410   44.8640 O.co2     1 AR6702      0.0000 
     15 O1B       -25.3800   21.0470   45.7760 O.co2     1 AR6702      0.0000 
     16 C1D       -30.6310   20.6190   47.5590 C.3       1 AR6702      0.0000 
     17 O1D       -31.9080   20.8070   48.0720 O.3       1 AR6702      0.0000 
     18 C2'       -24.7130   26.5930   39.7480 C.3       1 AR6702      0.0000 
     19 O2'       -24.4690   27.9340   39.3980 O.3       1 AR6702      0.0000 
     20 O2A       -27.9190   23.7050   42.6390 O.co2     1 AR6702      0.0000 
     21 O2B       -25.3230   23.5470   46.3020 O.co2     1 AR6702      0.0000 
     22 C2D       -30.0730   19.2030   47.7510 C.3       1 AR6702      0.0000 
     23 O2D       -30.3810   18.6100   48.9980 O.3       1 AR6702      0.0000 
     24 C3'       -25.1610   26.4750   41.2120 C.3       1 AR6702      0.0000 
     25 O3'       -24.9860   27.7280   41.8370 O.3       1 AR6702      0.0000 
     26 O3A       -26.6910   22.7170   44.4310 O.3       1 AR6702      0.0000 
     27 C3D       -28.5780   19.4350   47.6040 C.3       1 AR6702      0.0000 
     28 O3D       -27.7790   18.3760   48.1190 O.3       1 AR6702      0.0000 
     29 C4'       -24.2640   25.4140   41.8420 C.3       1 AR6702      0.0000 
     30 O4'       -23.3840   24.9440   40.7910 O.3       1 AR6702      0.0000 
     31 C4D       -28.4800   20.7290   48.4170 C.3       1 AR6702      0.0000 
     32 O4D       -29.7220   21.4520   48.2040 O.3       1 AR6702      0.0000 
     33 C5'       -25.0490   24.2870   42.4180 C.3       1 AR6702      0.0000 
     34 O5'       -25.9050   24.8920   43.4340 O.3       1 AR6702      0.0000 
     35 C5D       -27.3430   21.6190   48.0630 C.3       1 AR6702      0.0000 
     36 O5D       -27.4520   22.0570   46.7010 O.3       1 AR6702      0.0000 
@<TRIPOS>BOND
     1    1    2 ar   
     2    1    6 ar   
     3    2    3 ar   
     4    3    4 ar   
     5    4    5 ar   
     6    4   10 1    
     7    5    6 ar   
     8    5    8 1    
     9    6    7 1    
    10    8    9 2    
    11    9   10 1    
    12   10   13 1    
    13   11   14 ar   
    14   11   20 ar   
    15   11   26 1    
    16   11   34 1    
    17   12   15 ar   
    18   12   21 ar   
    19   12   26 1    
    20   12   36 1    
    21   13   18 1    
    22   13   30 1    
    23   16   17 1    
    24   16   22 1    
    25   16   32 1    
    26   18   19 1    
    27   18   24 1    
    28   22   23 1    
    29   22   27 1    
    30   24   25 1    
    31   24   29 1    
    32   27   28 1    
    33   27   31 1    
    34   29   30 1    
    35   29   33 1    
    36   31   32 1    
    37   31   35 1    
    38   33   34 1    
    39   35   36 1    
@<TRIPOS>SUBSTRUCTURE
     1 AR6702      1 GROUP   
@<TRIPOS>SET

