#    Name: 6hoy_4_TSN_CAVITY_N1_8
#    Modification time : Fri May 22 19:26:38 2020

@<TRIPOS>MOLECULE
6hoy_4_TSN_CAVITY_N1_8
   58     0     7     0     0
SMALL
NO_CHARGES


@<TRIPOS>ATOM
      1 OG        -28.8900   19.7000   48.7800 O.3       1 SER1        0.0000 
      2 OG        -30.2200   19.4700   49.4300 O.3       1 SER1        0.0000 
      3 OG        -29.7500   18.1200   49.9000 O.3       1 SER1        0.0000 
      4 OG        -31.0800   17.8900   50.5600 O.3       1 SER1        0.0000 
      5 O         -37.0800   16.6800   48.2500 O.2       2 ALA2        0.0000 
      6 N         -36.1500   13.9900   49.1900 N.am      2 ALA2        0.0000 
      7 N         -35.6800   12.6400   49.6600 N.am      2 ALA2        0.0000 
      8 O         -27.3200   23.1900   42.8800 O.2       2 ALA2        0.0000 
      9 O         -35.2300   17.5300   48.8600 O.2       2 ALA2        0.0000 
     10 N         -34.7700   16.1900   49.3300 N.am      2 ALA2        0.0000 
     11 N         -32.9700   15.0700   49.1500 N.am      2 ALA2        0.0000 
     12 N         -35.6400   14.6100   50.4600 N.am      2 ALA2        0.0000 
     13 N         -25.0100   22.7000   43.9600 N.am      2 ALA2        0.0000 
     14 O         -25.8700   21.1200   45.0800 O.2       2 ALA2        0.0000 
     15 O         -31.2000   20.1900   47.7000 O.2       2 ALA2        0.0000 
     16 N         -32.9300   17.0400   49.9400 N.am      2 ALA2        0.0000 
     17 N         -34.2600   16.8100   50.6000 N.am      2 ALA2        0.0000 
     18 N         -26.6900   21.5100   47.0000 N.am      2 ALA2        0.0000 
     19 OD1       -27.6700   22.2300   45.2700 O.co2     3 ASP3        0.0000 
     20 NZ        -36.6100   15.3400   48.7200 N.4       4 LYS4        0.0000 
     21 NZ        -37.9400   15.1100   49.3700 N.4       4 LYS4        0.0000 
     22 NZ        -37.4800   13.7600   49.8400 N.4       4 LYS4        0.0000 
     23 NZ        -37.0100   12.4100   50.3100 N.4       4 LYS4        0.0000 
     24 NZ        -36.1000   15.9600   49.9900 N.4       4 LYS4        0.0000 
     25 CZ        -33.6000   16.7600   45.0200 C.ar      5 PHE5        0.0000 
     26 CZ        -33.0900   17.3800   46.2900 C.ar      5 PHE5        0.0000 
     27 CZ        -34.4200   17.1500   46.9400 C.ar      5 PHE5        0.0000 
     28 CZ        -35.7500   16.9100   47.6000 C.ar      5 PHE5        0.0000 
     29 CZ        -32.6200   16.0300   46.7600 C.ar      5 PHE5        0.0000 
     30 CZ        -31.2400   18.2300   46.9000 C.ar      5 PHE5        0.0000 
     31 CZ        -32.5700   18.0000   47.5600 C.ar      5 PHE5        0.0000 
     32 CZ        -33.9000   17.7700   48.2100 C.ar      5 PHE5        0.0000 
     33 CZ        -27.2000   20.8900   45.7400 C.ar      5 PHE5        0.0000 
     34 CZ        -28.5300   20.6600   46.3900 C.ar      5 PHE5        0.0000 
     35 CZ        -29.8600   20.4300   47.0400 C.ar      5 PHE5        0.0000 
     36 CZ        -32.5300   19.9600   48.3500 C.ar      5 PHE5        0.0000 
     37 CZ        -29.4000   19.0800   47.5100 C.ar      5 PHE5        0.0000 
     38 CZ        -33.3900   18.3800   49.4700 C.ar      5 PHE5        0.0000 
     39 CZ        -34.7200   18.1500   50.1300 C.ar      5 PHE5        0.0000 
     40 CA        -34.4700   15.1800   46.1500 C.3       6 GLY6        0.0000 
     41 CA        -35.8000   14.9500   46.8000 C.3       6 GLY6        0.0000 
     42 CA        -35.3300   13.6000   47.2700 C.3       6 GLY6        0.0000 
     43 CA        -36.6600   13.3700   47.9200 C.3       6 GLY6        0.0000 
     44 CA        -36.2000   12.0200   48.3900 C.3       6 GLY6        0.0000 
     45 CA        -37.5300   11.7900   49.0500 C.3       6 GLY6        0.0000 
     46 CA        -33.4900   14.4500   47.8800 C.3       6 GLY6        0.0000 
     47 CA        -34.8200   14.2200   48.5400 C.3       6 GLY6        0.0000 
     48 CA        -34.3500   12.8800   49.0100 C.3       6 GLY6        0.0000 
     49 CA        -25.9900   23.4200   42.2300 C.3       6 GLY6        0.0000 
     50 CA        -26.3400   22.4700   44.6100 C.3       6 GLY6        0.0000 
     51 CA        -30.6200   16.5400   51.0300 C.3       6 GLY6        0.0000 
     52 DU        -33.9500   15.8000   47.4100 H         7 CUB7        0.0000 
     53 DU        -35.2800   15.5700   48.0700 H         7 CUB7        0.0000 
     54 DU        -33.4400   16.4200   48.6800 H         7 CUB7        0.0000 
     55 DU        -30.7300   18.8500   48.1700 H         7 CUB7        0.0000 
     56 DU        -32.0600   18.6200   48.8200 H         7 CUB7        0.0000 
     57 DU        -31.5500   19.2400   50.0900 H         7 CUB7        0.0000 
     58 DU        -32.4100   17.6600   51.2100 H         7 CUB7        0.0000 
@<TRIPOS>BOND
@<TRIPOS>SUBSTRUCTURE
     1 SER1        1 GROUP   
     2 ALA2        5 GROUP   
     3 ASP3       19 GROUP   
     4 LYS4       20 GROUP   
     5 PHE5       25 GROUP   
     6 GLY6       40 GROUP   
     7 CUB7       52 GROUP   
@<TRIPOS>SET

