#    Name: 6hoy_4_TSN_CAVITY_N1_ALL
#    Modification time : Fri May 22 19:26:38 2020

@<TRIPOS>MOLECULE
6hoy_4_TSN_CAVITY_N1_ALL
   86     0     7     0     0
SMALL
NO_CHARGES


@<TRIPOS>ATOM
      1 OG        -27.2700   25.1600   43.6700 O.3       1 SER1        0.0000 
      2 OG        -26.8000   23.8100   44.1400 O.3       1 SER1        0.0000 
      3 OG        -26.2900   24.4300   45.4100 O.3       1 SER1        0.0000 
      4 OG        -25.8300   23.0900   45.8800 O.3       1 SER1        0.0000 
      5 OG        -28.8900   19.7000   48.7800 O.3       1 SER1        0.0000 
      6 OG        -30.2200   19.4700   49.4300 O.3       1 SER1        0.0000 
      7 OG        -29.7500   18.1200   49.9000 O.3       1 SER1        0.0000 
      8 OG        -31.0800   17.8900   50.5600 O.3       1 SER1        0.0000 
      9 OG        -30.5700   18.5100   51.8200 O.3       1 SER1        0.0000 
     10 O         -37.0800   16.6800   48.2500 O.2       2 ALA2        0.0000 
     11 N         -36.1500   13.9900   49.1900 N.am      2 ALA2        0.0000 
     12 N         -35.6800   12.6400   49.6600 N.am      2 ALA2        0.0000 
     13 O         -26.9200   26.1200   41.2900 O.2       2 ALA2        0.0000 
     14 O         -27.7800   24.5400   42.4100 O.2       2 ALA2        0.0000 
     15 O         -27.3200   23.1900   42.8800 O.2       2 ALA2        0.0000 
     16 O         -35.2300   17.5300   48.8600 O.2       2 ALA2        0.0000 
     17 N         -34.7700   16.1900   49.3300 N.am      2 ALA2        0.0000 
     18 N         -32.9700   15.0700   49.1500 N.am      2 ALA2        0.0000 
     19 N         -35.6400   14.6100   50.4600 N.am      2 ALA2        0.0000 
     20 N         -26.4000   26.7400   42.5500 N.am      2 ALA2        0.0000 
     21 O         -25.9400   25.3900   43.0200 O.2       2 ALA2        0.0000 
     22 N         -25.4700   24.0400   43.4900 N.am      2 ALA2        0.0000 
     23 N         -25.0100   22.7000   43.9600 N.am      2 ALA2        0.0000 
     24 O         -25.8700   21.1200   45.0800 O.2       2 ALA2        0.0000 
     25 O         -31.2000   20.1900   47.7000 O.2       2 ALA2        0.0000 
     26 N         -32.9300   17.0400   49.9400 N.am      2 ALA2        0.0000 
     27 N         -34.2600   16.8100   50.6000 N.am      2 ALA2        0.0000 
     28 N         -26.6900   21.5100   47.0000 N.am      2 ALA2        0.0000 
     29 O         -33.7400   17.4300   51.8600 O.2       2 ALA2        0.0000 
     30 N         -31.9500   16.3100   51.6800 N.am      2 ALA2        0.0000 
     31 OD1       -28.1300   23.5800   44.8000 O.co2     3 ASP3        0.0000 
     32 OD1       -27.6700   22.2300   45.2700 O.co2     3 ASP3        0.0000 
     33 OD1       -27.1600   22.8500   46.5300 O.co2     3 ASP3        0.0000 
     34 OD1       -28.0200   21.2800   47.6600 O.co2     3 ASP3        0.0000 
     35 NZ        -36.6100   15.3400   48.7200 N.4       4 LYS4        0.0000 
     36 NZ        -37.9400   15.1100   49.3700 N.4       4 LYS4        0.0000 
     37 NZ        -37.4800   13.7600   49.8400 N.4       4 LYS4        0.0000 
     38 NZ        -37.0100   12.4100   50.3100 N.4       4 LYS4        0.0000 
     39 NZ        -25.1200   25.0000   41.1000 N.4       4 LYS4        0.0000 
     40 NZ        -26.4500   24.7700   41.7600 N.4       4 LYS4        0.0000 
     41 NZ        -36.1000   15.9600   49.9900 N.4       4 LYS4        0.0000 
     42 CZ        -33.6000   16.7600   45.0200 C.ar      5 PHE5        0.0000 
     43 CZ        -33.0900   17.3800   46.2900 C.ar      5 PHE5        0.0000 
     44 CZ        -34.4200   17.1500   46.9400 C.ar      5 PHE5        0.0000 
     45 CZ        -35.7500   16.9100   47.6000 C.ar      5 PHE5        0.0000 
     46 CZ        -32.6200   16.0300   46.7600 C.ar      5 PHE5        0.0000 
     47 CZ        -31.2400   18.2300   46.9000 C.ar      5 PHE5        0.0000 
     48 CZ        -32.5700   18.0000   47.5600 C.ar      5 PHE5        0.0000 
     49 CZ        -33.9000   17.7700   48.2100 C.ar      5 PHE5        0.0000 
     50 CZ        -27.2000   20.8900   45.7400 C.ar      5 PHE5        0.0000 
     51 CZ        -28.5300   20.6600   46.3900 C.ar      5 PHE5        0.0000 
     52 CZ        -29.8600   20.4300   47.0400 C.ar      5 PHE5        0.0000 
     53 CZ        -32.5300   19.9600   48.3500 C.ar      5 PHE5        0.0000 
     54 CZ        -29.4000   19.0800   47.5100 C.ar      5 PHE5        0.0000 
     55 CZ        -33.3900   18.3800   49.4700 C.ar      5 PHE5        0.0000 
     56 CZ        -34.7200   18.1500   50.1300 C.ar      5 PHE5        0.0000 
     57 CZ        -32.0100   20.5800   49.6200 C.ar      5 PHE5        0.0000 
     58 CZ        -32.8800   19.0000   50.7400 C.ar      5 PHE5        0.0000 
     59 CZ        -34.2100   18.7700   51.3900 C.ar      5 PHE5        0.0000 
     60 CZ        -32.3600   19.6200   52.0100 C.ar      5 PHE5        0.0000 
     61 CA        -34.4700   15.1800   46.1500 C.3       6 GLY6        0.0000 
     62 CA        -35.8000   14.9500   46.8000 C.3       6 GLY6        0.0000 
     63 CA        -35.3300   13.6000   47.2700 C.3       6 GLY6        0.0000 
     64 CA        -36.6600   13.3700   47.9200 C.3       6 GLY6        0.0000 
     65 CA        -36.2000   12.0200   48.3900 C.3       6 GLY6        0.0000 
     66 CA        -37.5300   11.7900   49.0500 C.3       6 GLY6        0.0000 
     67 CA        -33.4900   14.4500   47.8800 C.3       6 GLY6        0.0000 
     68 CA        -34.8200   14.2200   48.5400 C.3       6 GLY6        0.0000 
     69 CA        -34.3500   12.8800   49.0100 C.3       6 GLY6        0.0000 
     70 CA        -25.9900   23.4200   42.2300 C.3       6 GLY6        0.0000 
     71 CA        -26.3400   22.4700   44.6100 C.3       6 GLY6        0.0000 
     72 CA        -29.3500   21.0400   48.3100 C.3       6 GLY6        0.0000 
     73 CA        -30.6800   20.8100   48.9600 C.3       6 GLY6        0.0000 
     74 CA        -30.6200   16.5400   51.0300 C.3       6 GLY6        0.0000 
     75 CA        -29.7000   20.0900   50.7000 C.3       6 GLY6        0.0000 
     76 CA        -31.0300   19.8500   51.3500 C.3       6 GLY6        0.0000 
     77 CA        -33.2300   18.0500   53.1300 C.3       6 GLY6        0.0000 
     78 CA        -31.4300   16.9300   52.9500 C.3       6 GLY6        0.0000 
     79 DU        -33.9500   15.8000   47.4100 H         7 CUB7        0.0000 
     80 DU        -35.2800   15.5700   48.0700 H         7 CUB7        0.0000 
     81 DU        -33.4400   16.4200   48.6800 H         7 CUB7        0.0000 
     82 DU        -30.7300   18.8500   48.1700 H         7 CUB7        0.0000 
     83 DU        -32.0600   18.6200   48.8200 H         7 CUB7        0.0000 
     84 DU        -31.5500   19.2400   50.0900 H         7 CUB7        0.0000 
     85 DU        -32.4100   17.6600   51.2100 H         7 CUB7        0.0000 
     86 DU        -31.9000   18.2800   52.4800 H         7 CUB7        0.0000 
@<TRIPOS>BOND
@<TRIPOS>SUBSTRUCTURE
     1 SER1        1 GROUP   
     2 ALA2       10 GROUP   
     3 ASP3       31 GROUP   
     4 LYS4       35 GROUP   
     5 PHE5       42 GROUP   
     6 GLY6       61 GROUP   
     7 CUB7       79 GROUP   
@<TRIPOS>SET

