#    Name: 6hoy_4_TSN
#    Modification time : Fri May 22 19:26:36 2020

@<TRIPOS>MOLECULE
6hoy_4_TSN
   22    22     1     0     0
SMALL
NO_CHARGES


@<TRIPOS>ATOM
      1 O1        -24.4460   16.0920   41.8630 O.3       1 TSN709      0.0000 
      2 O2        -26.5300   14.4640   43.3110 O.2       1 TSN709      0.0000 
      3 O3        -33.5470   14.8930   43.8450 O.2       1 TSN709      0.0000 
      4 N1        -25.7250   15.9790   41.6980 N.am      1 TSN709      0.0000 
      5 N2        -39.2530   16.9960   41.6180 N.pl3     1 TSN709      0.0000 
      6 C1        -35.3590   15.4310   42.4310 C.ar      1 TSN709      0.0000 
      7 C2        -35.8580   15.4040   41.1100 C.ar      1 TSN709      0.0000 
      8 C3        -37.1390   15.9190   40.8390 C.ar      1 TSN709      0.0000 
      9 C4        -37.9230   16.4460   41.8900 C.ar      1 TSN709      0.0000 
     10 C5        -37.4200   16.4590   43.1970 C.ar      1 TSN709      0.0000 
     11 C6        -36.1470   15.9490   43.4680 C.ar      1 TSN709      0.0000 
     12 C7        -33.9510   14.8650   42.7380 C.2       1 TSN709      0.0000 
     13 C8        -33.0340   14.1690   41.7600 C.3       1 TSN709      0.0000 
     14 C9        -31.5220   14.1670   42.1610 C.2       1 TSN709      0.0000 
     15 C10       -30.6290   14.9930   41.6870 C.2       1 TSN709      0.0000 
     16 C11       -29.1520   14.7630   42.0800 C.2       1 TSN709      0.0000 
     17 C12       -28.1500   15.5810   41.8830 C.2       1 TSN709      0.0000 
     18 C13       -26.7260   15.2260   42.3720 C.2       1 TSN709      0.0000 
     19 C14       -33.4730   12.6920   41.7250 C.3       1 TSN709      0.0000 
     20 C15       -30.8160   16.0940   40.6370 C.3       1 TSN709      0.0000 
     21 C17       -40.4280   16.4630   42.3000 C.3       1 TSN709      0.0000 
     22 C16       -39.3890   18.1190   40.6920 C.3       1 TSN709      0.0000 
@<TRIPOS>BOND
     1    1    4 1    
     2    2   18 2    
     3    3   12 2    
     4    4   18 am   
     5    5    9 1    
     6    5   21 1    
     7    5   22 1    
     8    6    7 ar   
     9    6   11 ar   
    10    6   12 1    
    11    7    8 ar   
    12    8    9 ar   
    13    9   10 ar   
    14   10   11 ar   
    15   12   13 1    
    16   13   14 1    
    17   13   19 1    
    18   14   15 2    
    19   15   16 1    
    20   15   20 1    
    21   16   17 2    
    22   17   18 1    
@<TRIPOS>SUBSTRUCTURE
     1 TSN709      1 GROUP   
@<TRIPOS>SET

