#    Name: 6hoy_3_AR6_CAVITY_N1_8
#    Modification time : Fri May 22 19:26:33 2020

@<TRIPOS>MOLECULE
6hoy_3_AR6_CAVITY_N1_8
   72     0     7     0     0
SMALL
NO_CHARGES


@<TRIPOS>ATOM
      1 OG        -27.2700   25.1600   43.6700 O.3       1 SER1        0.0000 
      2 OG        -26.8000   23.8100   44.1400 O.3       1 SER1        0.0000 
      3 OG        -26.2900   24.4300   45.4100 O.3       1 SER1        0.0000 
      4 OG        -25.8300   23.0900   45.8800 O.3       1 SER1        0.0000 
      5 OG        -28.8900   19.7000   48.7800 O.3       1 SER1        0.0000 
      6 OG        -30.2200   19.4700   49.4300 O.3       1 SER1        0.0000 
      7 OG        -29.7500   18.1200   49.9000 O.3       1 SER1        0.0000 
      8 OG        -31.0800   17.8900   50.5600 O.3       1 SER1        0.0000 
      9 OG        -30.5700   18.5100   51.8200 O.3       1 SER1        0.0000 
     10 OG        -30.0500   19.1300   53.0900 O.3       1 SER1        0.0000 
     11 N         -25.5900   26.3500   40.6300 N.am      2 ALA2        0.0000 
     12 O         -26.9200   26.1200   41.2900 O.2       2 ALA2        0.0000 
     13 O         -27.7800   24.5400   42.4100 O.2       2 ALA2        0.0000 
     14 O         -24.6600   23.6600   41.5700 O.2       2 ALA2        0.0000 
     15 O         -27.3200   23.1900   42.8800 O.2       2 ALA2        0.0000 
     16 N         -25.0700   26.9700   41.9000 N.am      2 ALA2        0.0000 
     17 N         -26.4000   26.7400   42.5500 N.am      2 ALA2        0.0000 
     18 N         -24.6100   25.6200   42.3700 N.am      2 ALA2        0.0000 
     19 O         -25.9400   25.3900   43.0200 O.2       2 ALA2        0.0000 
     20 N         -25.4700   24.0400   43.4900 N.am      2 ALA2        0.0000 
     21 N         -25.0100   22.7000   43.9600 N.am      2 ALA2        0.0000 
     22 O         -25.8700   21.1200   45.0800 O.2       2 ALA2        0.0000 
     23 O         -31.2000   20.1900   47.7000 O.2       2 ALA2        0.0000 
     24 N         -32.9300   17.0400   49.9400 N.am      2 ALA2        0.0000 
     25 N         -26.6900   21.5100   47.0000 N.am      2 ALA2        0.0000 
     26 N         -31.9500   16.3100   51.6800 N.am      2 ALA2        0.0000 
     27 OD1       -28.1300   23.5800   44.8000 O.co2     3 ASP3        0.0000 
     28 OD1       -27.6700   22.2300   45.2700 O.co2     3 ASP3        0.0000 
     29 OD1       -27.1600   22.8500   46.5300 O.co2     3 ASP3        0.0000 
     30 OD1       -28.0200   21.2800   47.6600 O.co2     3 ASP3        0.0000 
     31 NZ        -25.1200   25.0000   41.1000 N.4       4 LYS4        0.0000 
     32 NZ        -26.4500   24.7700   41.7600 N.4       4 LYS4        0.0000 
     33 CZ        -33.6000   16.7600   45.0200 C.ar      5 PHE5        0.0000 
     34 CZ        -33.0900   17.3800   46.2900 C.ar      5 PHE5        0.0000 
     35 CZ        -34.4200   17.1500   46.9400 C.ar      5 PHE5        0.0000 
     36 CZ        -32.6200   16.0300   46.7600 C.ar      5 PHE5        0.0000 
     37 CZ        -31.2400   18.2300   46.9000 C.ar      5 PHE5        0.0000 
     38 CZ        -32.5700   18.0000   47.5600 C.ar      5 PHE5        0.0000 
     39 CZ        -33.9000   17.7700   48.2100 C.ar      5 PHE5        0.0000 
     40 CZ        -27.2000   20.8900   45.7400 C.ar      5 PHE5        0.0000 
     41 CZ        -28.5300   20.6600   46.3900 C.ar      5 PHE5        0.0000 
     42 CZ        -29.8600   20.4300   47.0400 C.ar      5 PHE5        0.0000 
     43 CZ        -32.5300   19.9600   48.3500 C.ar      5 PHE5        0.0000 
     44 CZ        -29.4000   19.0800   47.5100 C.ar      5 PHE5        0.0000 
     45 CZ        -33.3900   18.3800   49.4700 C.ar      5 PHE5        0.0000 
     46 CZ        -32.0100   20.5800   49.6200 C.ar      5 PHE5        0.0000 
     47 CZ        -32.3600   19.6200   52.0100 C.ar      5 PHE5        0.0000 
     48 CZ        -30.1000   17.1600   52.2900 C.ar      5 PHE5        0.0000 
     49 CZ        -31.8500   20.2400   53.2700 C.ar      5 PHE5        0.0000 
     50 CZ        -29.5900   17.7800   53.5600 C.ar      5 PHE5        0.0000 
     51 CA        -34.4700   15.1800   46.1500 C.3       6 GLY6        0.0000 
     52 CA        -25.9900   23.4200   42.2300 C.3       6 GLY6        0.0000 
     53 CA        -26.3400   22.4700   44.6100 C.3       6 GLY6        0.0000 
     54 CA        -29.3500   21.0400   48.3100 C.3       6 GLY6        0.0000 
     55 CA        -30.6800   20.8100   48.9600 C.3       6 GLY6        0.0000 
     56 CA        -30.6200   16.5400   51.0300 C.3       6 GLY6        0.0000 
     57 CA        -31.5000   21.2000   50.8800 C.3       6 GLY6        0.0000 
     58 CA        -29.7000   20.0900   50.7000 C.3       6 GLY6        0.0000 
     59 CA        -31.0300   19.8500   51.3500 C.3       6 GLY6        0.0000 
     60 CA        -31.4300   16.9300   52.9500 C.3       6 GLY6        0.0000 
     61 CA        -30.5200   20.4700   52.6200 C.3       6 GLY6        0.0000 
     62 CA        -30.9200   17.5500   54.2100 C.3       6 GLY6        0.0000 
     63 CA        -29.5400   19.7500   54.3500 C.3       6 GLY6        0.0000 
     64 CA        -30.8700   19.5200   55.0100 C.3       6 GLY6        0.0000 
     65 DU        -33.9500   15.8000   47.4100 H         7 CUB7        0.0000 
     66 DU        -33.4400   16.4200   48.6800 H         7 CUB7        0.0000 
     67 DU        -30.7300   18.8500   48.1700 H         7 CUB7        0.0000 
     68 DU        -32.0600   18.6200   48.8200 H         7 CUB7        0.0000 
     69 DU        -31.5500   19.2400   50.0900 H         7 CUB7        0.0000 
     70 DU        -32.4100   17.6600   51.2100 H         7 CUB7        0.0000 
     71 DU        -31.9000   18.2800   52.4800 H         7 CUB7        0.0000 
     72 DU        -31.3800   18.9000   53.7400 H         7 CUB7        0.0000 
@<TRIPOS>BOND
@<TRIPOS>SUBSTRUCTURE
     1 SER1        1 GROUP   
     2 ALA2       11 GROUP   
     3 ASP3       27 GROUP   
     4 LYS4       31 GROUP   
     5 PHE5       33 GROUP   
     6 GLY6       51 GROUP   
     7 CUB7       65 GROUP   
@<TRIPOS>SET

