#    Name: 6hoy_4_TSN_CAVITY_N1_6
#    Modification time : Fri May 22 19:26:38 2020

@<TRIPOS>MOLECULE
6hoy_4_TSN_CAVITY_N1_6
   24     0     5     0     0
SMALL
NO_CHARGES


@<TRIPOS>ATOM
      1 O         -37.0800   16.6800   48.2500 O.2       1 ALA2        0.0000 
      2 O         -35.2300   17.5300   48.8600 O.2       1 ALA2        0.0000 
      3 N         -34.7700   16.1900   49.3300 N.am      1 ALA2        0.0000 
      4 N         -32.9700   15.0700   49.1500 N.am      1 ALA2        0.0000 
      5 NZ        -36.6100   15.3400   48.7200 N.4       2 LYS4        0.0000 
      6 CZ        -33.6000   16.7600   45.0200 C.ar      3 PHE5        0.0000 
      7 CZ        -33.0900   17.3800   46.2900 C.ar      3 PHE5        0.0000 
      8 CZ        -34.4200   17.1500   46.9400 C.ar      3 PHE5        0.0000 
      9 CZ        -35.7500   16.9100   47.6000 C.ar      3 PHE5        0.0000 
     10 CZ        -32.6200   16.0300   46.7600 C.ar      3 PHE5        0.0000 
     11 CZ        -31.2400   18.2300   46.9000 C.ar      3 PHE5        0.0000 
     12 CZ        -32.5700   18.0000   47.5600 C.ar      3 PHE5        0.0000 
     13 CZ        -33.9000   17.7700   48.2100 C.ar      3 PHE5        0.0000 
     14 CA        -34.4700   15.1800   46.1500 C.3       4 GLY6        0.0000 
     15 CA        -35.8000   14.9500   46.8000 C.3       4 GLY6        0.0000 
     16 CA        -35.3300   13.6000   47.2700 C.3       4 GLY6        0.0000 
     17 CA        -36.6600   13.3700   47.9200 C.3       4 GLY6        0.0000 
     18 CA        -36.2000   12.0200   48.3900 C.3       4 GLY6        0.0000 
     19 CA        -33.4900   14.4500   47.8800 C.3       4 GLY6        0.0000 
     20 CA        -34.8200   14.2200   48.5400 C.3       4 GLY6        0.0000 
     21 CA        -34.3500   12.8800   49.0100 C.3       4 GLY6        0.0000 
     22 DU        -33.9500   15.8000   47.4100 H         5 CUB7        0.0000 
     23 DU        -35.2800   15.5700   48.0700 H         5 CUB7        0.0000 
     24 DU        -33.4400   16.4200   48.6800 H         5 CUB7        0.0000 
@<TRIPOS>BOND
@<TRIPOS>SUBSTRUCTURE
     1 ALA2        1 GROUP   
     2 LYS4        5 GROUP   
     3 PHE5        6 GROUP   
     4 GLY6       14 GROUP   
     5 CUB7       22 GROUP   
@<TRIPOS>SET

