#    Name: 6bzt_3_FAD
#    Modification time : Fri May 22 19:28:23 2020

@<TRIPOS>MOLECULE
6bzt_3_FAD
   53    58     1     0     1
SMALL
NO_CHARGES


@<TRIPOS>ATOM
      1 PA        -20.9070  -29.9820   42.0530 P.3       1 FAD601      0.0000 
      2 O1A       -21.0540  -30.6850   43.3830 O.co2     1 FAD601      0.0000 
      3 O2A       -22.0830  -29.2270   41.4780 O.co2     1 FAD601      0.0000 
      4 O5B       -19.6510  -28.9790   42.1460 O.3       1 FAD601      0.0000 
      5 C5B       -19.3310  -28.0990   41.0710 C.3       1 FAD601      0.0000 
      6 C4B       -18.4400  -26.9840   41.5940 C.3       1 FAD601      0.0000 
      7 O4B       -17.9340  -26.2180   40.5000 O.3       1 FAD601      0.0000 
      8 C3B       -19.1950  -26.0210   42.5050 C.3       1 FAD601      0.0000 
      9 O3B       -18.5210  -25.9040   43.7650 O.3       1 FAD601      0.0000 
     10 C2B       -19.2220  -24.7090   41.7370 C.3       1 FAD601      0.0000 
     11 O2B       -19.0940  -23.5540   42.5660 O.3       1 FAD601      0.0000 
     12 C1B       -18.0200  -24.8310   40.8110 C.3       1 FAD601      0.0000 
     13 N9A       -18.0930  -24.0050   39.5790 N.pl3     1 FAD601      0.0000 
     14 C8A       -19.1560  -23.8560   38.7630 C.2       1 FAD601      0.0000 
     15 N7A       -18.8540  -23.0310   37.7300 N.2       1 FAD601      0.0000 
     16 C5A       -17.5780  -22.6380   37.8750 C.ar      1 FAD601      0.0000 
     17 C6A       -16.6380  -21.7630   37.1300 C.ar      1 FAD601      0.0000 
     18 N6A       -17.0380  -21.1380   35.9970 N.pl3     1 FAD601      0.0000 
     19 N1A       -15.3820  -21.6220   37.6230 N.ar      1 FAD601      0.0000 
     20 C2A       -14.9770  -22.2430   38.7530 C.ar      1 FAD601      0.0000 
     21 N3A       -15.7870  -23.0510   39.4780 N.ar      1 FAD601      0.0000 
     22 C4A       -17.0740  -23.2850   39.0980 C.ar      1 FAD601      0.0000 
     23 N1        -26.8780  -37.6440   41.3640 N.2       1 FAD601      0.0000 
     24 C2        -27.0390  -38.6990   42.1920 C.2       1 FAD601      0.0000 
     25 O2        -26.1570  -39.5760   42.2280 O.2       1 FAD601      0.0000 
     26 N3        -28.1290  -38.8490   42.9690 N.am      1 FAD601      0.0000 
     27 C4        -29.1320  -37.9590   42.9790 C.2       1 FAD601      0.0000 
     28 O4        -30.1100  -38.1490   43.7270 O.2       1 FAD601      0.0000 
     29 C4X       -29.0430  -36.7670   42.0890 C.2       1 FAD601      0.0000 
     30 N5        -29.9870  -35.7970   42.0330 N.2       1 FAD601      0.0000 
     31 C5X       -29.8530  -34.7200   41.2120 C.ar      1 FAD601      0.0000 
     32 C6        -30.8600  -33.7580   41.1740 C.ar      1 FAD601      0.0000 
     33 C7        -30.7670  -32.6400   40.3410 C.ar      1 FAD601      0.0000 
     34 C7M       -31.8910  -31.6360   40.3530 C.3       1 FAD601      0.0000 
     35 C8        -29.5610  -32.4620   39.4780 C.ar      1 FAD601      0.0000 
     36 C8M       -29.3830  -31.2750   38.5590 C.3       1 FAD601      0.0000 
     37 C9        -28.5520  -33.4190   39.5170 C.ar      1 FAD601      0.0000 
     38 C9A       -28.6400  -34.5530   40.3450 C.ar      1 FAD601      0.0000 
     39 N10       -27.6390  -35.5670   40.3890 N.pl3     1 FAD601      0.0000 
     40 C10       -27.8120  -36.6650   41.2630 C.2       1 FAD601      0.0000 
     41 C1'       -26.3710  -35.4920   39.6490 C.3       1 FAD601      0.0000 
     42 C2'       -25.4450  -34.8520   40.7080 C.3       1 FAD601      0.0000 
     43 O2'       -25.8060  -33.4740   40.8760 O.3       1 FAD601      0.0000 
     44 C3'       -23.9600  -34.9120   40.4030 C.3       1 FAD601      0.0000 
     45 O3'       -23.5330  -36.2690   40.2180 O.3       1 FAD601      0.0000 
     46 C4'       -23.0710  -34.2510   41.4690 C.3       1 FAD601      0.0000 
     47 O4'       -23.6380  -33.0570   42.0300 O.3       1 FAD601      0.0000 
     48 C5'       -21.7450  -33.8730   40.8320 C.3       1 FAD601      0.0000 
     49 O5'       -20.8230  -33.3670   41.7860 O.3       1 FAD601      0.0000 
     50 P         -19.6490  -32.4050   41.2570 P.3       1 FAD601      0.0000 
     51 O1P       -18.6930  -32.2080   42.4040 O.co2     1 FAD601      0.0000 
     52 O2P       -19.1710  -32.9280   39.9190 O.co2     1 FAD601      0.0000 
     53 O3P       -20.4220  -31.0290   40.9270 O.3       1 FAD601      0.0000 
@<TRIPOS>BOND
     1   17   19 ar   
     2   19   20 ar   
     3   20   21 ar   
     4   21   22 ar   
     5   23   24 1    
     6   23   40 2    
     7   24   25 2    
     8   24   26 am   
     9   26   27 am   
    10   27   28 2    
    11   27   29 1    
    12   29   30 2    
    13   29   40 1    
    14   30   31 1    
    15   31   32 ar   
    16   31   38 ar   
    17   32   33 ar   
    18   33   34 1    
    19   33   35 ar   
    20   35   36 1    
    21   35   37 ar   
    22   37   38 ar   
    23   38   39 1    
    24   39   40 1    
    25   39   41 1    
    26   41   42 1    
    27   42   43 1    
    28   42   44 1    
    29   44   45 1    
    30   44   46 1    
    31   46   47 1    
    32   46   48 1    
    33   48   49 1    
    34   49   50 1    
    35   50   51 ar   
    36   50   52 ar   
    37   50   53 1    
    38    1    2 ar   
    39    1    3 ar   
    40    1    4 1    
    41    1   53 1    
    42    4    5 1    
    43    5    6 1    
    44    6    7 1    
    45    6    8 1    
    46    7   12 1    
    47    8    9 1    
    48    8   10 1    
    49   10   11 1    
    50   10   12 1    
    51   12   13 1    
    52   13   14 1    
    53   13   22 1    
    54   14   15 2    
    55   15   16 1    
    56   16   17 ar   
    57   16   22 ar   
    58   17   18 1    
@<TRIPOS>SUBSTRUCTURE
     1 FAD601      1 GROUP   
@<TRIPOS>SET
ATOM$ORANGE STATIC     ATOMS   COLORGROUP SYSTEM 
54 5 5 6 6 8 8 10 10 12 12 14 14 16 16 17 17 20 \
20 22 22 24 24 27 27 29 29 31 31 32 32 33 33 34 34 35 \
35 36 36 37 37 38 38 40 40 41 41 42 42 44 44 46 46 48 \
48 

