#    Name: 6bzt_4_FAD
#    Modification time : Fri May 22 19:28:31 2020

@<TRIPOS>MOLECULE
6bzt_4_FAD
   53    58     1     0     1
SMALL
NO_CHARGES


@<TRIPOS>ATOM
      1 PA         -1.0050   16.0810   20.2420 P.3       1 FAD601      0.0000 
      2 O1A        -1.1730   16.1610   18.7440 O.co2     1 FAD601      0.0000 
      3 O2A        -2.1570   15.5990   21.0920 O.co2     1 FAD601      0.0000 
      4 O5B         0.2740   15.1470   20.5510 O.3       1 FAD601      0.0000 
      5 C5B         0.6980   14.9000   21.8900 C.3       1 FAD601      0.0000 
      6 C4B         1.4630   13.5870   21.9920 C.3       1 FAD601      0.0000 
      7 O4B         1.8360   13.3710   23.3600 O.3       1 FAD601      0.0000 
      8 C3B         0.6440   12.3730   21.5550 C.3       1 FAD601      0.0000 
      9 O3B         1.2710   11.7050   20.4520 O.3       1 FAD601      0.0000 
     10 C2B         0.5640   11.4850   22.7870 C.3       1 FAD601      0.0000 
     11 O2B         0.7220   10.0970   22.4780 O.3       1 FAD601      0.0000 
     12 C1B         1.7040   11.9830   23.6720 C.3       1 FAD601      0.0000 
     13 N9A         1.5230   11.7240   25.1350 N.pl3     1 FAD601      0.0000 
     14 C8A         0.3940   11.8410   25.8710 C.2       1 FAD601      0.0000 
     15 N7A         0.6270   11.5100   27.1700 N.2       1 FAD601      0.0000 
     16 C5A         1.9240   11.1700   27.2880 C.ar      1 FAD601      0.0000 
     17 C6A         2.8320   10.7190   28.3790 C.ar      1 FAD601      0.0000 
     18 N6A         2.3880   10.5590   29.6480 N.pl3     1 FAD601      0.0000 
     19 N1A         4.1290   10.4730   28.0640 N.ar      1 FAD601      0.0000 
     20 C2A         4.6070   10.6240   26.8080 C.ar      1 FAD601      0.0000 
     21 N3A         3.8320   11.0300   25.7760 N.ar      1 FAD601      0.0000 
     22 C4A         2.5100   11.3130   25.9430 C.ar      1 FAD601      0.0000 
     23 N1         -6.8690   23.2760   17.4410 N.2       1 FAD601      0.0000 
     24 C2         -7.0470   23.8550   16.2310 C.2       1 FAD601      0.0000 
     25 O2         -6.1640   24.6170   15.7900 O.2       1 FAD601      0.0000 
     26 N3         -8.1530   23.6430   15.4950 N.am      1 FAD601      0.0000 
     27 C4         -9.1480   22.8460   15.9110 C.2       1 FAD601      0.0000 
     28 O4        -10.1430   22.6890   15.1790 O.2       1 FAD601      0.0000 
     29 C4X        -9.0360   22.1710   17.2390 C.2       1 FAD601      0.0000 
     30 N5         -9.9700   21.3300   17.7450 N.2       1 FAD601      0.0000 
     31 C5X        -9.8160   20.7310   18.9600 C.ar      1 FAD601      0.0000 
     32 C6        -10.8200   19.8910   19.4420 C.ar      1 FAD601      0.0000 
     33 C7        -10.7060   19.2570   20.6810 C.ar      1 FAD601      0.0000 
     34 C7M       -11.8300   18.3600   21.1320 C.3       1 FAD601      0.0000 
     35 C8         -9.4800   19.4700   21.5110 C.ar      1 FAD601      0.0000 
     36 C8M        -9.3080   18.8110   22.8600 C.3       1 FAD601      0.0000 
     37 C9         -8.4760   20.3140   21.0310 C.ar      1 FAD601      0.0000 
     38 C9A        -8.5850   20.9620   19.7860 C.ar      1 FAD601      0.0000 
     39 N10        -7.5910   21.8460   19.2640 N.pl3     1 FAD601      0.0000 
     40 C10        -7.7900   22.4440   17.9960 C.2       1 FAD601      0.0000 
     41 C1'        -6.3110   22.1230   19.9270 C.3       1 FAD601      0.0000 
     42 C2'        -5.3470   21.1520   19.2160 C.3       1 FAD601      0.0000 
     43 O2'        -5.7080   19.8060   19.5550 O.3       1 FAD601      0.0000 
     44 C3'        -3.8910   21.3530   19.5830 C.3       1 FAD601      0.0000 
     45 O3'        -3.4950   22.7160   19.3810 O.3       1 FAD601      0.0000 
     46 C4'        -2.9140   20.4450   18.8260 C.3       1 FAD601      0.0000 
     47 O4'        -3.4790   19.1740   18.4810 O.3       1 FAD601      0.0000 
     48 C5'        -1.7060   20.2090   19.7180 C.3       1 FAD601      0.0000 
     49 O5'        -0.7210   19.4070   19.0870 O.3       1 FAD601      0.0000 
     50 P           0.3270   18.6140   20.0170 P.3       1 FAD601      0.0000 
     51 O1P         0.8280   19.5770   21.0710 O.co2     1 FAD601      0.0000 
     52 O2P         1.2750   17.9060   19.0830 O.co2     1 FAD601      0.0000 
     53 O3P        -0.5730   17.5300   20.8110 O.3       1 FAD601      0.0000 
@<TRIPOS>BOND
     1    1    2 ar   
     2    1    3 ar   
     3    1    4 1    
     4    1   53 1    
     5    4    5 1    
     6    5    6 1    
     7    6    7 1    
     8    6    8 1    
     9    7   12 1    
    10    8    9 1    
    11    8   10 1    
    12   10   11 1    
    13   10   12 1    
    14   12   13 1    
    15   13   14 1    
    16   13   22 1    
    17   14   15 2    
    18   15   16 1    
    19   16   17 ar   
    20   16   22 ar   
    21   17   18 1    
    22   17   19 ar   
    23   19   20 ar   
    24   20   21 ar   
    25   21   22 ar   
    26   23   24 1    
    27   23   40 2    
    28   24   25 2    
    29   24   26 am   
    30   26   27 am   
    31   27   28 2    
    32   27   29 1    
    33   29   30 2    
    34   29   40 1    
    35   30   31 1    
    36   31   32 ar   
    37   31   38 ar   
    38   32   33 ar   
    39   33   34 1    
    40   33   35 ar   
    41   35   36 1    
    42   35   37 ar   
    43   37   38 ar   
    44   38   39 1    
    45   39   40 1    
    46   39   41 1    
    47   41   42 1    
    48   42   43 1    
    49   42   44 1    
    50   44   45 1    
    51   44   46 1    
    52   46   47 1    
    53   46   48 1    
    54   48   49 1    
    55   49   50 1    
    56   50   51 ar   
    57   50   52 ar   
    58   50   53 1    
@<TRIPOS>SUBSTRUCTURE
     1 FAD601      1 GROUP   
@<TRIPOS>SET
ATOM$ORANGE STATIC     ATOMS   COLORGROUP SYSTEM 
54 5 5 6 6 8 8 10 10 12 12 14 14 16 16 17 17 20 \
20 22 22 24 24 27 27 29 29 31 31 32 32 33 33 34 34 35 \
35 36 36 37 37 38 38 40 40 41 41 42 42 44 44 46 46 48 \
48 

