#    Name: 6bzt_1_FAD
#    Modification time : Fri May 22 19:28:06 2020

@<TRIPOS>MOLECULE
6bzt_1_FAD
   53    58     1     0     1
SMALL
NO_CHARGES


@<TRIPOS>ATOM
      1 PA         -3.8470   -8.4200   10.6770 P.3       1 FAD601      0.0000 
      2 O1A        -3.5850   -7.5000    9.5110 O.co2     1 FAD601      0.0000 
      3 O2A        -2.7310   -8.7320   11.6460 O.co2     1 FAD601      0.0000 
      4 O5B        -5.0980   -7.8380   11.5120 O.3       1 FAD601      0.0000 
      5 C5B        -5.6020   -8.5500   12.6400 C.3       1 FAD601      0.0000 
      6 C4B        -6.4080   -7.6450   13.5600 C.3       1 FAD601      0.0000 
      7 O4B        -6.8750   -8.4350   14.6560 O.3       1 FAD601      0.0000 
      8 C3B        -5.6090   -6.4840   14.1490 C.3       1 FAD601      0.0000 
      9 O3B        -6.2110   -5.2280   13.7970 O.3       1 FAD601      0.0000 
     10 C2B        -5.6130   -6.7310   15.6520 C.3       1 FAD601      0.0000 
     11 O2B        -5.7650   -5.5360   16.4240 O.3       1 FAD601      0.0000 
     12 C1B        -6.8000   -7.6680   15.8540 C.3       1 FAD601      0.0000 
     13 N9A        -6.7190   -8.5360   17.0610 N.pl3     1 FAD601      0.0000 
     14 C8A        -5.6560   -9.2510   17.4880 C.2       1 FAD601      0.0000 
     15 N7A        -5.9550   -9.9270   18.6290 N.2       1 FAD601      0.0000 
     16 C5A        -7.2330   -9.6500   18.9470 C.ar      1 FAD601      0.0000 
     17 C6A        -8.1790  -10.0310   20.0270 C.ar      1 FAD601      0.0000 
     18 N6A        -7.7930  -10.8690   21.0160 N.pl3     1 FAD601      0.0000 
     19 N1A        -9.4360   -9.5160   19.9880 N.ar      1 FAD601      0.0000 
     20 C2A        -9.8370   -8.6770   19.0060 C.ar      1 FAD601      0.0000 
     21 N3A        -9.0230   -8.2920   17.9950 N.ar      1 FAD601      0.0000 
     22 C4A        -7.7360   -8.7330   17.9090 C.ar      1 FAD601      0.0000 
     23 N1          2.0380  -12.0010    3.7310 N.2       1 FAD601      0.0000 
     24 C2          2.2500  -11.6050    2.4530 C.2       1 FAD601      0.0000 
     25 O2          1.3950  -11.8720    1.5900 O.2       1 FAD601      0.0000 
     26 N3          3.3620  -10.9460    2.0760 N.am      1 FAD601      0.0000 
     27 C4          4.3350  -10.6350    2.9400 C.2       1 FAD601      0.0000 
     28 O4          5.3390  -10.0210    2.5330 O.2       1 FAD601      0.0000 
     29 C4X         4.1900  -11.0390    4.3650 C.2       1 FAD601      0.0000 
     30 N5          5.1140  -10.7560    5.3090 N.2       1 FAD601      0.0000 
     31 C5X         4.9420  -11.1300    6.6040 C.ar      1 FAD601      0.0000 
     32 C6          5.9380  -10.8210    7.5290 C.ar      1 FAD601      0.0000 
     33 C7          5.8170  -11.1850    8.8690 C.ar      1 FAD601      0.0000 
     34 C7M         6.9360  -10.8160    9.8100 C.3       1 FAD601      0.0000 
     35 C8          4.5910  -11.9120    9.3270 C.ar      1 FAD601      0.0000 
     36 C8M         4.3860  -12.3370   10.7640 C.3       1 FAD601      0.0000 
     37 C9          3.5920  -12.2200    8.4030 C.ar      1 FAD601      0.0000 
     38 C9A         3.7100  -11.8650    7.0460 C.ar      1 FAD601      0.0000 
     39 N10         2.7250  -12.1750    6.0600 N.pl3     1 FAD601      0.0000 
     40 C10         2.9390  -11.7580    4.7210 C.2       1 FAD601      0.0000 
     41 C1'         1.4450  -12.8320    6.3670 C.3       1 FAD601      0.0000 
     42 C2'         0.4960  -11.6220    6.5260 C.3       1 FAD601      0.0000 
     43 O2'         0.8810  -10.8720    7.6870 O.3       1 FAD601      0.0000 
     44 C3'        -0.9730  -11.9680    6.6790 C.3       1 FAD601      0.0000 
     45 O3'        -1.4070  -12.8310    5.6190 O.3       1 FAD601      0.0000 
     46 C4'        -1.9020  -10.7490    6.7220 C.3       1 FAD601      0.0000 
     47 O4'        -1.3330   -9.6380    7.4280 O.3       1 FAD601      0.0000 
     48 C5'        -3.2020  -11.1360    7.4080 C.3       1 FAD601      0.0000 
     49 O5'        -4.0390  -10.0070    7.6160 O.3       1 FAD601      0.0000 
     50 P          -5.1710  -10.0970    8.7530 P.3       1 FAD601      0.0000 
     51 O1P        -5.6480  -11.5300    8.8460 O.co2     1 FAD601      0.0000 
     52 O2P        -6.1300   -8.9720    8.4750 O.co2     1 FAD601      0.0000 
     53 O3P        -4.3740   -9.8450   10.1350 O.3       1 FAD601      0.0000 
@<TRIPOS>BOND
     1    1    2 ar   
     2    1    3 ar   
     3    1    4 1    
     4    1   53 1    
     5    4    5 1    
     6    5    6 1    
     7    6    7 1    
     8    6    8 1    
     9    7   12 1    
    10    8    9 1    
    11    8   10 1    
    12   10   11 1    
    13   10   12 1    
    14   12   13 1    
    15   13   14 1    
    16   13   22 1    
    17   14   15 2    
    18   15   16 1    
    19   16   17 ar   
    20   16   22 ar   
    21   17   18 1    
    22   17   19 ar   
    23   19   20 ar   
    24   20   21 ar   
    25   21   22 ar   
    26   23   24 1    
    27   23   40 2    
    28   24   25 2    
    29   24   26 am   
    30   26   27 am   
    31   27   28 2    
    32   27   29 1    
    33   29   30 2    
    34   29   40 1    
    35   30   31 1    
    36   31   32 ar   
    37   31   38 ar   
    38   32   33 ar   
    39   33   34 1    
    40   33   35 ar   
    41   35   36 1    
    42   35   37 ar   
    43   37   38 ar   
    44   38   39 1    
    45   39   40 1    
    46   39   41 1    
    47   41   42 1    
    48   42   43 1    
    49   42   44 1    
    50   44   45 1    
    51   44   46 1    
    52   46   47 1    
    53   46   48 1    
    54   48   49 1    
    55   49   50 1    
    56   50   51 ar   
    57   50   52 ar   
    58   50   53 1    
@<TRIPOS>SUBSTRUCTURE
     1 FAD601      1 GROUP   
@<TRIPOS>SET
ATOM$ORANGE STATIC     ATOMS   COLORGROUP SYSTEM 
54 5 5 6 6 8 8 10 10 12 12 14 14 16 16 17 17 20 \
20 22 22 24 24 27 27 29 29 31 31 32 32 33 33 34 34 35 \
35 36 36 37 37 38 38 40 40 41 41 42 42 44 44 46 46 48 \
48 

