#    Name: 6bzt_2_FAD
#    Modification time : Fri May 22 19:28:15 2020

@<TRIPOS>MOLECULE
6bzt_2_FAD
   53    58     1     0     1
SMALL
NO_CHARGES


@<TRIPOS>ATOM
      1 PA        -23.7020  -11.9030   60.8140 P.3       1 FAD601      0.0000 
      2 O1A       -23.5080  -13.2260   61.5250 O.co2     1 FAD601      0.0000 
      3 O2A       -22.5500  -11.2390   60.0980 O.co2     1 FAD601      0.0000 
      4 O5B       -24.8900  -12.0660   59.7450 O.3       1 FAD601      0.0000 
      5 C5B       -25.5080  -10.9070   59.1910 C.3       1 FAD601      0.0000 
      6 C4B       -26.2490  -11.2830   57.9250 C.3       1 FAD601      0.0000 
      7 O4B       -26.6780  -10.0860   57.2750 O.3       1 FAD601      0.0000 
      8 C3B       -25.3990  -12.0630   56.9230 C.3       1 FAD601      0.0000 
      9 O3B       -25.9590  -13.3680   56.7130 O.3       1 FAD601      0.0000 
     10 C2B       -25.4360  -11.2190   55.6660 C.3       1 FAD601      0.0000 
     11 O2B       -25.5370  -11.9990   54.4700 O.3       1 FAD601      0.0000 
     12 C1B       -26.6640  -10.3450   55.8760 C.3       1 FAD601      0.0000 
     13 N9A       -26.6080   -9.0840   55.1200 N.pl3     1 FAD601      0.0000 
     14 C8A       -25.5700   -8.2340   55.0920 C.2       1 FAD601      0.0000 
     15 N7A       -25.8340   -7.1680   54.3010 N.2       1 FAD601      0.0000 
     16 C5A       -27.0700   -7.3370   53.8120 C.ar      1 FAD601      0.0000 
     17 C6A       -27.9590   -6.5780   52.9110 C.ar      1 FAD601      0.0000 
     18 N6A       -27.5440   -5.4080   52.3810 N.pl3     1 FAD601      0.0000 
     19 N1A       -29.1810   -7.0910   52.6460 N.ar      1 FAD601      0.0000 
     20 C2A       -29.5910   -8.2620   53.1810 C.ar      1 FAD601      0.0000 
     21 N3A       -28.8270   -9.0080   54.0110 N.ar      1 FAD601      0.0000 
     22 C4A       -27.5810   -8.6030   54.3570 C.ar      1 FAD601      0.0000 
     23 N1        -17.7830  -11.4230   68.5220 N.2       1 FAD601      0.0000 
     24 C2        -17.6270  -12.2910   69.5370 C.2       1 FAD601      0.0000 
     25 O2        -18.5210  -12.3570   70.4000 O.2       1 FAD601      0.0000 
     26 N3        -16.5460  -13.0790   69.6600 N.am      1 FAD601      0.0000 
     27 C4        -15.5370  -13.0600   68.7810 C.2       1 FAD601      0.0000 
     28 O4        -14.5550  -13.8180   68.9460 O.2       1 FAD601      0.0000 
     29 C4X       -15.6310  -12.1210   67.6320 C.2       1 FAD601      0.0000 
     30 N5        -14.6910  -12.0330   66.6770 N.2       1 FAD601      0.0000 
     31 C5X       -14.8250  -11.1670   65.6460 C.ar      1 FAD601      0.0000 
     32 C6        -13.8020  -11.1250   64.7170 C.ar      1 FAD601      0.0000 
     33 C7        -13.8630  -10.2610   63.6330 C.ar      1 FAD601      0.0000 
     34 C7M       -12.7090  -10.2770   62.6700 C.3       1 FAD601      0.0000 
     35 C8        -15.0540   -9.3730   63.4580 C.ar      1 FAD601      0.0000 
     36 C8M       -15.1680   -8.4210   62.2930 C.3       1 FAD601      0.0000 
     37 C9        -16.0910   -9.4180   64.3900 C.ar      1 FAD601      0.0000 
     38 C9A       -16.0260  -10.2810   65.4970 C.ar      1 FAD601      0.0000 
     39 N10       -17.0350  -10.3630   66.4990 N.pl3     1 FAD601      0.0000 
     40 C10       -16.8530  -11.2840   67.5540 C.2       1 FAD601      0.0000 
     41 C1'       -18.3090   -9.6250   66.4650 C.3       1 FAD601      0.0000 
     42 C2'       -19.2950  -10.6940   65.9050 C.3       1 FAD601      0.0000 
     43 O2'       -18.8120  -11.1760   64.6420 O.3       1 FAD601      0.0000 
     44 C3'       -20.7380  -10.2600   65.6610 C.3       1 FAD601      0.0000 
     45 O3'       -21.2550   -9.6810   66.8670 O.3       1 FAD601      0.0000 
     46 C4'       -21.7000  -11.3720   65.2050 C.3       1 FAD601      0.0000 
     47 O4'       -21.1260  -12.1790   64.1590 O.3       1 FAD601      0.0000 
     48 C5'       -22.9970  -10.7490   64.7000 C.3       1 FAD601      0.0000 
     49 O5'       -23.8820  -11.7160   64.1580 O.3       1 FAD601      0.0000 
     50 P         -25.0680  -11.1880   63.2130 P.3       1 FAD601      0.0000 
     51 O1P       -25.5450   -9.8620   63.7860 O.co2     1 FAD601      0.0000 
     52 O2P       -25.9990  -12.3620   63.0190 O.co2     1 FAD601      0.0000 
     53 O3P       -24.3160  -10.8170   61.8340 O.3       1 FAD601      0.0000 
@<TRIPOS>BOND
     1    1    2 ar   
     2    1    3 ar   
     3    1    4 1    
     4    1   53 1    
     5    4    5 1    
     6    5    6 1    
     7    6    7 1    
     8    6    8 1    
     9    7   12 1    
    10    8    9 1    
    11    8   10 1    
    12   10   11 1    
    13   10   12 1    
    14   12   13 1    
    15   13   14 1    
    16   13   22 1    
    17   14   15 2    
    18   15   16 1    
    19   16   17 ar   
    20   16   22 ar   
    21   17   18 1    
    22   17   19 ar   
    23   19   20 ar   
    24   20   21 ar   
    25   21   22 ar   
    26   23   24 1    
    27   23   40 2    
    28   24   25 2    
    29   24   26 am   
    30   26   27 am   
    31   27   28 2    
    32   27   29 1    
    33   29   30 2    
    34   29   40 1    
    35   30   31 1    
    36   31   32 ar   
    37   31   38 ar   
    38   32   33 ar   
    39   33   34 1    
    40   33   35 ar   
    41   35   36 1    
    42   35   37 ar   
    43   37   38 ar   
    44   38   39 1    
    45   39   40 1    
    46   39   41 1    
    47   41   42 1    
    48   42   43 1    
    49   42   44 1    
    50   44   45 1    
    51   44   46 1    
    52   46   47 1    
    53   46   48 1    
    54   48   49 1    
    55   49   50 1    
    56   50   51 ar   
    57   50   52 ar   
    58   50   53 1    
@<TRIPOS>SUBSTRUCTURE
     1 FAD601      1 GROUP   
@<TRIPOS>SET
ATOM$ORANGE STATIC     ATOMS   COLORGROUP SYSTEM 
54 5 5 6 6 8 8 10 10 12 12 14 14 16 16 17 17 20 \
20 22 22 24 24 27 27 29 29 31 31 32 32 33 33 34 34 35 \
35 36 36 37 37 38 38 40 40 41 41 42 42 44 44 46 46 48 \
48 

