#    Name: 6em0_1_FAD
#    Modification time : Fri May 22 19:24:05 2020

@<TRIPOS>MOLECULE
6em0_1_FAD
   53    58     1     0     1
SMALL
NO_CHARGES


@<TRIPOS>ATOM
      1 PA         14.0000  -33.7380    7.0160 P.3       1 FAD601      0.0000 
      2 O1A        12.8250  -32.9820    6.4410 O.co2     1 FAD601      0.0000 
      3 O2A        13.9790  -34.1760    8.4600 O.co2     1 FAD601      0.0000 
      4 O5B        14.2610  -35.0350    6.0990 O.3       1 FAD601      0.0000 
      5 C5B        13.8500  -36.3270    6.5400 C.3       1 FAD601      0.0000 
      6 C4B        12.3850  -36.5440    6.1820 C.3       1 FAD601      0.0000 
      7 O4B        12.2250  -37.8200    5.5570 O.3       1 FAD601      0.0000 
      8 C3B        11.5060  -36.5180    7.4220 C.3       1 FAD601      0.0000 
      9 O3B        10.5310  -35.4780    7.3100 O.3       1 FAD601      0.0000 
     10 C2B        10.8200  -37.8680    7.4840 C.3       1 FAD601      0.0000 
     11 O2B         9.4010  -37.7010    7.4180 O.3       1 FAD601      0.0000 
     12 C1B        11.3100  -38.6520    6.2770 C.3       1 FAD601      0.0000 
     13 N9A        12.0030  -39.8850    6.7270 N.pl3     1 FAD601      0.0000 
     14 C8A        12.9760  -39.9460    7.6550 C.2       1 FAD601      0.0000 
     15 N7A        13.3990  -41.2240    7.8380 N.2       1 FAD601      0.0000 
     16 C5A        12.6840  -42.0080    7.0110 C.ar      1 FAD601      0.0000 
     17 C6A        12.6240  -43.4550    6.6980 C.ar      1 FAD601      0.0000 
     18 N6A        13.4350  -44.3420    7.3240 N.pl3     1 FAD601      0.0000 
     19 N1A        11.7320  -43.8610    5.7670 N.ar      1 FAD601      0.0000 
     20 C2A        10.9200  -42.9900    5.1380 C.ar      1 FAD601      0.0000 
     21 N3A        10.9210  -41.6650    5.3720 N.ar      1 FAD601      0.0000 
     22 C4A        11.7650  -41.1210    6.2810 C.ar      1 FAD601      0.0000 
     23 N1         16.9880  -25.3190   11.3320 N.2       1 FAD601      0.0000 
     24 C2         17.0960  -23.9680   11.3980 C.2       1 FAD601      0.0000 
     25 O2         17.8580  -23.3880   10.5940 O.2       1 FAD601      0.0000 
     26 N3         16.4170  -23.2270   12.2920 N.am      1 FAD601      0.0000 
     27 C4         15.5820  -23.7730   13.1850 C.2       1 FAD601      0.0000 
     28 O4         14.9650  -23.0570   14.0040 O.2       1 FAD601      0.0000 
     29 C4X        15.4070  -25.2450   13.1810 C.2       1 FAD601      0.0000 
     30 N5         14.5830  -25.8730   14.0490 N.2       1 FAD601      0.0000 
     31 C5X        14.4450  -27.2190   14.0210 C.ar      1 FAD601      0.0000 
     32 C6         13.5920  -27.8440   14.9240 C.ar      1 FAD601      0.0000 
     33 C7         13.4440  -29.2260   14.9010 C.ar      1 FAD601      0.0000 
     34 C7M        12.5190  -29.8990   15.8810 C.3       1 FAD601      0.0000 
     35 C8         14.1970  -30.0400   13.9110 C.ar      1 FAD601      0.0000 
     36 C8M        14.0350  -31.5380   13.8880 C.3       1 FAD601      0.0000 
     37 C9         15.0510  -29.4200   13.0060 C.ar      1 FAD601      0.0000 
     38 C9A        15.1990  -28.0390   13.0280 C.ar      1 FAD601      0.0000 
     39 N10        16.0620  -27.4020   12.1150 N.pl3     1 FAD601      0.0000 
     40 C10        16.1830  -26.0020   12.1730 C.2       1 FAD601      0.0000 
     41 C1'        16.8160  -28.1800   11.1290 C.3       1 FAD601      0.0000 
     42 C2'        16.0620  -28.1890    9.8050 C.3       1 FAD601      0.0000 
     43 O2'        14.7850  -28.8100    9.9870 O.3       1 FAD601      0.0000 
     44 C3'        16.8450  -28.9410    8.7350 C.3       1 FAD601      0.0000 
     45 O3'        17.9710  -28.1570    8.3280 O.3       1 FAD601      0.0000 
     46 C4'        15.9680  -29.2380    7.5250 C.3       1 FAD601      0.0000 
     47 O4'        14.7490  -29.8530    7.9570 O.3       1 FAD601      0.0000 
     48 C5'        16.6830  -30.1620    6.5460 C.3       1 FAD601      0.0000 
     49 O5'        15.7430  -30.6760    5.6050 O.3       1 FAD601      0.0000 
     50 P          15.6570  -32.2580    5.3180 P.3       1 FAD601      0.0000 
     51 O1P        17.0270  -32.7390    4.9050 O.co2     1 FAD601      0.0000 
     52 O2P        14.4670  -32.5120    4.4230 O.co2     1 FAD601      0.0000 
     53 O3P        15.3290  -32.8620    6.7740 O.3       1 FAD601      0.0000 
@<TRIPOS>BOND
     1    1    2 ar   
     2    1    3 ar   
     3    1    4 1    
     4    1   53 1    
     5    4    5 1    
     6    5    6 1    
     7    6    7 1    
     8    6    8 1    
     9    7   12 1    
    10    8    9 1    
    11    8   10 1    
    12   10   11 1    
    13   10   12 1    
    14   12   13 1    
    15   13   14 1    
    16   13   22 1    
    17   14   15 2    
    18   15   16 1    
    19   16   17 ar   
    20   16   22 ar   
    21   17   18 1    
    22   17   19 ar   
    23   19   20 ar   
    24   20   21 ar   
    25   21   22 ar   
    26   23   24 1    
    27   23   40 2    
    28   24   25 2    
    29   24   26 am   
    30   26   27 am   
    31   27   28 2    
    32   27   29 1    
    33   29   30 2    
    34   29   40 1    
    35   30   31 1    
    36   31   32 ar   
    37   31   38 ar   
    38   32   33 ar   
    39   33   34 1    
    40   33   35 ar   
    41   35   36 1    
    42   35   37 ar   
    43   37   38 ar   
    44   38   39 1    
    45   39   40 1    
    46   39   41 1    
    47   41   42 1    
    48   42   43 1    
    49   42   44 1    
    50   44   45 1    
    51   44   46 1    
    52   46   47 1    
    53   46   48 1    
    54   48   49 1    
    55   49   50 1    
    56   50   51 ar   
    57   50   52 ar   
    58   50   53 1    
@<TRIPOS>SUBSTRUCTURE
     1 FAD601      1 GROUP   
@<TRIPOS>SET
ATOM$ORANGE STATIC     ATOMS   COLORGROUP SYSTEM 
54 5 5 6 6 8 8 10 10 12 12 14 14 16 16 17 17 20 \
20 22 22 24 24 27 27 29 29 31 31 32 32 33 33 34 34 35 \
35 36 36 37 37 38 38 40 40 41 41 42 42 44 44 46 46 48 \
48 

