#    Name: 6ew3_1_S3C_CAVITY_N1_6
#    Modification time : Fri May 22 19:39:38 2020

@<TRIPOS>MOLECULE
6ew3_1_S3C_CAVITY_N1_6
   69     0     7     0     0
SMALL
NO_CHARGES


@<TRIPOS>ATOM
      1 OG        -26.8700    3.5900   57.8600 O.3       1 SER1        0.0000 
      2 OG        -30.1200    7.8300   57.0600 O.3       1 SER1        0.0000 
      3 OG        -31.3500    8.5700   57.5100 O.3       1 SER1        0.0000 
      4 OG        -26.0300    4.4000   58.8000 O.3       1 SER1        0.0000 
      5 O         -32.1800    7.7500   56.5700 O.2       2 ALA2        0.0000 
      6 O         -30.3300    6.8200   58.1400 O.2       2 ALA2        0.0000 
      7 O         -31.7700    6.5400   59.6700 O.2       2 ALA2        0.0000 
      8 O         -31.5600    7.5500   58.5900 O.2       2 ALA2        0.0000 
      9 O         -29.6700   10.2100   59.3900 O.2       2 ALA2        0.0000 
     10 O         -27.8200    9.2700   60.9500 O.2       2 ALA2        0.0000 
     11 O         -28.4200    9.8100   63.4200 O.2       2 ALA2        0.0000 
     12 OD1       -27.8800    5.3400   57.2400 O.co2     3 ASP3        0.0000 
     13 OD1       -28.8900    7.1000   56.6100 O.co2     3 ASP3        0.0000 
     14 OD1       -27.0500    6.1600   58.1700 O.co2     3 ASP3        0.0000 
     15 OD1       -26.8300    7.1800   57.0900 O.co2     3 ASP3        0.0000 
     16 OD1       -28.0600    7.9200   57.5400 O.co2     3 ASP3        0.0000 
     17 NZ        -26.2100    6.9800   59.1100 N.4       4 LYS4        0.0000 
     18 NZ        -27.2200    8.7300   58.4800 N.4       4 LYS4        0.0000 
     19 NZ        -30.9000   10.9500   59.8400 N.4       4 LYS4        0.0000 
     20 NZ        -30.2700   10.7500   61.8500 N.4       4 LYS4        0.0000 
     21 CZ        -28.7200    4.5200   56.3000 C.ar      5 PHE5        0.0000 
     22 CZ        -29.7300    6.2800   55.6700 C.ar      5 PHE5        0.0000 
     23 CZ        -30.9600    7.0200   56.1200 C.ar      5 PHE5        0.0000 
     24 CZ        -25.8600    1.8300   58.4900 C.ar      5 PHE5        0.0000 
     25 CZ        -27.3000    1.5500   60.0200 C.ar      5 PHE5        0.0000 
     26 CZ        -28.5300    2.2900   60.4800 C.ar      5 PHE5        0.0000 
     27 CZ        -29.9700    2.0100   62.0100 C.ar      5 PHE5        0.0000 
     28 CZ        -29.7500    3.0200   60.9300 C.ar      5 PHE5        0.0000 
     29 CZ        -30.9800    3.7600   61.3800 C.ar      5 PHE5        0.0000 
     30 CZ        -32.2000    4.5000   61.8300 C.ar      5 PHE5        0.0000 
     31 CZ        -31.9900    5.5200   60.7500 C.ar      5 PHE5        0.0000 
     32 CZ        -26.2500    3.3900   59.8800 C.ar      5 PHE5        0.0000 
     33 CZ        -27.6900    3.1100   61.4100 C.ar      5 PHE5        0.0000 
     34 CZ        -27.4700    4.1200   60.3300 C.ar      5 PHE5        0.0000 
     35 CZ        -27.2600    5.1400   59.2500 C.ar      5 PHE5        0.0000 
     36 CZ        -28.9100    3.8400   61.8700 C.ar      5 PHE5        0.0000 
     37 CZ        -28.7000    4.8600   60.7900 C.ar      5 PHE5        0.0000 
     38 CZ        -30.1400    4.5800   62.3200 C.ar      5 PHE5        0.0000 
     39 CZ        -29.9300    5.6000   61.2400 C.ar      5 PHE5        0.0000 
     40 CZ        -29.7100    6.6200   60.1600 C.ar      5 PHE5        0.0000 
     41 CZ        -29.2800    8.6500   58.0000 C.ar      5 PHE5        0.0000 
     42 CZ        -30.9400    7.3500   60.6100 C.ar      5 PHE5        0.0000 
     43 CZ        -30.5100    9.3900   58.4500 C.ar      5 PHE5        0.0000 
     44 CZ        -26.4200    5.9600   60.1900 C.ar      5 PHE5        0.0000 
     45 CZ        -27.6500    6.7000   60.6400 C.ar      5 PHE5        0.0000 
     46 CZ        -27.4300    7.7200   59.5600 C.ar      5 PHE5        0.0000 
     47 CZ        -28.8700    7.4300   61.0900 C.ar      5 PHE5        0.0000 
     48 CZ        -29.8800    9.1900   60.4700 C.ar      5 PHE5        0.0000 
     49 CZ        -26.6000    8.5300   60.5000 C.ar      5 PHE5        0.0000 
     50 CA        -30.5900    2.2100   59.9900 C.3       6 GLY6        0.0000 
     51 CA        -29.9500    5.2600   56.7500 C.3       6 GLY6        0.0000 
     52 CA        -31.6000    3.9600   59.3600 C.3       6 GLY6        0.0000 
     53 CA        -31.1700    6.0000   57.2000 C.3       6 GLY6        0.0000 
     54 CA        -29.3200    5.0600   58.7700 C.3       6 GLY6        0.0000 
     55 CA        -30.7600    4.7800   60.3000 C.3       6 GLY6        0.0000 
     56 CA        -30.5500    5.8000   59.2200 C.3       6 GLY6        0.0000 
     57 CA        -28.4400    9.4700   58.9300 C.3       6 GLY6        0.0000 
     58 CA        -29.0500   10.0100   61.4000 C.3       6 GLY6        0.0000 
     59 CA        -28.8300   11.0300   60.3200 C.3       6 GLY6        0.0000 
     60 CA        -28.2100   10.8300   62.3400 C.3       6 GLY6        0.0000 
     61 DU        -28.1000    4.3200   58.3200 H         7 CUB7        0.0000 
     62 DU        -29.5400    4.0400   59.8500 H         7 CUB7        0.0000 
     63 DU        -29.1100    6.0800   57.6900 H         7 CUB7        0.0000 
     64 DU        -32.5700    9.3100   57.9600 H         7 CUB7        0.0000 
     65 DU        -28.4900    5.8800   59.7000 H         7 CUB7        0.0000 
     66 DU        -28.2700    6.9000   58.6200 H         7 CUB7        0.0000 
     67 DU        -29.5000    7.6300   59.0800 H         7 CUB7        0.0000 
     68 DU        -30.7200    8.3700   59.5300 H         7 CUB7        0.0000 
     69 DU        -28.6600    8.4500   60.0100 H         7 CUB7        0.0000 
@<TRIPOS>BOND
@<TRIPOS>SUBSTRUCTURE
     1 SER1        1 GROUP   
     2 ALA2        5 GROUP   
     3 ASP3       12 GROUP   
     4 LYS4       17 GROUP   
     5 PHE5       21 GROUP   
     6 GLY6       50 GROUP   
     7 CUB7       61 GROUP   
@<TRIPOS>SET

