#    Name: 6ew3_2_S3C
#    Modification time : Fri May 22 19:39:39 2020

@<TRIPOS>MOLECULE
6ew3_2_S3C
   15    15     1     0     0
SMALL
NO_CHARGES


@<TRIPOS>ATOM
      1 C10       -33.9450  -11.4410   65.6600           1 S3C506      0.0000 
      2 C15       -35.3410  -12.6240   63.5540           1 S3C506      0.0000 
      3 CL1       -37.3020  -10.7830   63.6870           1 S3C506      0.0000 
      4 C2        -35.8360  -11.4940   64.2120           1 S3C506      0.0000 
      5 C3        -35.1670  -10.8980   65.2760           1 S3C506      0.0000 
      6 C4        -35.7370   -9.7500   65.9960           1 S3C506      0.0000 
      7 C5        -36.1020   -9.8260   67.2860           1 S3C506      0.0000 
      8 C6        -36.6680   -8.6380   67.9710           1 S3C506      0.0000 
      9 O7        -36.9290   -8.5590   69.1610           1 S3C506      0.0000 
     10 O8        -36.9220   -7.5360   67.2190           1 S3C506      0.0000 
     11 S9        -35.9620  -11.2850   68.2330           1 S3C506      0.0000 
     12 CL2       -33.0360  -10.6580   66.8520           1 S3C506      0.0000 
     13 C12       -33.4480  -12.5680   65.0290           1 S3C506      0.0000 
     14 CL3       -31.9970  -13.2390   65.5760           1 S3C506      0.0000 
     15 C14       -34.1310  -13.1700   63.9770           1 S3C506      0.0000 
@<TRIPOS>BOND
     1    1    5 du   
     2    1   12 du   
     3    1   13 du   
     4    2    4 du   
     5    2   15 du   
     6    3    4 du   
     7    4    5 du   
     8    5    6 du   
     9    6    7 du   
    10    7    8 du   
    11    7   11 du   
    12    8    9 du   
    13    8   10 du   
    14   13   14 du   
    15   13   15 du   
@<TRIPOS>SUBSTRUCTURE
     1 S3C506      1 GROUP   
@<TRIPOS>SET

