#    Name: 6ew3_2_S3C_CAVITY_N1_6
#    Modification time : Fri May 22 19:39:40 2020

@<TRIPOS>MOLECULE
6ew3_2_S3C_CAVITY_N1_6
   74     0     7     0     0
SMALL
NO_CHARGES


@<TRIPOS>ATOM
      1 OG        -36.3200  -12.6000   63.6400 O.3       1 SER1        0.0000 
      2 OG        -35.4800  -11.7900   64.5800 O.3       1 SER1        0.0000 
      3 OG        -32.3300   -6.2800   64.1500 O.3       1 SER1        0.0000 
      4 OG        -34.2000   -8.5900   67.8400 O.3       1 SER1        0.0000 
      5 OG        -33.3400   -4.5200   63.5200 O.3       1 SER1        0.0000 
      6 OG        -35.4200   -7.8600   68.2900 O.3       1 SER1        0.0000 
      7 OG        -33.3600   -7.7800   68.7800 O.3       1 SER1        0.0000 
      8 O         -34.8800  -12.3200   62.1100 O.2       2 ALA2        0.0000 
      9 O         -36.1100  -11.5900   62.5600 O.2       2 ALA2        0.0000 
     10 O         -35.2700  -10.7700   63.5000 O.2       2 ALA2        0.0000 
     11 N         -36.8800   -8.4700   65.3400 N.am      2 ALA2        0.0000 
     12 O         -34.1800   -5.3400   62.5800 O.2       2 ALA2        0.0000 
     13 O         -36.0500   -7.6600   66.2700 O.2       2 ALA2        0.0000 
     14 O         -34.9900   -5.8200   66.1300 O.2       2 ALA2        0.0000 
     15 OD1       -34.8600  -11.9900   66.5900 O.co2     3 ASP3        0.0000 
     16 OD1       -35.8700  -10.2300   65.9600 O.co2     3 ASP3        0.0000 
     17 OD1       -35.0300   -9.4100   66.9000 O.co2     3 ASP3        0.0000 
     18 OD1       -36.2600   -8.6700   67.3500 O.co2     3 ASP3        0.0000 
     19 OD1       -33.9400   -3.9800   65.9900 O.co2     3 ASP3        0.0000 
     20 NZ        -35.7200  -13.1400   61.1700 N.4       4 LYS4        0.0000 
     21 NZ        -34.0200  -11.1700   67.5300 N.4       4 LYS4        0.0000 
     22 NZ        -33.1900  -10.3500   68.4700 N.4       4 LYS4        0.0000 
     23 CZ        -33.6600  -13.0600   61.6500 C.ar      5 PHE5        0.0000 
     24 CZ        -35.1000  -13.3400   63.1900 C.ar      5 PHE5        0.0000 
     25 CZ        -33.0300  -13.2600   63.6700 C.ar      5 PHE5        0.0000 
     26 CZ        -32.8200  -12.2400   62.5900 C.ar      5 PHE5        0.0000 
     27 CZ        -34.4700  -13.5400   65.2000 C.ar      5 PHE5        0.0000 
     28 CZ        -34.0400  -11.5000   63.0400 C.ar      5 PHE5        0.0000 
     29 CZ        -33.2100  -10.6900   63.9800 C.ar      5 PHE5        0.0000 
     30 CZ        -32.9900   -9.6700   62.9000 C.ar      5 PHE5        0.0000 
     31 CZ        -32.7800   -8.6500   61.8200 C.ar      5 PHE5        0.0000 
     32 CZ        -31.3600  -11.6200   65.5500 C.ar      5 PHE5        0.0000 
     33 CZ        -32.8000  -11.9100   67.0800 C.ar      5 PHE5        0.0000 
     34 CZ        -32.5800  -10.8900   66.0000 C.ar      5 PHE5        0.0000 
     35 CZ        -32.3700   -9.8700   64.9200 C.ar      5 PHE5        0.0000 
     36 CZ        -32.1500   -8.8500   63.8400 C.ar      5 PHE5        0.0000 
     37 CZ        -31.9400   -7.8300   62.7600 C.ar      5 PHE5        0.0000 
     38 CZ        -31.7500  -10.0700   66.9400 C.ar      5 PHE5        0.0000 
     39 CZ        -31.5300   -9.0500   65.8600 C.ar      5 PHE5        0.0000 
     40 CZ        -31.3200   -8.0300   64.7800 C.ar      5 PHE5        0.0000 
     41 CZ        -31.1000   -7.0100   63.6900 C.ar      5 PHE5        0.0000 
     42 CZ        -32.9700   -9.3300   67.3900 C.ar      5 PHE5        0.0000 
     43 CZ        -32.7600   -8.3100   66.3100 C.ar      5 PHE5        0.0000 
     44 CZ        -32.5400   -7.2900   65.2300 C.ar      5 PHE5        0.0000 
     45 CZ        -33.7700   -6.5600   65.6800 C.ar      5 PHE5        0.0000 
     46 CZ        -33.5500   -5.5400   64.6000 C.ar      5 PHE5        0.0000 
     47 CZ        -32.1300   -8.5100   68.3300 C.ar      5 PHE5        0.0000 
     48 CZ        -31.9200   -7.5000   67.2400 C.ar      5 PHE5        0.0000 
     49 CZ        -31.7000   -6.4800   66.1600 C.ar      5 PHE5        0.0000 
     50 CZ        -33.1400   -6.7600   67.7000 C.ar      5 PHE5        0.0000 
     51 CZ        -32.9300   -5.7400   66.6200 C.ar      5 PHE5        0.0000 
     52 CZ        -34.3700   -6.0200   68.1500 C.ar      5 PHE5        0.0000 
     53 CZ        -34.1600   -5.0000   67.0700 C.ar      5 PHE5        0.0000 
     54 CA        -36.5000  -10.0300   63.9500 C.3       6 GLY6        0.0000 
     55 CA        -32.4100  -13.4600   65.6900 C.3       6 GLY6        0.0000 
     56 CA        -33.6400  -12.7200   66.1400 C.3       6 GLY6        0.0000 
     57 CA        -34.4300   -9.9500   64.4300 C.3       6 GLY6        0.0000 
     58 CA        -34.2200   -8.9300   63.3500 C.3       6 GLY6        0.0000 
     59 CA        -35.6600   -9.2100   64.8800 C.3       6 GLY6        0.0000 
     60 CA        -33.3800   -8.1100   64.2900 C.3       6 GLY6        0.0000 
     61 CA        -33.1700   -7.0900   63.2100 C.3       6 GLY6        0.0000 
     62 CA        -34.8200   -8.3900   65.8200 C.3       6 GLY6        0.0000 
     63 CA        -34.6100   -7.3800   64.7400 C.3       6 GLY6        0.0000 
     64 CA        -34.3900   -6.3600   63.6600 C.3       6 GLY6        0.0000 
     65 CA        -34.7800   -4.8000   65.0500 C.3       6 GLY6        0.0000 
     66 CA        -34.5600   -3.7800   63.9700 C.3       6 GLY6        0.0000 
     67 DU        -33.8700  -14.0800   62.7300 H         7 CUB7        0.0000 
     68 DU        -34.2600  -12.5200   64.1200 H         7 CUB7        0.0000 
     69 DU        -33.4200  -11.7100   65.0600 H         7 CUB7        0.0000 
     70 DU        -34.6500  -10.9700   65.5100 H         7 CUB7        0.0000 
     71 DU        -33.8100  -10.1500   66.4500 H         7 CUB7        0.0000 
     72 DU        -33.5900   -9.1300   65.3700 H         7 CUB7        0.0000 
     73 DU        -33.9800   -7.5800   66.7600 H         7 CUB7        0.0000 
     74 DU        -35.2100   -6.8400   67.2100 H         7 CUB7        0.0000 
@<TRIPOS>BOND
@<TRIPOS>SUBSTRUCTURE
     1 SER1        1 GROUP   
     2 ALA2        8 GROUP   
     3 ASP3       15 GROUP   
     4 LYS4       20 GROUP   
     5 PHE5       23 GROUP   
     6 GLY6       54 GROUP   
     7 CUB7       67 GROUP   
@<TRIPOS>SET

