#    Name: 6ew3_1_S3C
#    Modification time : Fri May 22 19:39:38 2020

@<TRIPOS>MOLECULE
6ew3_1_S3C
   15    15     1     0     0
SMALL
NO_CHARGES


@<TRIPOS>ATOM
      1 C10       -28.7130    7.2420   58.8520           1 S3C506      0.0000 
      2 C15       -30.9040    8.3960   57.5760           1 S3C506      0.0000 
      3 CL1       -30.9590    6.5060   55.6800           1 S3C506      0.0000 
      4 C2        -30.3120    7.2390   57.0890           1 S3C506      0.0000 
      5 C3        -29.2130    6.6460   57.7040           1 S3C506      0.0000 
      6 C4        -28.5800    5.4510   57.1400           1 S3C506      0.0000 
      7 C5        -27.3440    5.4690   56.6270           1 S3C506      0.0000 
      8 C6        -26.7630    4.2240   56.0700           1 S3C506      0.0000 
      9 O7        -27.5260    3.1020   56.0710           1 S3C506      0.0000 
     10 O8        -25.6490    4.1170   55.5970           1 S3C506      0.0000 
     11 S9        -26.3410    6.9000   56.5580           1 S3C506      0.0000 
     12 CL2       -27.4100    6.5150   59.6420           1 S3C506      0.0000 
     13 C12       -29.2940    8.4070   59.3420           1 S3C506      0.0000 
     14 CL3       -28.6630    9.1640   60.7200           1 S3C506      0.0000 
     15 C14       -30.3840    8.9870   58.7130           1 S3C506      0.0000 
@<TRIPOS>BOND
     1    1    5 du   
     2    1   12 du   
     3    1   13 du   
     4    2    4 du   
     5    2   15 du   
     6    3    4 du   
     7    4    5 du   
     8    5    6 du   
     9    6    7 du   
    10    7    8 du   
    11    7   11 du   
    12    8    9 du   
    13    8   10 du   
    14   13   14 du   
    15   13   15 du   
@<TRIPOS>SUBSTRUCTURE
     1 S3C506      1 GROUP   
@<TRIPOS>SET

