#    Name: 6jln_3_PHO
#    Modification time : Fri May 22 19:32:02 2020

@<TRIPOS>MOLECULE
6jln_3_PHO
   64    69     1     0     0
SMALL
NO_CHARGES


@<TRIPOS>ATOM
      1 CHA         1.9270    0.5430    7.8230 C.2       1 PHO411      0.0000 
      2 CHB         2.5240    1.5140    3.0820 C.2       1 PHO411      0.0000 
      3 CHC         5.1020    5.5830    4.1910 C.2       1 PHO411      0.0000 
      4 CHD         4.5600    4.6720    9.0580 C.2       1 PHO411      0.0000 
      5 NA          2.5170    1.1550    5.5020 N.2       1 PHO411      0.0000 
      6 C1A         1.9000    0.3380    6.3460 C.2       1 PHO411      0.0000 
      7 C2A         1.1940   -0.8120    5.6790 C.3       1 PHO411      0.0000 
      8 C3A         1.6240   -0.6010    4.2360 C.3       1 PHO411      0.0000 
      9 C4A         2.2480    0.7670    4.3230 C.2       1 PHO411      0.0000 
     10 CMA         2.7000   -1.6180    3.8890 C.3       1 PHO411      0.0000 
     11 CAA        -0.3210   -0.7160    5.7660 C.3       1 PHO411      0.0000 
     12 CBA        -0.8500   -1.9910    5.1370 C.3       1 PHO411      0.0000 
     13 CGA        -2.3470   -1.9210    5.0820 C.2       1 PHO411      0.0000 
     14 O1A        -2.9350   -0.9090    5.3790 O.2       1 PHO411      0.0000 
     15 O2A        -3.0890   -3.0880    4.6760 O.3       1 PHO411      0.0000 
     16 NB          3.8010    3.4690    3.8980 N.pl3     1 PHO411      0.0000 
     17 C1B         3.2590    2.7890    2.8810 C.2       1 PHO411      0.0000 
     18 C2B         3.4870    3.4290    1.5500 C.2       1 PHO411      0.0000 
     19 C3B         4.2640    4.6400    1.9090 C.2       1 PHO411      0.0000 
     20 C4B         4.3890    4.5600    3.3900 C.2       1 PHO411      0.0000 
     21 CMB         3.0440    2.9820    0.1880 C.3       1 PHO411      0.0000 
     22 CAB         4.8240    5.7350    1.0700 C.2       1 PHO411      0.0000 
     23 CBB         4.0980    6.3330    0.1430 C.2       1 PHO411      0.0000 
     24 NC          4.6080    4.8320    6.5660 N.2       1 PHO411      0.0000 
     25 C1C         5.1480    5.6750    5.6690 C.2       1 PHO411      0.0000 
     26 C2C         5.9030    6.7940    6.2910 C.2       1 PHO411      0.0000 
     27 C3C         5.7590    6.5510    7.7460 C.2       1 PHO411      0.0000 
     28 C4C         4.9440    5.3170    7.7870 C.2       1 PHO411      0.0000 
     29 CMC         6.6260    7.9220    5.6050 C.3       1 PHO411      0.0000 
     30 CAC         6.3290    7.3640    8.8840 C.3       1 PHO411      0.0000 
     31 CBC         5.2390    7.9520    9.7460 C.3       1 PHO411      0.0000 
     32 ND          3.4060    2.7850    7.9170 N.pl3     1 PHO411      0.0000 
     33 C1D         3.7410    3.4360    9.0500 C.2       1 PHO411      0.0000 
     34 C2D         3.2580    2.8630   10.3340 C.2       1 PHO411      0.0000 
     35 C3D         2.5230    1.6910    9.7750 C.2       1 PHO411      0.0000 
     36 C4D         2.6560    1.7140    8.3970 C.2       1 PHO411      0.0000 
     37 CMD         3.3830    3.2370   11.7910 C.3       1 PHO411      0.0000 
     38 CAD         1.7100    0.5130   10.1830 C.2       1 PHO411      0.0000 
     39 OBD         1.3900    0.1990   11.3980 O.2       1 PHO411      0.0000 
     40 CBD         1.3010   -0.2000    8.9430 C.3       1 PHO411      0.0000 
     41 CGD         1.7080   -1.6360    8.9560 C.2       1 PHO411      0.0000 
     42 O1D         0.8580   -2.4690    9.2250 O.2       1 PHO411      0.0000 
     43 O2D         3.0840   -1.9980    8.6430 O.3       1 PHO411      0.0000 
     44 CED         3.5070   -3.3540    8.5550 C.3       1 PHO411      0.0000 
     45 C1         -4.4190   -2.9750    4.1990 C.3       1 PHO411      0.0000 
     46 C2         -4.3740   -2.8380    2.6930 C.2       1 PHO411      0.0000 
     47 C3         -4.0660   -3.8560    1.8830 C.2       1 PHO411      0.0000 
     48 C4         -3.7380   -5.2080    2.4610 C.3       1 PHO411      0.0000 
     49 C5         -4.0330   -3.6520    0.3800 C.3       1 PHO411      0.0000 
     50 C6         -4.8150   -2.4120   -0.0720 C.3       1 PHO411      0.0000 
     51 C7         -4.5470   -2.1430   -1.5560 C.3       1 PHO411      0.0000 
     52 C8         -5.3780   -1.0050   -2.1670 C.3       1 PHO411      0.0000 
     53 C9         -6.8790   -1.2630   -2.0860 C.3       1 PHO411      0.0000 
     54 C10        -4.9570   -0.8150   -3.6270 C.3       1 PHO411      0.0000 
     55 C11        -5.7960    0.2230   -4.3710 C.3       1 PHO411      0.0000 
     56 C12        -5.7180    1.6190   -3.7470 C.3       1 PHO411      0.0000 
     57 C13        -4.2760    2.1080   -3.6310 C.3       1 PHO411      0.0000 
     58 C14        -4.1570    3.2580   -2.6310 C.3       1 PHO411      0.0000 
     59 C15        -3.6870    2.4670   -4.9970 C.3       1 PHO411      0.0000 
     60 C16        -2.2430    2.9300   -4.8140 C.3       1 PHO411      0.0000 
     61 C17        -1.5290    3.1500   -6.1460 C.3       1 PHO411      0.0000 
     62 C18        -0.1210    3.7050   -5.9380 C.3       1 PHO411      0.0000 
     63 C19        -0.1680    5.1550   -5.4570 C.3       1 PHO411      0.0000 
     64 C20         0.6930    3.6120   -7.2240 C.3       1 PHO411      0.0000 
@<TRIPOS>BOND
     1    1    6 2    
     2    1   36 1    
     3    1   40 1    
     4    2    9 1    
     5    2   17 2    
     6    3   20 2    
     7    3   25 1    
     8    4   28 2    
     9    4   33 1    
    10    5    6 1    
    11    5    9 2    
    12    6    7 1    
    13    7    8 1    
    14    7   11 1    
    15    8    9 1    
    16    8   10 1    
    17   11   12 1    
    18   12   13 1    
    19   13   14 2    
    20   13   15 1    
    21   15   45 1    
    22   16   17 1    
    23   16   20 1    
    24   17   18 1    
    25   18   19 2    
    26   18   21 1    
    27   19   20 1    
    28   19   22 1    
    29   22   23 2    
    30   24   25 2    
    31   24   28 1    
    32   25   26 1    
    33   26   27 2    
    34   26   29 1    
    35   27   28 1    
    36   27   30 1    
    37   30   31 1    
    38   32   33 1    
    39   32   36 1    
    40   33   34 2    
    41   34   35 1    
    42   34   37 1    
    43   35   36 2    
    44   35   38 1    
    45   38   39 2    
    46   38   40 1    
    47   40   41 1    
    48   41   42 2    
    49   41   43 1    
    50   43   44 1    
    51   45   46 1    
    52   46   47 2    
    53   47   48 1    
    54   47   49 1    
    55   49   50 1    
    56   50   51 1    
    57   51   52 1    
    58   52   53 1    
    59   52   54 1    
    60   54   55 1    
    61   55   56 1    
    62   56   57 1    
    63   57   58 1    
    64   57   59 1    
    65   59   60 1    
    66   60   61 1    
    67   61   62 1    
    68   62   63 1    
    69   62   64 1    
@<TRIPOS>SUBSTRUCTURE
     1 PHO411      1 GROUP   
@<TRIPOS>SET

