#    Name: 6jln_1_PHO
#    Modification time : Fri May 22 19:31:40 2020

@<TRIPOS>MOLECULE
6jln_1_PHO
   64    69     1     0     0
SMALL
NO_CHARGES


@<TRIPOS>ATOM
      1 CHA        31.9280  -45.3730  -31.9550 C.2       1 PHO408      0.0000 
      2 CHB        29.3940  -41.7690  -34.0090 C.2       1 PHO408      0.0000 
      3 CHC        26.4510  -45.0300  -36.2830 C.2       1 PHO408      0.0000 
      4 CHD        28.9300  -48.7850  -34.1550 C.2       1 PHO408      0.0000 
      5 NA         30.4130  -43.7480  -33.0290 N.2       1 PHO408      0.0000 
      6 C1A        31.4720  -43.9950  -32.2770 C.2       1 PHO408      0.0000 
      7 C2A        32.1610  -42.7850  -31.7390 C.3       1 PHO408      0.0000 
      8 C3A        31.1440  -41.7230  -32.1220 C.3       1 PHO408      0.0000 
      9 C4A        30.2870  -42.4950  -33.0850 C.2       1 PHO408      0.0000 
     10 CMA        30.3010  -41.3410  -30.9130 C.3       1 PHO408      0.0000 
     11 CAA        33.4910  -42.5490  -32.4260 C.3       1 PHO408      0.0000 
     12 CBA        34.2370  -41.5320  -31.5910 C.3       1 PHO408      0.0000 
     13 CGA        35.4340  -40.9610  -32.2990 C.2       1 PHO408      0.0000 
     14 O1A        35.8460  -41.3880  -33.3650 O.2       1 PHO408      0.0000 
     15 O2A        36.1010  -39.8500  -31.6670 O.3       1 PHO408      0.0000 
     16 NB         28.0700  -43.6260  -35.0130 N.pl3     1 PHO408      0.0000 
     17 C1B        28.3500  -42.3070  -34.9090 C.2       1 PHO408      0.0000 
     18 C2B        27.5260  -41.4410  -35.7940 C.2       1 PHO408      0.0000 
     19 C3B        26.6530  -42.4330  -36.4740 C.2       1 PHO408      0.0000 
     20 C4B        27.0760  -43.7450  -35.9070 C.2       1 PHO408      0.0000 
     21 CMB        27.5680  -39.9480  -35.9660 C.3       1 PHO408      0.0000 
     22 CAB        25.5810  -42.2360  -37.4850 C.2       1 PHO408      0.0000 
     23 CBB        25.7140  -41.3400  -38.4480 C.2       1 PHO408      0.0000 
     24 NC         27.9860  -46.6940  -35.1210 N.2       1 PHO408      0.0000 
     25 C1C        26.9650  -46.3740  -35.9380 C.2       1 PHO408      0.0000 
     26 C2C        26.1990  -47.5440  -36.4240 C.2       1 PHO408      0.0000 
     27 C3C        26.8830  -48.6880  -35.7720 C.2       1 PHO408      0.0000 
     28 C4C        27.9670  -48.0330  -34.9930 C.2       1 PHO408      0.0000 
     29 CMC        25.0110  -47.5270  -37.3530 C.3       1 PHO408      0.0000 
     30 CAC        26.5690  -50.1610  -35.8830 C.3       1 PHO408      0.0000 
     31 CBC        27.6820  -50.7960  -36.6840 C.3       1 PHO408      0.0000 
     32 ND         30.0500  -46.7290  -33.3250 N.pl3     1 PHO408      0.0000 
     33 C1D        29.9880  -48.0780  -33.3950 C.2       1 PHO408      0.0000 
     34 C2D        31.0250  -48.8500  -32.6550 C.2       1 PHO408      0.0000 
     35 C3D        31.7800  -47.7020  -32.0900 C.2       1 PHO408      0.0000 
     36 C4D        31.1690  -46.5330  -32.5160 C.2       1 PHO408      0.0000 
     37 CMD        31.3470  -50.3180  -32.4350 C.3       1 PHO408      0.0000 
     38 CAD        32.9460  -47.3530  -31.2310 C.2       1 PHO408      0.0000 
     39 OBD        33.7280  -48.1960  -30.6820 O.2       1 PHO408      0.0000 
     40 CBD        33.0690  -45.8710  -31.1500 C.3       1 PHO408      0.0000 
     41 CGD        32.9890  -45.3650  -29.7360 C.2       1 PHO408      0.0000 
     42 O1D        33.9890  -44.9730  -29.1520 O.2       1 PHO408      0.0000 
     43 O2D        31.7220  -45.3370  -29.0360 O.3       1 PHO408      0.0000 
     44 CED        31.6840  -44.9600  -27.6510 C.3       1 PHO408      0.0000 
     45 C1         37.0860  -39.1100  -32.3620 C.3       1 PHO408      0.0000 
     46 C2         36.4590  -37.8480  -32.9110 C.2       1 PHO408      0.0000 
     47 C3         36.2660  -36.7660  -32.1470 C.2       1 PHO408      0.0000 
     48 C4         36.6430  -36.8070  -30.6980 C.3       1 PHO408      0.0000 
     49 C5         35.6450  -35.5110  -32.7180 C.3       1 PHO408      0.0000 
     50 C6         35.7130  -35.4600  -34.2430 C.3       1 PHO408      0.0000 
     51 C7         35.0020  -34.2070  -34.7570 C.3       1 PHO408      0.0000 
     52 C8         35.2180  -33.9890  -36.2550 C.3       1 PHO408      0.0000 
     53 C9         36.6440  -33.5490  -36.5480 C.3       1 PHO408      0.0000 
     54 C10        34.1940  -32.9860  -36.7720 C.3       1 PHO408      0.0000 
     55 C11        34.4070  -32.5810  -38.2350 C.3       1 PHO408      0.0000 
     56 C12        34.2880  -33.7660  -39.1970 C.3       1 PHO408      0.0000 
     57 C13        32.9410  -34.4720  -39.0680 C.3       1 PHO408      0.0000 
     58 C14        32.9190  -35.8160  -39.7970 C.3       1 PHO408      0.0000 
     59 C15        31.8460  -33.5580  -39.6040 C.3       1 PHO408      0.0000 
     60 C16        30.4920  -34.1820  -39.2960 C.3       1 PHO408      0.0000 
     61 C17        29.3410  -33.2970  -39.7500 C.3       1 PHO408      0.0000 
     62 C18        28.0340  -34.0600  -39.6000 C.3       1 PHO408      0.0000 
     63 C19        27.9710  -35.1750  -40.6450 C.3       1 PHO408      0.0000 
     64 C20        26.8350  -33.1270  -39.7010 C.3       1 PHO408      0.0000 
@<TRIPOS>BOND
     1    1    6 2    
     2    1   36 1    
     3    1   40 1    
     4    2    9 1    
     5    2   17 2    
     6    3   20 2    
     7    3   25 1    
     8    4   28 2    
     9    4   33 1    
    10    5    6 1    
    11    5    9 2    
    12    6    7 1    
    13    7    8 1    
    14    7   11 1    
    15    8    9 1    
    16    8   10 1    
    17   11   12 1    
    18   12   13 1    
    19   13   14 2    
    20   13   15 1    
    21   15   45 1    
    22   16   17 1    
    23   16   20 1    
    24   17   18 1    
    25   18   19 2    
    26   18   21 1    
    27   19   20 1    
    28   19   22 1    
    29   22   23 2    
    30   24   25 2    
    31   24   28 1    
    32   25   26 1    
    33   26   27 2    
    34   26   29 1    
    35   27   28 1    
    36   27   30 1    
    37   30   31 1    
    38   32   33 1    
    39   32   36 1    
    40   33   34 2    
    41   34   35 1    
    42   34   37 1    
    43   35   36 2    
    44   35   38 1    
    45   38   39 2    
    46   38   40 1    
    47   40   41 1    
    48   41   42 2    
    49   41   43 1    
    50   43   44 1    
    51   45   46 1    
    52   46   47 2    
    53   47   48 1    
    54   47   49 1    
    55   49   50 1    
    56   50   51 1    
    57   51   52 1    
    58   52   53 1    
    59   52   54 1    
    60   54   55 1    
    61   55   56 1    
    62   56   57 1    
    63   57   58 1    
    64   57   59 1    
    65   59   60 1    
    66   60   61 1    
    67   61   62 1    
    68   62   63 1    
    69   62   64 1    
@<TRIPOS>SUBSTRUCTURE
     1 PHO408      1 GROUP   
@<TRIPOS>SET

