#    Name: 6jln_4_PHO
#    Modification time : Fri May 22 19:32:12 2020

@<TRIPOS>MOLECULE
6jln_4_PHO
   64    69     1     0     0
SMALL
NO_CHARGES


@<TRIPOS>ATOM
      1 CHA        24.7850   11.3330   10.7790 C.2       1 PHO402      0.0000 
      2 CHB        22.6070   15.2440    8.8400 C.2       1 PHO402      0.0000 
      3 CHC        19.9180   12.3190    5.9220 C.2       1 PHO402      0.0000 
      4 CHD        22.0690    8.2700    7.8640 C.2       1 PHO402      0.0000 
      5 NA         23.5630   13.1260    9.6000 N.2       1 PHO402      0.0000 
      6 C1A        24.4590   12.7570   10.5070 C.2       1 PHO402      0.0000 
      7 C2A        25.1180   13.8820   11.2450 C.3       1 PHO402      0.0000 
      8 C3A        24.2380   15.0350   10.7840 C.3       1 PHO402      0.0000 
      9 C4A        23.4460   14.3830    9.6880 C.2       1 PHO402      0.0000 
     10 CMA        23.2680   15.4780   11.8730 C.3       1 PHO402      0.0000 
     11 CAA        26.5530   14.0690   10.7640 C.3       1 PHO402      0.0000 
     12 CBA        27.1290   15.3130   11.4170 C.3       1 PHO402      0.0000 
     13 CGA        28.4650   15.6730   10.8080 C.2       1 PHO402      0.0000 
     14 O1A        28.8780   15.1410    9.7900 O.2       1 PHO402      0.0000 
     15 O2A        29.2810   16.6960   11.4390 O.3       1 PHO402      0.0000 
     16 NB         21.3910   13.5660    7.4970 N.pl3     1 PHO402      0.0000 
     17 C1B        21.6300   14.8490    7.8030 C.2       1 PHO402      0.0000 
     18 C2B        20.8290   15.8240    7.0070 C.2       1 PHO402      0.0000 
     19 C3B        20.0300   14.9210    6.1340 C.2       1 PHO402      0.0000 
     20 C4B        20.4620   13.5540    6.5300 C.2       1 PHO402      0.0000 
     21 CMB        20.8450   17.3290    7.0910 C.3       1 PHO402      0.0000 
     22 CAB        19.0170   15.2170    5.0920 C.2       1 PHO402      0.0000 
     23 CBB        19.0520   16.3440    4.3980 C.2       1 PHO402      0.0000 
     24 NC         21.2700   10.4940    7.0820 N.2       1 PHO402      0.0000 
     25 C1C        20.3370   10.9320    6.2080 C.2       1 PHO402      0.0000 
     26 C2C        19.5860    9.8410    5.5410 C.2       1 PHO402      0.0000 
     27 C3C        20.1790    8.6020    6.1160 C.2       1 PHO402      0.0000 
     28 C4C        21.1980    9.1430    7.0570 C.2       1 PHO402      0.0000 
     29 CMC        18.4950   10.0010    4.5220 C.3       1 PHO402      0.0000 
     30 CAC        19.8260    7.1500    5.8430 C.3       1 PHO402      0.0000 
     31 CBC        21.0060    6.3370    5.3470 C.3       1 PHO402      0.0000 
     32 ND         23.1150   10.2130    8.9980 N.pl3     1 PHO402      0.0000 
     33 C1D        23.0230    8.8810    8.8060 C.2       1 PHO402      0.0000 
     34 C2D        23.8510    7.9970    9.6650 C.2       1 PHO402      0.0000 
     35 C3D        24.5460    9.0500   10.4320 C.2       1 PHO402      0.0000 
     36 C4D        24.0790   10.2770   10.0010 C.2       1 PHO402      0.0000 
     37 CMD        24.0640    6.5140    9.8120 C.3       1 PHO402      0.0000 
     38 CAD        25.5650    9.2350   11.4930 C.2       1 PHO402      0.0000 
     39 OBD        26.1890    8.2810   12.0820 O.2       1 PHO402      0.0000 
     40 CBD        25.7260   10.6870   11.7300 C.3       1 PHO402      0.0000 
     41 CGD        25.2750   11.0020   13.1200 C.2       1 PHO402      0.0000 
     42 O1D        26.0670   11.0400   14.0460 O.2       1 PHO402      0.0000 
     43 O2D        23.8750   11.2650   13.3920 O.3       1 PHO402      0.0000 
     44 CED        23.4960   11.4670   14.7510 C.3       1 PHO402      0.0000 
     45 C1         30.4250   17.1650   10.7450 C.3       1 PHO402      0.0000 
     46 C2         30.0100   18.3450    9.9020 C.2       1 PHO402      0.0000 
     47 C3         30.4330   18.3770    8.6360 C.2       1 PHO402      0.0000 
     48 C4         31.2840   17.2480    8.1400 C.3       1 PHO402      0.0000 
     49 C5         30.0630   19.5250    7.7230 C.3       1 PHO402      0.0000 
     50 C6         29.3560   19.0020    6.4760 C.3       1 PHO402      0.0000 
     51 C7         29.0930   20.1350    5.4870 C.3       1 PHO402      0.0000 
     52 C8         28.0210   19.7930    4.4590 C.3       1 PHO402      0.0000 
     53 C9         28.3440   18.4820    3.7510 C.3       1 PHO402      0.0000 
     54 C10        27.9130   20.9310    3.4490 C.3       1 PHO402      0.0000 
     55 C11        27.6510   22.2760    4.1170 C.3       1 PHO402      0.0000 
     56 C12        26.1860   22.4400    4.5030 C.3       1 PHO402      0.0000 
     57 C13        25.9150   23.8030    5.1300 C.3       1 PHO402      0.0000 
     58 C14        26.7120   23.9570    6.4200 C.3       1 PHO402      0.0000 
     59 C15        24.4200   23.9520    5.4030 C.3       1 PHO402      0.0000 
     60 C16        23.6080   23.9530    4.1110 C.3       1 PHO402      0.0000 
     61 C17        22.1150   24.0860    4.3920 C.3       1 PHO402      0.0000 
     62 C18        21.3220   24.3100    3.1020 C.3       1 PHO402      0.0000 
     63 C19        19.8470   24.5750    3.3820 C.3       1 PHO402      0.0000 
     64 C20        21.4630   23.1420    2.1260 C.3       1 PHO402      0.0000 
@<TRIPOS>BOND
     1    1    6 2    
     2    1   36 1    
     3    1   40 1    
     4    2    9 1    
     5    2   17 2    
     6    3   20 2    
     7    3   25 1    
     8    4   28 2    
     9    4   33 1    
    10    5    6 1    
    11    5    9 2    
    12    6    7 1    
    13    7    8 1    
    14    7   11 1    
    15    8    9 1    
    16    8   10 1    
    17   11   12 1    
    18   12   13 1    
    19   13   14 2    
    20   13   15 1    
    21   15   45 1    
    22   16   17 1    
    23   16   20 1    
    24   17   18 1    
    25   18   19 2    
    26   18   21 1    
    27   19   20 1    
    28   19   22 1    
    29   22   23 2    
    30   24   25 2    
    31   24   28 1    
    32   25   26 1    
    33   26   27 2    
    34   26   29 1    
    35   27   28 1    
    36   27   30 1    
    37   30   31 1    
    38   32   33 1    
    39   32   36 1    
    40   33   34 2    
    41   34   35 1    
    42   34   37 1    
    43   35   36 2    
    44   35   38 1    
    45   38   39 2    
    46   38   40 1    
    47   40   41 1    
    48   41   42 2    
    49   41   43 1    
    50   43   44 1    
    51   45   46 1    
    52   46   47 2    
    53   47   48 1    
    54   47   49 1    
    55   49   50 1    
    56   50   51 1    
    57   51   52 1    
    58   52   53 1    
    59   52   54 1    
    60   54   55 1    
    61   55   56 1    
    62   56   57 1    
    63   57   58 1    
    64   57   59 1    
    65   59   60 1    
    66   60   61 1    
    67   61   62 1    
    68   62   63 1    
    69   62   64 1    
@<TRIPOS>SUBSTRUCTURE
     1 PHO402      1 GROUP   
@<TRIPOS>SET

