#    Name: 6jln_2_PHO
#    Modification time : Fri May 22 19:31:51 2020

@<TRIPOS>MOLECULE
6jln_2_PHO
   64    69     1     0     0
SMALL
NO_CHARGES


@<TRIPOS>ATOM
      1 CHA         9.9480  -58.1070  -32.1780 C.2       1 PHO401      0.0000 
      2 CHB        10.2400  -57.4990  -37.0190 C.2       1 PHO401      0.0000 
      3 CHC        11.9800  -52.9350  -36.4110 C.2       1 PHO401      0.0000 
      4 CHD        12.1240  -53.6420  -31.4560 C.2       1 PHO401      0.0000 
      5 NA         10.2180  -57.5350  -34.5810 N.2       1 PHO401      0.0000 
      6 C1A         9.8130  -58.3810  -33.6390 C.2       1 PHO401      0.0000 
      7 C2A         9.2020  -59.6480  -34.1500 C.3       1 PHO401      0.0000 
      8 C3A         9.6400  -59.5570  -35.6050 C.3       1 PHO401      0.0000 
      9 C4A        10.0550  -58.1110  -35.6920 C.2       1 PHO401      0.0000 
     10 CMA        10.8520  -60.4490  -35.8570 C.3       1 PHO401      0.0000 
     11 CAA         7.6890  -59.5540  -34.0170 C.3       1 PHO401      0.0000 
     12 CBA         7.0660  -60.9150  -34.2700 C.3       1 PHO401      0.0000 
     13 CGA         5.5670  -60.7980  -34.3480 C.2       1 PHO401      0.0000 
     14 O1A         4.9840  -59.7880  -33.9940 O.2       1 PHO401      0.0000 
     15 O2A         4.7940  -61.9090  -34.8630 O.3       1 PHO401      0.0000 
     16 NB         11.0980  -55.2500  -36.4740 N.pl3     1 PHO401      0.0000 
     17 C1B        10.7310  -56.1500  -37.3910 C.2       1 PHO401      0.0000 
     18 C2B        10.8690  -55.6640  -38.7970 C.2       1 PHO401      0.0000 
     19 C3B        11.3980  -54.2910  -38.5960 C.2       1 PHO401      0.0000 
     20 C4B        11.4930  -54.1470  -37.1150 C.2       1 PHO401      0.0000 
     21 CMB        10.5620  -56.3850  -40.0840 C.3       1 PHO401      0.0000 
     22 CAB        11.7600  -53.2530  -39.5920 C.2       1 PHO401      0.0000 
     23 CBB        11.1040  -53.1400  -40.7340 C.2       1 PHO401      0.0000 
     24 NC         11.8530  -53.6220  -33.9540 N.2       1 PHO401      0.0000 
     25 C1C        12.2010  -52.7830  -34.9550 C.2       1 PHO401      0.0000 
     26 C2C        12.9040  -51.5640  -34.4760 C.2       1 PHO401      0.0000 
     27 C3C        12.9730  -51.7510  -33.0000 C.2       1 PHO401      0.0000 
     28 C4C        12.2930  -53.0550  -32.8020 C.2       1 PHO401      0.0000 
     29 CMC        13.4260  -50.4190  -35.3030 C.3       1 PHO401      0.0000 
     30 CAC        13.5860  -50.8430  -31.9490 C.3       1 PHO401      0.0000 
     31 CBC        12.5100  -50.1970  -31.0960 C.3       1 PHO401      0.0000 
     32 ND         11.1120  -55.6990  -32.3510 N.pl3     1 PHO401      0.0000 
     33 C1D        11.4670  -54.9530  -31.2930 C.2       1 PHO401      0.0000 
     34 C2D        11.2110  -55.5110  -29.9390 C.2       1 PHO401      0.0000 
     35 C3D        10.5930  -56.7920  -30.3640 C.2       1 PHO401      0.0000 
     36 C4D        10.5690  -56.8220  -31.7430 C.2       1 PHO401      0.0000 
     37 CMD        11.4370  -55.0630  -28.5130 C.3       1 PHO401      0.0000 
     38 CAD         9.9930  -58.0480  -29.8370 C.2       1 PHO401      0.0000 
     39 OBD         9.8660  -58.3210  -28.5890 O.2       1 PHO401      0.0000 
     40 CBD         9.5820  -58.9040  -30.9810 C.3       1 PHO401      0.0000 
     41 CGD        10.4410  -60.1290  -31.0120 C.2       1 PHO401      0.0000 
     42 O1D        10.1310  -61.1650  -30.4280 O.2       1 PHO401      0.0000 
     43 O2D        11.6890  -60.0530  -31.7540 O.3       1 PHO401      0.0000 
     44 CED        12.7050  -61.0420  -31.5890 C.3       1 PHO401      0.0000 
     45 C1          3.4270  -61.6710  -35.1410 C.3       1 PHO401      0.0000 
     46 C2          3.3320  -61.3030  -36.5970 C.2       1 PHO401      0.0000 
     47 C3          2.3730  -60.4540  -36.9700 C.2       1 PHO401      0.0000 
     48 C4          1.4420  -59.9030  -35.9360 C.3       1 PHO401      0.0000 
     49 C5          2.2290  -60.0430  -38.4140 C.3       1 PHO401      0.0000 
     50 C6          2.3960  -58.5300  -38.5220 C.3       1 PHO401      0.0000 
     51 C7          1.8980  -58.0350  -39.8760 C.3       1 PHO401      0.0000 
     52 C8          2.4080  -56.6300  -40.1790 C.3       1 PHO401      0.0000 
     53 C9          2.0210  -55.6750  -39.0540 C.3       1 PHO401      0.0000 
     54 C10         1.8760  -56.1660  -41.5360 C.3       1 PHO401      0.0000 
     55 C11         2.0820  -57.2130  -42.6330 C.3       1 PHO401      0.0000 
     56 C12         3.5540  -57.3770  -43.0080 C.3       1 PHO401      0.0000 
     57 C13         3.7060  -58.3570  -44.1710 C.3       1 PHO401      0.0000 
     58 C14         3.3700  -59.7780  -43.7270 C.3       1 PHO401      0.0000 
     59 C15         5.1200  -58.3010  -44.7520 C.3       1 PHO401      0.0000 
     60 C16         5.3200  -57.1410  -45.7200 C.3       1 PHO401      0.0000 
     61 C17         6.7870  -56.9650  -46.1150 C.3       1 PHO401      0.0000 
     62 C18         6.9410  -55.7870  -47.0780 C.3       1 PHO401      0.0000 
     63 C19         8.2690  -55.8220  -47.8270 C.3       1 PHO401      0.0000 
     64 C20         6.7740  -54.4580  -46.3490 C.3       1 PHO401      0.0000 
@<TRIPOS>BOND
     1    1    6 2    
     2    1   36 1    
     3    1   40 1    
     4    2    9 1    
     5    2   17 2    
     6    3   20 2    
     7    3   25 1    
     8    4   28 2    
     9    4   33 1    
    10    5    6 1    
    11    5    9 2    
    12    6    7 1    
    13    7    8 1    
    14    7   11 1    
    15    8    9 1    
    16    8   10 1    
    17   11   12 1    
    18   12   13 1    
    19   13   14 2    
    20   13   15 1    
    21   15   45 1    
    22   16   17 1    
    23   16   20 1    
    24   17   18 1    
    25   18   19 2    
    26   18   21 1    
    27   19   20 1    
    28   19   22 1    
    29   22   23 2    
    30   24   25 2    
    31   24   28 1    
    32   25   26 1    
    33   26   27 2    
    34   26   29 1    
    35   27   28 1    
    36   27   30 1    
    37   30   31 1    
    38   32   33 1    
    39   32   36 1    
    40   33   34 2    
    41   34   35 1    
    42   34   37 1    
    43   35   36 2    
    44   35   38 1    
    45   38   39 2    
    46   38   40 1    
    47   40   41 1    
    48   41   42 2    
    49   41   43 1    
    50   43   44 1    
    51   45   46 1    
    52   46   47 2    
    53   47   48 1    
    54   47   49 1    
    55   49   50 1    
    56   50   51 1    
    57   51   52 1    
    58   52   53 1    
    59   52   54 1    
    60   54   55 1    
    61   55   56 1    
    62   56   57 1    
    63   57   58 1    
    64   57   59 1    
    65   59   60 1    
    66   60   61 1    
    67   61   62 1    
    68   62   63 1    
    69   62   64 1    
@<TRIPOS>SUBSTRUCTURE
     1 PHO401      1 GROUP   
@<TRIPOS>SET

