#    Name: 5wwj_1_LEU_TYR_LYS_MET_THR_PHE
#    Modification time : Fri May 22 19:12:53 2020

@<TRIPOS>MOLECULE
5wwj_1_LEU_TYR_LYS_MET_THR_PHE
   55    55     6     0     0
SMALL
NO_CHARGES


@<TRIPOS>ATOM
      1 N          84.4520   -9.0850    8.5890 N.4       1 LEU1        0.0000 
      2 CA         83.5290   -8.0210    8.2130 C.3       1 LEU1        0.0000 
      3 C          84.0260   -6.6680    8.7010 C.2       1 LEU1        0.0000 
      4 O          84.3320   -6.5000    9.8910 O.2       1 LEU1        0.0000 
      5 CB         82.1300   -8.2710    8.7910 C.3       1 LEU1        0.0000 
      6 CG         81.1490   -9.1840    8.0560 C.3       1 LEU1        0.0000 
      7 CD1        81.1420  -10.5390    8.7230 C.3       1 LEU1        0.0000 
      8 CD2        79.7510   -8.5680    8.0510 C.3       1 LEU1        0.0000 
      9 N          84.0840   -5.7110    7.7750 N.am      2 TYR2        0.0000 
     10 CA         84.4870   -4.3380    8.0670 C.3       2 TYR2        0.0000 
     11 C          83.5300   -3.6280    9.0430 C.2       2 TYR2        0.0000 
     12 O          82.5120   -4.1890    9.4680 O.2       2 TYR2        0.0000 
     13 CB         84.6060   -3.5430    6.7630 C.3       2 TYR2        0.0000 
     14 CG         85.7570   -2.5740    6.7370 C.ar      2 TYR2        0.0000 
     15 CD1        87.0520   -3.0130    6.4930 C.ar      2 TYR2        0.0000 
     16 CD2        85.5520   -1.2180    6.9640 C.ar      2 TYR2        0.0000 
     17 CE1        88.1140   -2.1210    6.4750 C.ar      2 TYR2        0.0000 
     18 CE2        86.6010   -0.3220    6.9470 C.ar      2 TYR2        0.0000 
     19 CZ         87.8780   -0.7750    6.7020 C.ar      2 TYR2        0.0000 
     20 OH         88.9230    0.1190    6.6820 O.3       2 TYR2        0.0000 
     21 N          83.8610   -2.3840    9.3790 N.am      3 LYS3        0.0000 
     22 CA         83.2150   -1.6720   10.4860 C.3       3 LYS3        0.0000 
     23 C          82.1610   -0.6430   10.0440 C.2       3 LYS3        0.0000 
     24 O          82.3770    0.1360    9.1110 O.2       3 LYS3        0.0000 
     25 CB         84.2910   -1.0090   11.3490 C.3       3 LYS3        0.0000 
     26 CG         83.7800   -0.1280   12.4600 C.3       3 LYS3        0.0000 
     27 CD         84.9440    0.6520   13.0540 C.3       3 LYS3        0.0000 
     28 CE         85.2710    1.9050   12.2310 C.3       3 LYS3        0.0000 
     29 NZ         84.3670    3.0580   12.5730 N.4       3 LYS3        0.0000 
     30 N          81.8800    8.9640   12.7320 N.4       4 MET9        0.0000 
     31 CA         82.3110   10.1280   13.4990 C.3       4 MET9        0.0000 
     32 C          83.8210   10.3930   13.3940 C.2       4 MET9        0.0000 
     33 O          84.6260    9.4540   13.4010 O.2       4 MET9        0.0000 
     34 CB         81.8990    9.9860   14.9600 C.3       4 MET9        0.0000 
     35 CG         82.5180   11.0390   15.8650 C.3       4 MET9        0.0000 
     36 SD         81.4770   11.5460   17.2490 S.3       4 MET9        0.0000 
     37 CE         80.7190   13.0470   16.6100 C.3       4 MET9        0.0000 
     38 N          84.1850   11.6780   13.3120 N.am      5 THR10       0.0000 
     39 CA         85.5620   12.1250   13.0780 C.3       5 THR10       0.0000 
     40 C          86.2600   12.6830   14.3290 C.2       5 THR10       0.0000 
     41 O          85.6560   12.7730   15.4040 O.2       5 THR10       0.0000 
     42 CB         85.6050   13.2180   11.9800 C.3       5 THR10       0.0000 
     43 OG1        85.0500   14.4390   12.4850 O.3       5 THR10       0.0000 
     44 CG2        84.8250   12.7780   10.7480 C.3       5 THR10       0.0000 
     45 N          87.5300   13.0630   14.1710 N.am      6 PHE11       0.0000 
     46 CA         88.3300   13.6390   15.2580 C.3       6 PHE11       0.0000 
     47 C          87.7040   14.9390   15.7970 C.2       6 PHE11       0.0000 
     48 O          88.1690   15.5080   16.8000 O.2       6 PHE11       0.0000 
     49 CB         89.7730   13.9220   14.7990 C.3       6 PHE11       0.0000 
     50 CG         90.6170   12.6850   14.5570 C.ar      6 PHE11       0.0000 
     51 CD1        90.1460   11.4080   14.8610 C.ar      6 PHE11       0.0000 
     52 CD2        91.9070   12.8100   14.0320 C.ar      6 PHE11       0.0000 
     53 CE1        90.9410   10.2850   14.6380 C.ar      6 PHE11       0.0000 
     54 CE2        92.7030   11.6970   13.8080 C.ar      6 PHE11       0.0000 
     55 CZ         92.2200   10.4310   14.1150 C.ar      6 PHE11       0.0000 
@<TRIPOS>BOND
     1    1    2 1    
     2    2    3 1    
     3    2    5 1    
     4    3    4 2    
     5    3    9 am   
     6    5    6 1    
     7    6    7 1    
     8    6    8 1    
     9    9   10 1    
    10   10   11 1    
    11   10   13 1    
    12   11   12 2    
    13   11   21 am   
    14   13   14 1    
    15   14   15 ar   
    16   14   16 ar   
    17   15   17 ar   
    18   16   18 ar   
    19   17   19 ar   
    20   18   19 ar   
    21   19   20 1    
    22   21   22 1    
    23   22   23 1    
    24   22   25 1    
    25   23   24 2    
    26   25   26 1    
    27   26   27 1    
    28   27   28 1    
    29   28   29 1    
    30   30   31 1    
    31   31   32 1    
    32   31   34 1    
    33   32   33 2    
    34   32   38 am   
    35   34   35 1    
    36   35   36 1    
    37   36   37 1    
    38   38   39 1    
    39   39   40 1    
    40   39   42 1    
    41   40   41 2    
    42   40   45 am   
    43   42   43 1    
    44   42   44 1    
    45   45   46 1    
    46   46   47 1    
    47   46   49 1    
    48   47   48 2    
    49   49   50 1    
    50   50   51 ar   
    51   50   52 ar   
    52   51   53 ar   
    53   52   54 ar   
    54   53   55 ar   
    55   54   55 ar   
@<TRIPOS>SUBSTRUCTURE
     1 LEU1        1 RESIDUE 
     2 TYR2        9 RESIDUE 
     3 LYS3       21 RESIDUE 
     4 MET9       30 RESIDUE 
     5 THR10      38 RESIDUE 
     6 PHE11      45 RESIDUE 
@<TRIPOS>SET

