#    Name: 5wwj_2_LEU_TYR_LYS_LYS_MET_THR_PHE_CAVITY_N1_6
#    Modification time : Fri May 22 19:13:02 2020

@<TRIPOS>MOLECULE
5wwj_2_LEU_TYR_LYS_LYS_MET_THR_PHE_CAVITY_N1_6
  119     0     7     0     0
SMALL
NO_CHARGES


@<TRIPOS>ATOM
      1 OG         74.3200  -16.7100   45.4700 O.3       1 SER1        0.0000 
      2 OG         74.8900  -16.2200   46.7700 O.3       1 SER1        0.0000 
      3 OG         75.6400  -15.1500   46.0400 O.3       1 SER1        0.0000 
      4 OG         75.4600  -15.7400   48.0700 O.3       1 SER1        0.0000 
      5 OG         76.2100  -14.6600   47.3400 O.3       1 SER1        0.0000 
      6 OG         76.9600  -13.5900   46.6100 O.3       1 SER1        0.0000 
      7 OG         75.6100  -13.2500   48.8000 O.3       1 SER1        0.0000 
      8 OG         76.7800  -14.1800   48.6400 O.3       1 SER1        0.0000 
      9 OG         76.3600  -12.1800   48.0700 O.3       1 SER1        0.0000 
     10 OG         77.5300  -13.1000   47.9000 O.3       1 SER1        0.0000 
     11 OG         76.5100   -9.6900   48.8000 O.3       1 SER1        0.0000 
     12 OG         77.6800  -10.6200   48.6400 O.3       1 SER1        0.0000 
     13 OG         80.6800   -6.3200   45.7100 O.3       1 SER1        0.0000 
     14 OG         77.0800   -9.2000   50.1000 O.3       1 SER1        0.0000 
     15 OG         79.3300   -5.9800   47.9100 O.3       1 SER1        0.0000 
     16 OG         82.4200   -6.7600   46.8400 O.3       1 SER1        0.0000 
     17 OG         78.5600   -5.1500   51.4000 O.3       1 SER1        0.0000 
     18 OG         78.3800   -5.7400   53.4300 O.3       1 SER1        0.0000 
     19 OG         77.9600   -3.7400   52.8600 O.3       1 SER1        0.0000 
     20 N          73.5400  -15.8800   48.9600 N.am      2 ALA2        0.0000 
     21 N          74.8600  -14.3200   49.5300 N.am      2 ALA2        0.0000 
     22 N          76.0300  -15.2500   49.3700 N.am      2 ALA2        0.0000 
     23 O          79.3600   -7.8800   45.1400 O.2       2 ALA2        0.0000 
     24 N          76.4300   -4.6100   46.9400 N.am      2 ALA2        0.0000 
     25 N          77.6000   -5.5400   46.7700 N.am      2 ALA2        0.0000 
     26 N          78.7600   -6.4700   46.6100 N.am      2 ALA2        0.0000 
     27 N          75.8900   -6.3700   53.0300 N.am      2 ALA2        0.0000 
     28 N          76.6400   -5.3000   52.3000 N.am      2 ALA2        0.0000 
     29 N          77.8100   -6.2300   52.1300 N.am      2 ALA2        0.0000 
     30 N          77.3900   -4.2300   51.5700 N.am      2 ALA2        0.0000 
     31 OD1        73.3000  -13.3000   46.3700 O.co2     3 ASP3        0.0000 
     32 OD1        73.8700  -12.8100   47.6700 O.co2     3 ASP3        0.0000 
     33 OD1        75.1900  -11.2500   48.2300 O.co2     3 ASP3        0.0000 
     34 OD1        75.9400  -10.1700   47.5000 O.co2     3 ASP3        0.0000 
     35 NZ         72.7300  -13.7800   45.0700 N.4       4 LYS4        0.0000 
     36 NZ         73.9000  -14.7100   44.9000 N.4       4 LYS4        0.0000 
     37 NZ         74.4700  -14.2200   46.2000 N.4       4 LYS4        0.0000 
     38 NZ         75.0400  -13.7400   47.5000 N.4       4 LYS4        0.0000 
     39 NZ         75.7900  -12.6600   46.7700 N.4       4 LYS4        0.0000 
     40 NZ         78.0400   -9.4400   44.5800 N.4       4 LYS4        0.0000 
     41 NZ         79.2100  -10.3700   44.4100 N.4       4 LYS4        0.0000 
     42 NZ         77.1100  -11.1000   47.3400 N.4       4 LYS4        0.0000 
     43 NZ         77.8600  -10.0300   46.6100 N.4       4 LYS4        0.0000 
     44 NZ         78.6100   -8.9600   45.8700 N.4       4 LYS4        0.0000 
     45 CZ         73.1500  -15.7800   45.6300 C.ar      5 PHE5        0.0000 
     46 CZ         78.2800  -12.0300   47.1700 C.ar      5 PHE5        0.0000 
     47 CZ         79.0300  -10.9600   46.4400 C.ar      5 PHE5        0.0000 
     48 CZ         79.7800   -9.8800   45.7100 C.ar      5 PHE5        0.0000 
     49 CZ         75.3500   -8.7600   48.9700 C.ar      5 PHE5        0.0000 
     50 CZ         78.8500  -11.5400   48.4700 C.ar      5 PHE5        0.0000 
     51 CZ         77.2600   -8.6100   48.0700 C.ar      5 PHE5        0.0000 
     52 CZ         78.4300   -9.5400   47.9100 C.ar      5 PHE5        0.0000 
     53 CZ         79.6000  -10.4700   47.7400 C.ar      5 PHE5        0.0000 
     54 CZ         78.0100   -7.5400   47.3400 C.ar      5 PHE5        0.0000 
     55 CZ         79.1800   -8.4700   47.1700 C.ar      5 PHE5        0.0000 
     56 CZ         80.3500   -9.4000   47.0100 C.ar      5 PHE5        0.0000 
     57 CZ         79.9300   -7.3900   46.4400 C.ar      5 PHE5        0.0000 
     58 CZ         81.1000   -8.3200   46.2800 C.ar      5 PHE5        0.0000 
     59 CZ         82.2600   -9.2500   46.1100 C.ar      5 PHE5        0.0000 
     60 CZ         74.7500   -7.3500   50.4300 C.ar      5 PHE5        0.0000 
     61 CZ         75.9200   -8.2700   50.2700 C.ar      5 PHE5        0.0000 
     62 CZ         77.8300   -8.1300   49.3700 C.ar      5 PHE5        0.0000 
     63 CZ         78.5800   -7.0500   48.6400 C.ar      5 PHE5        0.0000 
     64 CZ         80.5000   -6.9100   47.7400 C.ar      5 PHE5        0.0000 
     65 CZ         81.6700   -7.8400   47.5800 C.ar      5 PHE5        0.0000 
     66 CZ         75.3200   -6.8600   51.7300 C.ar      5 PHE5        0.0000 
     67 CZ         76.4900   -7.7900   51.5600 C.ar      5 PHE5        0.0000 
     68 CZ         77.6500   -8.7100   51.4000 C.ar      5 PHE5        0.0000 
     69 CZ         78.4000   -7.6400   50.6700 C.ar      5 PHE5        0.0000 
     70 CZ         79.1500   -6.5700   49.9400 C.ar      5 PHE5        0.0000 
     71 CZ         79.9000   -5.4900   49.2100 C.ar      5 PHE5        0.0000 
     72 CZ         79.4900   -3.4900   48.6400 C.ar      5 PHE5        0.0000 
     73 CZ         77.0600   -7.3000   52.8600 C.ar      5 PHE5        0.0000 
     74 CZ         78.2200   -8.2300   52.7000 C.ar      5 PHE5        0.0000 
     75 CZ         78.9700   -7.1500   51.9700 C.ar      5 PHE5        0.0000 
     76 CZ         79.7200   -6.0800   51.2400 C.ar      5 PHE5        0.0000 
     77 CZ         80.4700   -5.0100   50.5000 C.ar      5 PHE5        0.0000 
     78 CZ         80.0600   -3.0100   49.9400 C.ar      5 PHE5        0.0000 
     79 CA         73.5700  -17.7800   46.2000 C.3       6 GLY6        0.0000 
     80 CA         71.8000  -15.4400   47.8300 C.3       6 GLY6        0.0000 
     81 CA         72.9700  -16.3700   47.6700 C.3       6 GLY6        0.0000 
     82 CA         74.1400  -17.3000   47.5000 C.3       6 GLY6        0.0000 
     83 CA         72.5500  -14.3700   47.1000 C.3       6 GLY6        0.0000 
     84 CA         73.1200  -13.8800   48.4000 C.3       6 GLY6        0.0000 
     85 CA         74.2900  -14.8100   48.2300 C.3       6 GLY6        0.0000 
     86 CA         74.4400  -12.3200   48.9700 C.3       6 GLY6        0.0000 
     87 CA         76.6900   -9.1000   46.7700 C.3       6 GLY6        0.0000 
     88 CA         77.4400   -8.0300   46.0400 C.3       6 GLY6        0.0000 
     89 CA         78.1900   -6.9500   45.3100 C.3       6 GLY6        0.0000 
     90 CA         80.5300   -8.8100   44.9800 C.3       6 GLY6        0.0000 
     91 CA         81.6900   -9.7400   44.8100 C.3       6 GLY6        0.0000 
     92 CA         82.4400   -8.6600   44.0800 C.3       6 GLY6        0.0000 
     93 CA         74.9300   -6.7600   48.4000 C.3       6 GLY6        0.0000 
     94 CA         76.1000   -7.6900   48.2400 C.3       6 GLY6        0.0000 
     95 CA         75.6800   -5.6900   47.6700 C.3       6 GLY6        0.0000 
     96 CA         76.8500   -6.6100   47.5000 C.3       6 GLY6        0.0000 
     97 CA         79.5100   -5.3900   45.8800 C.3       6 GLY6        0.0000 
     98 CA         81.8500   -7.2500   45.5500 C.3       6 GLY6        0.0000 
     99 CA         83.0100   -8.1800   45.3800 C.3       6 GLY6        0.0000 
    100 CA         78.1700   -5.0500   48.0700 C.3       6 GLY6        0.0000 
    101 CA         77.7500   -3.0500   47.5000 C.3       6 GLY6        0.0000 
    102 CA         78.9200   -3.9800   47.3400 C.3       6 GLY6        0.0000 
    103 CA         78.3200   -2.5600   48.8000 C.3       6 GLY6        0.0000 
    104 CA         79.3100   -4.0800   50.6700 C.3       6 GLY6        0.0000 
    105 DU         72.4000  -16.8600   46.3700 H         7 CUB7        0.0000 
    106 DU         71.9800  -14.8600   45.8000 H         7 CUB7        0.0000 
    107 DU         73.7200  -15.3000   46.9300 H         7 CUB7        0.0000 
    108 DU         75.5000   -6.2700   49.7000 H         7 CUB7        0.0000 
    109 DU         76.6700   -7.2000   49.5300 H         7 CUB7        0.0000 
    110 DU         77.4200   -6.1300   48.8000 H         7 CUB7        0.0000 
    111 DU         77.0000   -4.1300   48.2400 H         7 CUB7        0.0000 
    112 DU         76.0700   -5.7900   51.0000 H         7 CUB7        0.0000 
    113 DU         77.2400   -6.7100   50.8300 H         7 CUB7        0.0000 
    114 DU         75.6500   -3.7800   50.4300 H         7 CUB7        0.0000 
    115 DU         76.8200   -4.7100   50.2700 H         7 CUB7        0.0000 
    116 DU         77.9900   -5.6400   50.1000 H         7 CUB7        0.0000 
    117 DU         77.5700   -3.6400   49.5400 H         7 CUB7        0.0000 
    118 DU         78.7400   -4.5700   49.3700 H         7 CUB7        0.0000 
    119 DU         78.1400   -3.1500   50.8300 H         7 CUB7        0.0000 
@<TRIPOS>BOND
@<TRIPOS>SUBSTRUCTURE
     1 SER1        1 GROUP   
     2 ALA2       20 GROUP   
     3 ASP3       31 GROUP   
     4 LYS4       35 GROUP   
     5 PHE5       45 GROUP   
     6 GLY6       79 GROUP   
     7 CUB7      105 GROUP   
@<TRIPOS>SET

