#    Name: 5wwj_1_LEU_TYR_LYS_MET_THR_PHE_CAVITY_N1_ALL
#    Modification time : Fri May 22 19:12:56 2020

@<TRIPOS>MOLECULE
5wwj_1_LEU_TYR_LYS_MET_THR_PHE_CAVITY_N1_ALL
  116     0     7     0     0
SMALL
NO_CHARGES


@<TRIPOS>ATOM
      1 OG         85.0300   -6.1500    7.3600 O.3       1 SER1        0.0000 
      2 OG         84.4400   -4.7400    8.8300 O.3       1 SER1        0.0000 
      3 OG         83.8400   -3.3200   10.2900 O.3       1 SER1        0.0000 
      4 OG         86.8400    0.9700    7.3700 O.3       1 SER1        0.0000 
      5 OG         88.0100    0.0500    7.2000 O.3       1 SER1        0.0000 
      6 OG         89.1700   -0.8800    7.0400 O.3       1 SER1        0.0000 
      7 OG         84.0600    6.7300    9.8900 O.3       1 SER1        0.0000 
      8 OG         85.2300    5.8000    9.7300 O.3       1 SER1        0.0000 
      9 OG         85.8800    1.2100   12.8900 O.3       1 SER1        0.0000 
     10 OG         85.4700    3.2100   12.3200 O.3       1 SER1        0.0000 
     11 OG         86.2200    4.2900   11.5900 O.3       1 SER1        0.0000 
     12 OG         86.0400    3.7000   13.6200 O.3       1 SER1        0.0000 
     13 OG         85.6200    5.7000   13.0600 O.3       1 SER1        0.0000 
     14 OG         86.3700    6.7800   12.3300 O.3       1 SER1        0.0000 
     15 OG         85.0200    7.1200   14.5200 O.3       1 SER1        0.0000 
     16 OG         86.1900    6.1900   14.3600 O.3       1 SER1        0.0000 
     17 O          84.9500   -1.0700    5.5000 O.2       2 ALA2        0.0000 
     18 N          84.3500    0.3400    6.9600 N.am      2 ALA2        0.0000 
     19 N          85.5200   -0.5900    6.8000 N.am      2 ALA2        0.0000 
     20 N          83.7500    1.7500    8.4300 N.am      2 ALA2        0.0000 
     21 N          84.9200    0.8300    8.2600 N.am      2 ALA2        0.0000 
     22 O          83.3400    3.7600    7.8600 O.2       2 ALA2        0.0000 
     23 N          83.4000    0.5800   12.4900 N.am      2 ALA2        0.0000 
     24 N          84.3800   -0.9300   14.3500 N.am      2 ALA2        0.0000 
     25 N          85.1300    0.1400   13.6200 N.am      2 ALA2        0.0000 
     26 O          83.5500    3.0700   13.2200 O.2       2 ALA2        0.0000 
     27 N          84.7200    2.1400   13.0600 N.am      2 ALA2        0.0000 
     28 O          83.7000    5.5600   13.9500 O.2       2 ALA2        0.0000 
     29 O          84.8700    4.6300   13.7900 O.2       2 ALA2        0.0000 
     30 O          82.3600    5.9000   16.1500 O.2       2 ALA2        0.0000 
     31 O          84.2700    6.0400   15.2500 O.2       2 ALA2        0.0000 
     32 OD1        81.3500   -3.9500    9.8900 O.co2     3 ASP3        0.0000 
     33 OD1        83.2700   -3.8100    8.9900 O.co2     3 ASP3        0.0000 
     34 NZ         83.8700   -5.2200    7.5300 N.4       4 LYS4        0.0000 
     35 NZ         84.6200   -4.1500    6.8000 N.4       4 LYS4        0.0000 
     36 NZ         85.7800   -5.0800    6.6300 N.4       4 LYS4        0.0000 
     37 NZ         85.3700   -3.0800    6.0700 N.4       4 LYS4        0.0000 
     38 CZ         85.1900   -3.6600    8.1000 C.ar      5 PHE5        0.0000 
     39 CZ         86.3500   -4.5900    7.9300 C.ar      5 PHE5        0.0000 
     40 CZ         85.9400   -2.5900    7.3600 C.ar      5 PHE5        0.0000 
     41 CZ         87.1000   -3.5200    7.2000 C.ar      5 PHE5        0.0000 
     42 CZ         87.8500   -2.4400    6.4700 C.ar      5 PHE5        0.0000 
     43 CZ         82.6700   -2.3900   10.4600 C.ar      5 PHE5        0.0000 
     44 CZ         84.5900   -2.2500    9.5600 C.ar      5 PHE5        0.0000 
     45 CZ         85.3400   -1.1700    8.8300 C.ar      5 PHE5        0.0000 
     46 CZ         86.0900   -0.1000    8.1000 C.ar      5 PHE5        0.0000 
     47 CZ         87.2600   -1.0300    7.9300 C.ar      5 PHE5        0.0000 
     48 CZ         88.4200   -1.9600    7.7700 C.ar      5 PHE5        0.0000 
     49 CZ         82.0800   -0.9800   11.9200 C.ar      5 PHE5        0.0000 
     50 CZ         83.2400   -1.9100   11.7600 C.ar      5 PHE5        0.0000 
     51 CZ         85.1600   -1.7600   10.8600 C.ar      5 PHE5        0.0000 
     52 CZ         84.7400    0.2400   10.2900 C.ar      5 PHE5        0.0000 
     53 CZ         86.6600    0.3900    9.4000 C.ar      5 PHE5        0.0000 
     54 CZ         86.2400    2.3900    8.8300 C.ar      5 PHE5        0.0000 
     55 CZ         82.6500   -0.4900   13.2200 C.ar      5 PHE5        0.0000 
     56 CZ         83.8100   -1.4200   13.0500 C.ar      5 PHE5        0.0000 
     57 CZ         85.7300   -1.2700   12.1600 C.ar      5 PHE5        0.0000 
     58 CZ         85.3100    0.7300   11.5900 C.ar      5 PHE5        0.0000 
     59 CZ         86.0600    1.8000   10.8600 C.ar      5 PHE5        0.0000 
     60 CZ         85.6500    3.8000   10.2900 C.ar      5 PHE5        0.0000 
     61 CZ         86.8100    2.8700   10.1300 C.ar      5 PHE5        0.0000 
     62 CZ         86.3900    4.8800    9.5600 C.ar      5 PHE5        0.0000 
     63 CZ         86.3000   -0.7900   13.4600 C.ar      5 PHE5        0.0000 
     64 CZ         86.9700    5.3600   10.8600 C.ar      5 PHE5        0.0000 
     65 CZ         85.4400    5.1200   15.0900 C.ar      5 PHE5        0.0000 
     66 CZ         84.4300    8.5300   15.9800 C.ar      5 PHE5        0.0000 
     67 CZ         85.5900    7.6000   15.8200 C.ar      5 PHE5        0.0000 
     68 CZ         85.1800    9.6100   15.2500 C.ar      5 PHE5        0.0000 
     69 CA         83.4500   -3.2200    6.9600 C.3       6 GLY6        0.0000 
     70 CA         84.2000   -2.1500    6.2300 C.3       6 GLY6        0.0000 
     71 CA         86.5300   -4.0000    5.9000 C.3       6 GLY6        0.0000 
     72 CA         86.1200   -2.0000    5.3300 C.3       6 GLY6        0.0000 
     73 CA         87.2800   -2.9300    5.1700 C.3       6 GLY6        0.0000 
     74 CA         88.4500   -3.8600    5.0000 C.3       6 GLY6        0.0000 
     75 CA         82.1000   -2.8800    9.1600 C.3       6 GLY6        0.0000 
     76 CA         81.6800   -0.8800    8.5900 C.3       6 GLY6        0.0000 
     77 CA         82.8500   -1.8100    8.4300 C.3       6 GLY6        0.0000 
     78 CA         84.0200   -2.7300    8.2600 C.3       6 GLY6        0.0000 
     79 CA         82.4300    0.1900    7.8600 C.3       6 GLY6        0.0000 
     80 CA         83.6000   -0.7300    7.6900 C.3       6 GLY6        0.0000 
     81 CA         84.7700   -1.6600    7.5300 C.3       6 GLY6        0.0000 
     82 CA         86.2700    0.4900    6.0700 C.3       6 GLY6        0.0000 
     83 CA         87.4400   -0.4400    5.9000 C.3       6 GLY6        0.0000 
     84 CA         88.6000   -1.3700    5.7400 C.3       6 GLY6        0.0000 
     85 CA         89.7700   -2.3000    5.5700 C.3       6 GLY6        0.0000 
     86 CA         81.5100   -1.4700   10.6200 C.3       6 GLY6        0.0000 
     87 CA         84.5000    2.8300    7.7000 C.3       6 GLY6        0.0000 
     88 CA         83.9100    4.2400    9.1600 C.3       6 GLY6        0.0000 
     89 CA         85.0700    3.3100    8.9900 C.3       6 GLY6        0.0000 
     90 CA         84.6600    5.3200    8.4300 C.3       6 GLY6        0.0000 
     91 CA         86.6300    2.2900   12.1600 C.3       6 GLY6        0.0000 
     92 CA         87.3800    3.3600   11.4300 C.3       6 GLY6        0.0000 
     93 CA         84.6300    7.2200   11.1900 C.3       6 GLY6        0.0000 
     94 CA         85.8000    6.2900   11.0300 C.3       6 GLY6        0.0000 
     95 CA         81.9400    7.9000   15.5800 C.3       6 GLY6        0.0000 
     96 CA         83.1100    6.9700   15.4200 C.3       6 GLY6        0.0000 
     97 CA         84.8400    6.5300   16.5500 C.3       6 GLY6        0.0000 
     98 DU         86.6900   -1.5100    6.6300 H         7 CUB7        0.0000 
     99 DU         82.2500   -0.3900    9.8900 H         7 CUB7        0.0000 
    100 DU         83.4200   -1.3200    9.7200 H         7 CUB7        0.0000 
    101 DU         83.0000    0.6800    9.1600 H         7 CUB7        0.0000 
    102 DU         84.1700   -0.2500    8.9900 H         7 CUB7        0.0000 
    103 DU         83.9900   -0.8300   11.0200 H         7 CUB7        0.0000 
    104 DU         84.3200    2.2400    9.7300 H         7 CUB7        0.0000 
    105 DU         85.4900    1.3100    9.5600 H         7 CUB7        0.0000 
    106 DU         84.5600   -0.3500   12.3200 H         7 CUB7        0.0000 
    107 DU         82.9800    2.5800   11.9200 H         7 CUB7        0.0000 
    108 DU         84.1500    1.6500   11.7600 H         7 CUB7        0.0000 
    109 DU         84.9000    2.7300   11.0200 H         7 CUB7        0.0000 
    110 DU         84.4800    4.7300   10.4600 H         7 CUB7        0.0000 
    111 DU         83.1300    5.0700   12.6500 H         7 CUB7        0.0000 
    112 DU         84.3000    4.1400   12.4900 H         7 CUB7        0.0000 
    113 DU         83.8800    6.1400   11.9200 H         7 CUB7        0.0000 
    114 DU         85.0500    5.2200   11.7600 H         7 CUB7        0.0000 
    115 DU         84.4500    6.6300   13.2200 H         7 CUB7        0.0000 
    116 DU         83.8500    8.0400   14.6900 H         7 CUB7        0.0000 
@<TRIPOS>BOND
@<TRIPOS>SUBSTRUCTURE
     1 SER1        1 GROUP   
     2 ALA2       17 GROUP   
     3 ASP3       32 GROUP   
     4 LYS4       34 GROUP   
     5 PHE5       38 GROUP   
     6 GLY6       69 GROUP   
     7 CUB7       98 GROUP   
@<TRIPOS>SET

