#    Name: 5wwj_2_LEU_TYR_LYS_LYS_MET_THR_PHE
#    Modification time : Fri May 22 19:12:59 2020

@<TRIPOS>MOLECULE
5wwj_2_LEU_TYR_LYS_LYS_MET_THR_PHE
   64    64     7     0     0
SMALL
NO_CHARGES


@<TRIPOS>ATOM
      1 N          77.2730  -15.2860   47.2260 N.4       1 LEU1        0.0000 
      2 CA         76.2210  -14.2760   47.1740 C.3       1 LEU1        0.0000 
      3 C          76.7220  -12.9650   47.7860 C.2       1 LEU1        0.0000 
      4 O          76.8840  -12.8560   49.0100 O.2       1 LEU1        0.0000 
      5 CB         74.9440  -14.7520   47.8930 C.3       1 LEU1        0.0000 
      6 CG         74.1950  -16.0060   47.4080 C.3       1 LEU1        0.0000 
      7 CD1        72.9470  -16.2370   48.2630 C.3       1 LEU1        0.0000 
      8 CD2        73.8320  -15.9380   45.9200 C.3       1 LEU1        0.0000 
      9 N          76.9640  -11.9830   46.9160 N.am      2 TYR2        0.0000 
     10 CA         77.4770  -10.6640   47.2920 C.3       2 TYR2        0.0000 
     11 C          76.5570   -9.9420   48.3000 C.2       2 TYR2        0.0000 
     12 O          75.4410  -10.4030   48.5740 O.2       2 TYR2        0.0000 
     13 CB         77.6830   -9.8110   46.0270 C.3       2 TYR2        0.0000 
     14 CG         78.8790   -8.8830   46.0900 C.ar      2 TYR2        0.0000 
     15 CD1        80.1730   -9.3700   45.9070 C.ar      2 TYR2        0.0000 
     16 CD2        78.7170   -7.5190   46.3380 C.ar      2 TYR2        0.0000 
     17 CE1        81.2780   -8.5240   45.9720 C.ar      2 TYR2        0.0000 
     18 CE2        79.8120   -6.6640   46.4050 C.ar      2 TYR2        0.0000 
     19 CZ         81.0900   -7.1690   46.2220 C.ar      2 TYR2        0.0000 
     20 OH         82.1770   -6.3230   46.2930 O.3       2 TYR2        0.0000 
     21 N          77.0350   -8.8210   48.8510 N.am      3 LYS3        0.0000 
     22 CA         76.2860   -8.0470   49.8530 C.3       3 LYS3        0.0000 
     23 C          75.1540   -7.2270   49.2120 C.2       3 LYS3        0.0000 
     24 O          75.2870   -6.7350   48.0890 O.2       3 LYS3        0.0000 
     25 CB         77.2330   -7.1510   50.6730 C.3       3 LYS3        0.0000 
     26 CG         76.5640   -6.3390   51.7760 C.3       3 LYS3        0.0000 
     27 CD         76.3500   -4.8960   51.3400 C.3       3 LYS3        0.0000 
     28 CE         75.3430   -4.1810   52.2290 C.3       3 LYS3        0.0000 
     29 NZ         74.9900   -2.8360   51.6980 N.4       3 LYS3        0.0000 
     30 N          74.0480   -7.0870   49.9400 N.am      4 LYS4        0.0000 
     31 CA         72.8210   -6.5040   49.3990 C.3       4 LYS4        0.0000 
     32 C          72.6040   -5.0590   49.8470 C.2       4 LYS4        0.0000 
     33 O          72.2580   -4.1940   49.0380 O.2       4 LYS4        0.0000 
     34 CB         71.6120   -7.3780   49.7790 C.3       4 LYS4        0.0000 
     35 CG         71.4980   -7.7080   51.2760 C.3       4 LYS4        0.0000 
     36 CD         70.6490   -8.9690   51.5370 C.3       4 LYS4        0.0000 
     37 CE         70.3220   -9.1160   53.0340 C.3       4 LYS4        0.0000 
     38 NZ         69.6940  -10.4220   53.4210 N.4       4 LYS4        0.0000 
     39 N          75.7070    2.5560   51.5030 N.4       5 MET9        0.0000 
     40 CA         76.0070    3.4670   52.6040 C.3       5 MET9        0.0000 
     41 C          77.4670    3.9340   52.6010 C.2       5 MET9        0.0000 
     42 O          78.3790    3.1120   52.6810 O.2       5 MET9        0.0000 
     43 CB         75.6940    2.8000   53.9350 C.3       5 MET9        0.0000 
     44 CG         75.7390    3.7580   55.1090 C.3       5 MET9        0.0000 
     45 SD         74.2990    4.8450   55.1980 S.3       5 MET9        0.0000 
     46 CE         74.8720    6.0620   56.3920 C.3       5 MET9        0.0000 
     47 N          77.6710    5.2540   52.5370 N.am      6 THR10       0.0000 
     48 CA         78.9990    5.8580   52.3660 C.3       6 THR10       0.0000 
     49 C          79.6550    6.3180   53.6870 C.2       6 THR10       0.0000 
     50 O          78.9740    6.4600   54.7090 O.2       6 THR10       0.0000 
     51 CB         78.9380    7.0700   51.3850 C.3       6 THR10       0.0000 
     52 OG1        78.4720    8.2390   52.0730 O.3       6 THR10       0.0000 
     53 CG2        78.0080    6.7810   50.2230 C.3       6 THR10       0.0000 
     54 N          80.9710    6.5520   53.6560 N.am      7 PHE11       0.0000 
     55 CA         81.7130    7.0450   54.8280 C.3       7 PHE11       0.0000 
     56 C          81.1090    8.3370   55.4060 C.2       7 PHE11       0.0000 
     57 O          81.6900    8.9770   56.2970 O.2       7 PHE11       0.0000 
     58 CB         83.1960    7.2830   54.4890 C.3       7 PHE11       0.0000 
     59 CG         84.0150    6.0170   54.3570 C.ar      7 PHE11       0.0000 
     60 CD1        85.3250    6.0700   53.8920 C.ar      7 PHE11       0.0000 
     61 CD2        83.4800    4.7820   54.6980 C.ar      7 PHE11       0.0000 
     62 CE1        86.0840    4.9140   53.7710 C.ar      7 PHE11       0.0000 
     63 CE2        84.2270    3.6170   54.5770 C.ar      7 PHE11       0.0000 
     64 CZ         85.5350    3.6790   54.1180 C.ar      7 PHE11       0.0000 
@<TRIPOS>BOND
     1    1    2 1    
     2    2    3 1    
     3    2    5 1    
     4    3    4 2    
     5    3    9 am   
     6    5    6 1    
     7    6    7 1    
     8    6    8 1    
     9    9   10 1    
    10   10   11 1    
    11   10   13 1    
    12   11   12 2    
    13   11   21 am   
    14   13   14 1    
    15   14   15 ar   
    16   14   16 ar   
    17   15   17 ar   
    18   16   18 ar   
    19   17   19 ar   
    20   18   19 ar   
    21   19   20 1    
    22   21   22 1    
    23   22   23 1    
    24   22   25 1    
    25   23   24 2    
    26   23   30 am   
    27   25   26 1    
    28   26   27 1    
    29   27   28 1    
    30   28   29 1    
    31   30   31 1    
    32   31   32 1    
    33   31   34 1    
    34   32   33 2    
    35   34   35 1    
    36   35   36 1    
    37   36   37 1    
    38   37   38 1    
    39   39   40 1    
    40   40   41 1    
    41   40   43 1    
    42   41   42 2    
    43   41   47 am   
    44   43   44 1    
    45   44   45 1    
    46   45   46 1    
    47   47   48 1    
    48   48   49 1    
    49   48   51 1    
    50   49   50 2    
    51   49   54 am   
    52   51   52 1    
    53   51   53 1    
    54   54   55 1    
    55   55   56 1    
    56   55   58 1    
    57   56   57 2    
    58   58   59 1    
    59   59   60 ar   
    60   59   61 ar   
    61   60   62 ar   
    62   61   63 ar   
    63   62   64 ar   
    64   63   64 ar   
@<TRIPOS>SUBSTRUCTURE
     1 LEU1        1 RESIDUE 
     2 TYR2        9 RESIDUE 
     3 LYS3       21 RESIDUE 
     4 LYS4       30 RESIDUE 
     5 MET9       39 RESIDUE 
     6 THR10      47 RESIDUE 
     7 PHE11      54 RESIDUE 
@<TRIPOS>SET

