#    Name: 6cr0_1_FAD
#    Modification time : Fri May 22 19:25:37 2020

@<TRIPOS>MOLECULE
6cr0_1_FAD
   53    58     1     0     1
SMALL
NO_CHARGES


@<TRIPOS>ATOM
      1 PA         76.9530   80.3090   85.5300 P.3       1 FAD507      0.0000 
      2 O1A        77.3500   80.2750   84.1050 O.co2     1 FAD507      0.0000 
      3 O2A        77.0290   79.1240   86.3730 O.co2     1 FAD507      0.0000 
      4 O5B        75.2590   80.5780   85.5440 O.3       1 FAD507      0.0000 
      5 C5B        74.6720   81.4140   84.6470 C.3       1 FAD507      0.0000 
      6 C4B        73.3670   80.7220   84.2640 C.3       1 FAD507      0.0000 
      7 O4B        72.6500   81.4530   83.2170 O.3       1 FAD507      0.0000 
      8 C3B        73.6540   79.2950   83.6370 C.3       1 FAD507      0.0000 
      9 O3B        72.9130   78.4100   84.3660 O.3       1 FAD507      0.0000 
     10 C2B        73.1670   79.4320   82.1610 C.3       1 FAD507      0.0000 
     11 O2B        72.5530   78.2770   81.7060 O.3       1 FAD507      0.0000 
     12 C1B        72.0590   80.4780   82.3290 C.3       1 FAD507      0.0000 
     13 N9A        71.7470   81.1980   81.0640 N.pl3     1 FAD507      0.0000 
     14 C8A        72.6260   81.5380   80.0880 C.2       1 FAD507      0.0000 
     15 N7A        71.9990   82.2050   79.0760 N.2       1 FAD507      0.0000 
     16 C5A        70.6440   82.2720   79.4920 C.ar      1 FAD507      0.0000 
     17 C6A        69.4790   82.8290   78.8960 C.ar      1 FAD507      0.0000 
     18 N6A        69.4780   83.4910   77.6820 N.pl3     1 FAD507      0.0000 
     19 N1A        68.3470   82.7230   79.5910 N.ar      1 FAD507      0.0000 
     20 C2A        68.3020   82.0880   80.7820 C.ar      1 FAD507      0.0000 
     21 N3A        69.3390   81.5200   81.4380 N.ar      1 FAD507      0.0000 
     22 C4A        70.5180   81.6270   80.7600 C.ar      1 FAD507      0.0000 
     23 N1         85.4200   77.6840   90.0930 N.2       1 FAD507      0.0000 
     24 C2         85.8670   77.3020   91.3230 C.2       1 FAD507      0.0000 
     25 O2         85.4930   77.9060   92.3390 O.2       1 FAD507      0.0000 
     26 N3         86.7630   76.2740   91.4950 N.am      1 FAD507      0.0000 
     27 C4         87.2910   75.6060   90.3920 C.2       1 FAD507      0.0000 
     28 O4         88.0840   74.6510   90.6030 O.2       1 FAD507      0.0000 
     29 C4X        86.8550   75.9750   89.0940 C.2       1 FAD507      0.0000 
     30 N5         87.3010   75.2940   88.0070 N.2       1 FAD507      0.0000 
     31 C5X        86.6210   75.5210   86.7940 C.ar      1 FAD507      0.0000 
     32 C6         86.8230   74.6230   85.7260 C.ar      1 FAD507      0.0000 
     33 C7         85.9810   74.6210   84.6090 C.ar      1 FAD507      0.0000 
     34 C7M        86.2220   73.6400   83.4830 C.3       1 FAD507      0.0000 
     35 C8         84.9030   75.5300   84.5310 C.ar      1 FAD507      0.0000 
     36 C8M        83.9590   75.5520   83.3420 C.3       1 FAD507      0.0000 
     37 C9         84.7010   76.4190   85.5950 C.ar      1 FAD507      0.0000 
     38 C9A        85.5520   76.4240   86.7280 C.ar      1 FAD507      0.0000 
     39 N10        85.3640   77.3340   87.7770 N.pl3     1 FAD507      0.0000 
     40 C10        85.8980   77.0290   89.0080 C.2       1 FAD507      0.0000 
     41 C1'        84.5600   78.5790   87.6060 C.3       1 FAD507      0.0000 
     42 C2'        83.1410   78.4610   88.1780 C.3       1 FAD507      0.0000 
     43 O2'        82.5740   77.2260   87.7510 O.3       1 FAD507      0.0000 
     44 C3'        82.2390   79.6420   87.5940 C.3       1 FAD507      0.0000 
     45 O3'        82.9860   80.8320   87.8020 O.3       1 FAD507      0.0000 
     46 C4'        80.8920   79.7700   88.3330 C.3       1 FAD507      0.0000 
     47 O4'        80.2900   78.5010   88.3090 O.3       1 FAD507      0.0000 
     48 C5'        79.9490   80.7750   87.5820 C.3       1 FAD507      0.0000 
     49 O5'        78.8120   80.8700   88.2920 O.3       1 FAD507      0.0000 
     50 P          77.7710   82.0510   87.7280 P.3       1 FAD507      0.0000 
     51 O1P        76.5900   81.8170   88.5360 O.co2     1 FAD507      0.0000 
     52 O2P        78.4940   83.3130   87.5730 O.co2     1 FAD507      0.0000 
     53 O3P        77.5770   81.6320   86.1750 O.3       1 FAD507      0.0000 
@<TRIPOS>BOND
     1    1    2 ar   
     2    1    3 ar   
     3    1    4 1    
     4    1   53 1    
     5    4    5 1    
     6    5    6 1    
     7    6    7 1    
     8    6    8 1    
     9    7   12 1    
    10    8    9 1    
    11    8   10 1    
    12   10   11 1    
    13   10   12 1    
    14   12   13 1    
    15   13   14 1    
    16   13   22 1    
    17   14   15 2    
    18   15   16 1    
    19   16   17 ar   
    20   16   22 ar   
    21   17   18 1    
    22   17   19 ar   
    23   19   20 ar   
    24   20   21 ar   
    25   21   22 ar   
    26   23   24 1    
    27   23   40 2    
    28   24   25 2    
    29   24   26 am   
    30   26   27 am   
    31   27   28 2    
    32   27   29 1    
    33   29   30 2    
    34   29   40 1    
    35   30   31 1    
    36   31   32 ar   
    37   31   38 ar   
    38   32   33 ar   
    39   33   34 1    
    40   33   35 ar   
    41   35   36 1    
    42   35   37 ar   
    43   37   38 ar   
    44   38   39 1    
    45   39   40 1    
    46   39   41 1    
    47   41   42 1    
    48   42   43 1    
    49   42   44 1    
    50   44   45 1    
    51   44   46 1    
    52   46   47 1    
    53   46   48 1    
    54   48   49 1    
    55   49   50 1    
    56   50   51 ar   
    57   50   52 ar   
    58   50   53 1    
@<TRIPOS>SUBSTRUCTURE
     1 FAD507      1 GROUP   
@<TRIPOS>SET
ATOM$ORANGE STATIC     ATOMS   COLORGROUP SYSTEM 
54 5 5 6 6 8 8 10 10 12 12 14 14 16 16 17 17 20 \
20 22 22 24 24 27 27 29 29 31 31 32 32 33 33 34 34 35 \
35 36 36 37 37 38 38 40 40 41 41 42 42 44 44 46 46 48 \
48 

