#    Name: 6dyo_1_LDP
#    Modification time : Fri May 22 19:35:34 2020

@<TRIPOS>MOLECULE
6dyo_1_LDP
   11    11     1     0     0
SMALL
NO_CHARGES


@<TRIPOS>ATOM
      1 C7          8.5290   -3.2510   14.1950 C.3       1 LDP901      0.0000 
      2 C1          7.2080   -2.7860   13.5810 C.ar      1 LDP901      0.0000 
      3 C4          4.8110   -1.9430   12.4730 C.ar      1 LDP901      0.0000 
      4 C2          6.0080   -3.1070   14.1970 C.ar      1 LDP901      0.0000 
      5 C6          7.2090   -2.0420   12.4110 C.ar      1 LDP901      0.0000 
      6 C5          6.0100   -1.6210   11.8570 C.ar      1 LDP901      0.0000 
      7 C3          4.8090   -2.6870   13.6450 C.ar      1 LDP901      0.0000 
      8 O1          3.6000   -3.0150   14.2730 O.3       1 LDP901      0.0000 
      9 O2          3.6010   -1.5160   11.9080 O.3       1 LDP901      0.0000 
     10 C8          9.1660   -2.0940   14.9600 C.3       1 LDP901      0.0000 
     11 N1         10.1880   -1.4650   14.1400 N.4       1 LDP901      0.0000 
@<TRIPOS>BOND
     1    1    2 1    
     2    1   10 1    
     3    2    4 ar   
     4    2    5 ar   
     5    3    6 ar   
     6    3    7 ar   
     7    3    9 1    
     8    4    7 ar   
     9    5    6 ar   
    10    7    8 1    
    11   10   11 1    
@<TRIPOS>SUBSTRUCTURE
     1 LDP901      1 GROUP   
@<TRIPOS>SET

