#    Name: 6dyo_1_LDP_CAVITY_N1_4
#    Modification time : Fri May 22 19:35:34 2020

@<TRIPOS>MOLECULE
6dyo_1_LDP_CAVITY_N1_4
   53     0     6     0     0
SMALL
NO_CHARGES


@<TRIPOS>ATOM
      1 OG          5.3800   -6.5200   14.7800 O.3       1 SER1        0.0000 
      2 OG          3.6500   -5.6000   15.6100 O.3       1 SER1        0.0000 
      3 OG          4.5000   -3.2800   14.8100 O.3       1 SER1        0.0000 
      4 OG          7.0900   -3.2700   14.7700 O.3       1 SER1        0.0000 
      5 OG          5.3700   -2.3500   15.6000 O.3       1 SER1        0.0000 
      6 OG         11.4400   -5.5700   15.5000 O.3       1 SER1        0.0000 
      7 OG         10.5700   -4.4100   15.1200 O.3       1 SER1        0.0000 
      8 N           8.7900   -4.8700   11.9400 N.am      2 ALA2        0.0000 
      9 N           7.9200   -3.7100   11.5500 N.am      2 ALA2        0.0000 
     10 N          10.5700   -6.4900   14.7100 N.am      2 ALA2        0.0000 
     11 O           8.0000   -5.8200   16.7500 O.2       2 ALA2        0.0000 
     12 N           8.8500   -5.5800   15.5400 N.am      2 ALA2        0.0000 
     13 N           9.6900   -5.3400   14.3300 N.am      2 ALA2        0.0000 
     14 N           7.9700   -4.4200   15.1600 N.am      2 ALA2        0.0000 
     15 N           8.8200   -4.1800   13.9400 N.am      2 ALA2        0.0000 
     16 N           7.9400   -3.0300   13.5600 N.am      2 ALA2        0.0000 
     17 N           7.9100   -1.6300   11.9600 N.am      2 ALA2        0.0000 
     18 N           8.7600   -1.3900   10.7500 N.am      2 ALA2        0.0000 
     19 N           9.6900   -3.2600   14.7400 N.am      2 ALA2        0.0000 
     20 N           7.9700   -2.3400   15.5700 N.am      2 ALA2        0.0000 
     21 NZ          3.5900   -2.8100   12.4200 N.4       3 LYS4        0.0000 
     22 NZ          3.5700   -1.4100   10.8200 N.4       3 LYS4        0.0000 
     23 NZ          3.6200   -2.1200   14.4300 N.4       3 LYS4        0.0000 
     24 CZ          3.6300   -6.2900   13.6000 C.ar      4 PHE5        0.0000 
     25 CZ          4.5000   -5.3600   14.4000 C.ar      4 PHE5        0.0000 
     26 CZ          6.1700   -3.4800   10.3700 C.ar      4 PHE5        0.0000 
     27 CZ          4.4400   -2.5700   11.2000 C.ar      4 PHE5        0.0000 
     28 CZ          4.4200   -1.1700    9.6100 C.ar      4 PHE5        0.0000 
     29 CZ          8.8200   -6.2600   13.5300 C.ar      4 PHE5        0.0000 
     30 CZ          7.1000   -5.3500   14.3600 C.ar      4 PHE5        0.0000 
     31 CZ          7.9400   -5.1100   13.1500 C.ar      4 PHE5        0.0000 
     32 CZ          6.2200   -4.1900   13.9800 C.ar      4 PHE5        0.0000 
     33 CZ          7.0700   -3.9500   12.7700 C.ar      4 PHE5        0.0000 
     34 CZ          5.3400   -3.0400   13.6000 C.ar      4 PHE5        0.0000 
     35 CZ          6.1900   -2.8000   12.3800 C.ar      4 PHE5        0.0000 
     36 CZ          6.1600   -1.4000   10.7900 C.ar      4 PHE5        0.0000 
     37 CZ          7.0100   -1.1600    9.5700 C.ar      4 PHE5        0.0000 
     38 CZ          7.0400   -0.4700   11.5800 C.ar      4 PHE5        0.0000 
     39 CA          2.7800   -6.5300   14.8200 C.3       5 GLY6        0.0000 
     40 CA          3.6200   -4.2000   14.0100 C.3       5 GLY6        0.0000 
     41 CA          5.2900   -2.3300    9.9900 C.3       5 GLY6        0.0000 
     42 CA          6.1400   -2.0900    8.7800 C.3       5 GLY6        0.0000 
     43 CA          7.0400   -2.5600   11.1700 C.3       5 GLY6        0.0000 
     44 CA          7.8900   -2.3200    9.9600 C.3       5 GLY6        0.0000 
     45 CA          4.4700   -1.8800   13.2100 C.3       5 GLY6        0.0000 
     46 CA          4.4400   -0.4900   11.6200 C.3       5 GLY6        0.0000 
     47 CA          6.2200   -2.1100   14.3900 C.3       5 GLY6        0.0000 
     48 CA          7.0700   -1.8700   13.1800 C.3       5 GLY6        0.0000 
     49 CA          5.3400   -0.9600   14.0100 C.3       5 GLY6        0.0000 
     50 CA          6.1900   -0.7200   12.7900 C.3       5 GLY6        0.0000 
     51 CA          8.8100   -2.1000   14.3500 C.3       5 GLY6        0.0000 
     52 DU          7.9700   -6.5000   14.7500 H         6 CUB7        0.0000 
     53 DU          5.3200   -1.6400   12.0000 H         6 CUB7        0.0000 
@<TRIPOS>BOND
@<TRIPOS>SUBSTRUCTURE
     1 SER1        1 GROUP   
     2 ALA2        8 GROUP   
     3 LYS4       21 GROUP   
     4 PHE5       24 GROUP   
     5 GLY6       39 GROUP   
     6 CUB7       52 GROUP   
@<TRIPOS>SET

