#    Name: 6dyo_1_LDP_CAVITY_N1_6
#    Modification time : Fri May 22 19:35:34 2020

@<TRIPOS>MOLECULE
6dyo_1_LDP_CAVITY_N1_6
   82     0     6     0     0
SMALL
NO_CHARGES


@<TRIPOS>ATOM
      1 OG          6.2500   -7.6700   15.1700 O.3       1 SER1        0.0000 
      2 OG          4.5300   -6.7600   15.9900 O.3       1 SER1        0.0000 
      3 OG          5.3800   -6.5200   14.7800 O.3       1 SER1        0.0000 
      4 OG          3.6500   -5.6000   15.6100 O.3       1 SER1        0.0000 
      5 OG          8.0000   -7.9000   16.3400 O.3       1 SER1        0.0000 
      6 OG          6.2800   -6.9900   17.1700 O.3       1 SER1        0.0000 
      7 OG          7.1200   -6.7400   15.9600 O.3       1 SER1        0.0000 
      8 OG          4.5000   -3.2800   14.8100 O.3       1 SER1        0.0000 
      9 OG         12.3000   -7.4100   13.8800 O.3       1 SER1        0.0000 
     10 OG          7.0900   -3.2700   14.7700 O.3       1 SER1        0.0000 
     11 OG          5.3700   -2.3500   15.6000 O.3       1 SER1        0.0000 
     12 OG         11.4400   -5.5700   15.5000 O.3       1 SER1        0.0000 
     13 OG         10.5700   -4.4100   15.1200 O.3       1 SER1        0.0000 
     14 N           3.6300   -8.3700   13.1900 N.am      2 ALA2        0.0000 
     15 N           8.8200   -8.3400   13.1200 N.am      2 ALA2        0.0000 
     16 O           9.7000   -7.4200   13.9200 O.2       2 ALA2        0.0000 
     17 O          10.5500   -7.1800   12.7000 O.2       2 ALA2        0.0000 
     18 N           8.7900   -4.8700   11.9400 N.am      2 ALA2        0.0000 
     19 N           7.9200   -3.7100   11.5500 N.am      2 ALA2        0.0000 
     20 N          11.4500   -7.6500   15.0900 N.am      2 ALA2        0.0000 
     21 N           8.8700   -6.9700   17.1400 N.am      2 ALA2        0.0000 
     22 N           9.7200   -6.7300   15.9200 N.am      2 ALA2        0.0000 
     23 N          10.5700   -6.4900   14.7100 N.am      2 ALA2        0.0000 
     24 N          11.4200   -6.2500   13.5000 N.am      2 ALA2        0.0000 
     25 O           8.0000   -5.8200   16.7500 O.2       2 ALA2        0.0000 
     26 N           8.8500   -5.5800   15.5400 N.am      2 ALA2        0.0000 
     27 N           9.6900   -5.3400   14.3300 N.am      2 ALA2        0.0000 
     28 N           7.9700   -4.4200   15.1600 N.am      2 ALA2        0.0000 
     29 N           8.8200   -4.1800   13.9400 N.am      2 ALA2        0.0000 
     30 N           7.9400   -3.0300   13.5600 N.am      2 ALA2        0.0000 
     31 N           7.9100   -1.6300   11.9600 N.am      2 ALA2        0.0000 
     32 N           8.7600   -1.3900   10.7500 N.am      2 ALA2        0.0000 
     33 N          12.3200   -6.7200   15.8900 N.am      2 ALA2        0.0000 
     34 N           9.6900   -3.2600   14.7400 N.am      2 ALA2        0.0000 
     35 N           7.9700   -2.3400   15.5700 N.am      2 ALA2        0.0000 
     36 NZ          2.8100   -7.9200   16.4100 N.4       3 LYS4        0.0000 
     37 NZ          3.5900   -2.8100   12.4200 N.4       3 LYS4        0.0000 
     38 NZ          3.5700   -1.4100   10.8200 N.4       3 LYS4        0.0000 
     39 NZ          3.6200   -2.1200   14.4300 N.4       3 LYS4        0.0000 
     40 CZ          6.2300   -8.3600   13.1600 C.ar      4 PHE5        0.0000 
     41 CZ          4.5000   -7.4400   13.9900 C.ar      4 PHE5        0.0000 
     42 CZ          3.6300   -6.2900   13.6000 C.ar      4 PHE5        0.0000 
     43 CZ          7.1000   -7.4300   13.9500 C.ar      4 PHE5        0.0000 
     44 CZ          7.9500   -7.1900   12.7400 C.ar      4 PHE5        0.0000 
     45 CZ          4.5000   -5.3600   14.4000 C.ar      4 PHE5        0.0000 
     46 CZ          6.1700   -3.4800   10.3700 C.ar      4 PHE5        0.0000 
     47 CZ          4.4400   -2.5700   11.2000 C.ar      4 PHE5        0.0000 
     48 CZ          4.4200   -1.1700    9.6100 C.ar      4 PHE5        0.0000 
     49 CZ          8.8200   -6.2600   13.5300 C.ar      4 PHE5        0.0000 
     50 CZ          7.1000   -5.3500   14.3600 C.ar      4 PHE5        0.0000 
     51 CZ          7.9400   -5.1100   13.1500 C.ar      4 PHE5        0.0000 
     52 CZ          6.2200   -4.1900   13.9800 C.ar      4 PHE5        0.0000 
     53 CZ          7.0700   -3.9500   12.7700 C.ar      4 PHE5        0.0000 
     54 CZ          5.3400   -3.0400   13.6000 C.ar      4 PHE5        0.0000 
     55 CZ          6.1900   -2.8000   12.3800 C.ar      4 PHE5        0.0000 
     56 CZ          6.1600   -1.4000   10.7900 C.ar      4 PHE5        0.0000 
     57 CZ          7.0100   -1.1600    9.5700 C.ar      4 PHE5        0.0000 
     58 CZ          7.0400   -0.4700   11.5800 C.ar      4 PHE5        0.0000 
     59 CA          2.7800   -8.6100   14.4100 C.3       5 GLY6        0.0000 
     60 CA          3.6500   -7.6800   15.2000 C.3       5 GLY6        0.0000 
     61 CA          2.7800   -6.5300   14.8200 C.3       5 GLY6        0.0000 
     62 CA          7.1300   -8.8300   15.5500 C.3       5 GLY6        0.0000 
     63 CA          7.9800   -8.5900   14.3400 C.3       5 GLY6        0.0000 
     64 CA          5.4000   -7.9100   16.3800 C.3       5 GLY6        0.0000 
     65 CA          3.6200   -4.2000   14.0100 C.3       5 GLY6        0.0000 
     66 CA          5.2900   -2.3300    9.9900 C.3       5 GLY6        0.0000 
     67 CA          6.1400   -2.0900    8.7800 C.3       5 GLY6        0.0000 
     68 CA          9.7300   -8.8100   15.5100 C.3       5 GLY6        0.0000 
     69 CA         10.5700   -8.5700   14.3000 C.3       5 GLY6        0.0000 
     70 CA          8.8500   -7.6600   15.1300 C.3       5 GLY6        0.0000 
     71 CA          7.0400   -2.5600   11.1700 C.3       5 GLY6        0.0000 
     72 CA          7.8900   -2.3200    9.9600 C.3       5 GLY6        0.0000 
     73 CA          4.4700   -1.8800   13.2100 C.3       5 GLY6        0.0000 
     74 CA          4.4400   -0.4900   11.6200 C.3       5 GLY6        0.0000 
     75 CA          6.2200   -2.1100   14.3900 C.3       5 GLY6        0.0000 
     76 CA          7.0700   -1.8700   13.1800 C.3       5 GLY6        0.0000 
     77 CA          5.3400   -0.9600   14.0100 C.3       5 GLY6        0.0000 
     78 CA          6.1900   -0.7200   12.7900 C.3       5 GLY6        0.0000 
     79 CA          8.8100   -2.1000   14.3500 C.3       5 GLY6        0.0000 
     80 DU          5.3800   -8.6000   14.3700 H         6 CUB7        0.0000 
     81 DU          7.9700   -6.5000   14.7500 H         6 CUB7        0.0000 
     82 DU          5.3200   -1.6400   12.0000 H         6 CUB7        0.0000 
@<TRIPOS>BOND
@<TRIPOS>SUBSTRUCTURE
     1 SER1        1 GROUP   
     2 ALA2       14 GROUP   
     3 LYS4       36 GROUP   
     4 PHE5       40 GROUP   
     5 GLY6       59 GROUP   
     6 CUB7       80 GROUP   
@<TRIPOS>SET

