#    Name: 5n3h_1_NCA
#    Modification time : Fri May 22 19:15:50 2020

@<TRIPOS>MOLECULE
5n3h_1_NCA
   15    15     1     0     0
SMALL
NO_CHARGES


@<TRIPOS>ATOM
      1 N1         -9.0360    2.3140  -28.2540 N.ar      1 NCA401      0.0000 
      2 C2         -9.3040    3.6160  -28.4260 C.ar      1 NCA401      0.0000 
      3 C3        -10.5230    4.0980  -28.8650 C.ar      1 NCA401      0.0000 
      4 C4        -11.5120    3.1730  -29.1540 C.ar      1 NCA401      0.0000 
      5 C5        -11.2590    1.8250  -28.9960 C.ar      1 NCA401      0.0000 
      6 C6        -10.0140    1.4440  -28.5310 C.ar      1 NCA401      0.0000 
      7 C7        -10.8110    5.5690  -29.0100 C.2       1 NCA401      0.0000 
      8 O7        -11.9220    5.9340  -29.4100 O.2       1 NCA401      0.0000 
      9 N7         -9.8530    6.4300  -28.6760 N.am      1 NCA401      0.0000 
     10 H2         -8.4850    4.2950  -28.1940 H         1 NCA401      0.0000 
     11 H4        -12.4890    3.5000  -29.5060 H         1 NCA401      0.0000 
     12 H5        -12.0210    1.0830  -29.2310 H         1 NCA401      0.0000 
     13 H6         -9.7610    0.3980  -28.3630 H         1 NCA401      0.0000 
     14 HN71       -8.9460    6.1310  -28.3310 H         1 NCA401      0.0000 
     15 HN72       -9.9970    7.4310  -28.7560 H         1 NCA401      0.0000 
@<TRIPOS>BOND
     1    1    2 ar   
     2    1    6 ar   
     3    2    3 ar   
     4    2   10 1    
     5    3    4 ar   
     6    3    7 1    
     7    4    5 ar   
     8    4   11 1    
     9    5    6 ar   
    10    5   12 1    
    11    6   13 1    
    12    7    8 2    
    13    7    9 am   
    14    9   14 1    
    15    9   15 1    
@<TRIPOS>SUBSTRUCTURE
     1 NCA401      1 GROUP   
@<TRIPOS>SET

