#    Name: 5n3h_1_NCA_CAVITY_N1_6
#    Modification time : Fri May 22 19:15:50 2020

@<TRIPOS>MOLECULE
5n3h_1_NCA_CAVITY_N1_6
   30     0     5     0     0
SMALL
NO_CHARGES


@<TRIPOS>ATOM
      1 N         -16.1900    0.4200  -31.1000 N.am      1 ALA2        0.0000 
      2 N         -14.2700    0.2100  -30.2300 N.am      1 ALA2        0.0000 
      3 N         -17.2600    3.2200  -28.1000 N.am      1 ALA2        0.0000 
      4 NZ        -16.7200    1.8200  -29.6000 N.4       2 LYS4        0.0000 
      5 NZ        -15.4900    1.0200  -29.9100 N.4       2 LYS4        0.0000 
      6 NZ        -16.0300    2.4200  -28.4100 N.4       2 LYS4        0.0000 
      7 NZ        -14.8000    1.6200  -28.7300 N.4       2 LYS4        0.0000 
      8 CZ        -13.5700    0.8100  -29.0400 C.ar      3 PHE5        0.0000 
      9 CZ        -11.1400    1.7300  -29.0300 C.ar      3 PHE5        0.0000 
     10 CA        -15.6800    1.5400  -31.9600 C.3       4 GLY6        0.0000 
     11 CA        -16.4200    5.9700  -31.8700 C.3       4 GLY6        0.0000 
     12 CA        -16.9300    4.8600  -31.0100 C.3       4 GLY6        0.0000 
     13 CA        -16.2100    2.9400  -30.4600 C.3       4 GLY6        0.0000 
     14 CA        -14.9800    2.1300  -30.7800 C.3       4 GLY6        0.0000 
     15 CA        -13.7600    1.3300  -31.0900 C.3       4 GLY6        0.0000 
     16 CA        -13.0600    1.9300  -29.9000 C.3       4 GLY6        0.0000 
     17 CA        -11.8300    1.1300  -30.2200 C.3       4 GLY6        0.0000 
     18 CA        -13.6000    3.3300  -28.4000 C.3       4 GLY6        0.0000 
     19 CA        -14.1100    2.2200  -27.5400 C.3       4 GLY6        0.0000 
     20 CA        -11.8600    3.6500  -29.5800 C.3       4 GLY6        0.0000 
     21 CA        -12.3700    2.5300  -28.7100 C.3       4 GLY6        0.0000 
     22 CA        -12.8800    1.4100  -27.8500 C.3       4 GLY6        0.0000 
     23 CA        -10.6300    2.8400  -29.8900 C.3       4 GLY6        0.0000 
     24 CA        -11.1600    4.2500  -28.3900 C.3       4 GLY6        0.0000 
     25 CA         -9.9400    3.4400  -28.7000 C.3       4 GLY6        0.0000 
     26 CA        -10.4500    2.3300  -27.8400 C.3       4 GLY6        0.0000 
     27 DU        -17.4400    3.7400  -30.1500 H         5 CUB7        0.0000 
     28 DU        -16.7500    4.3400  -28.9600 H         5 CUB7        0.0000 
     29 DU        -15.5200    3.5400  -29.2800 H         5 CUB7        0.0000 
     30 DU        -14.2900    2.7300  -29.5900 H         5 CUB7        0.0000 
@<TRIPOS>BOND
@<TRIPOS>SUBSTRUCTURE
     1 ALA2        1 GROUP   
     2 LYS4        4 GROUP   
     3 PHE5        8 GROUP   
     4 GLY6       10 GROUP   
     5 CUB7       27 GROUP   
@<TRIPOS>SET

