#    Name: 5n3h_1_NCA_CAVITY_N1_4
#    Modification time : Fri May 22 19:15:50 2020

@<TRIPOS>MOLECULE
5n3h_1_NCA_CAVITY_N1_4
   18     0     5     0     0
SMALL
NO_CHARGES


@<TRIPOS>ATOM
      1 N         -14.2700    0.2100  -30.2300 N.am      1 ALA2        0.0000 
      2 NZ        -14.8000    1.6200  -28.7300 N.4       2 LYS4        0.0000 
      3 CZ        -13.5700    0.8100  -29.0400 C.ar      3 PHE5        0.0000 
      4 CZ        -11.1400    1.7300  -29.0300 C.ar      3 PHE5        0.0000 
      5 CA        -14.9800    2.1300  -30.7800 C.3       4 GLY6        0.0000 
      6 CA        -13.7600    1.3300  -31.0900 C.3       4 GLY6        0.0000 
      7 CA        -13.0600    1.9300  -29.9000 C.3       4 GLY6        0.0000 
      8 CA        -11.8300    1.1300  -30.2200 C.3       4 GLY6        0.0000 
      9 CA        -13.6000    3.3300  -28.4000 C.3       4 GLY6        0.0000 
     10 CA        -14.1100    2.2200  -27.5400 C.3       4 GLY6        0.0000 
     11 CA        -11.8600    3.6500  -29.5800 C.3       4 GLY6        0.0000 
     12 CA        -12.3700    2.5300  -28.7100 C.3       4 GLY6        0.0000 
     13 CA        -12.8800    1.4100  -27.8500 C.3       4 GLY6        0.0000 
     14 CA        -10.6300    2.8400  -29.8900 C.3       4 GLY6        0.0000 
     15 CA        -11.1600    4.2500  -28.3900 C.3       4 GLY6        0.0000 
     16 CA         -9.9400    3.4400  -28.7000 C.3       4 GLY6        0.0000 
     17 CA        -10.4500    2.3300  -27.8400 C.3       4 GLY6        0.0000 
     18 DU        -14.2900    2.7300  -29.5900 H         5 CUB7        0.0000 
@<TRIPOS>BOND
@<TRIPOS>SUBSTRUCTURE
     1 ALA2        1 GROUP   
     2 LYS4        2 GROUP   
     3 PHE5        3 GROUP   
     4 GLY6        5 GROUP   
     5 CUB7       18 GROUP   
@<TRIPOS>SET

