#    Name: 5n3h_1_NCA_CAVITY_N1_8
#    Modification time : Fri May 22 19:15:50 2020

@<TRIPOS>MOLECULE
5n3h_1_NCA_CAVITY_N1_8
   49     0     5     0     0
SMALL
NO_CHARGES


@<TRIPOS>ATOM
      1 O         -17.3000    5.8900  -35.1100 O.2       1 ALA2        0.0000 
      2 O         -18.3200    3.6600  -33.3900 O.2       1 ALA2        0.0000 
      3 N         -16.1900    0.4200  -31.1000 N.am      1 ALA2        0.0000 
      4 N         -19.1800    3.4200  -28.9700 N.am      1 ALA2        0.0000 
      5 N         -14.2700    0.2100  -30.2300 N.am      1 ALA2        0.0000 
      6 N         -17.2600    3.2200  -28.1000 N.am      1 ALA2        0.0000 
      7 NZ        -18.8500    5.0600  -31.8800 N.4       2 LYS4        0.0000 
      8 NZ        -18.6400    2.0200  -30.4700 N.4       2 LYS4        0.0000 
      9 NZ        -19.1500    0.9100  -29.6100 N.4       2 LYS4        0.0000 
     10 NZ        -17.6500    6.7800  -31.5600 N.4       2 LYS4        0.0000 
     11 NZ        -18.1600    5.6600  -30.7000 N.4       2 LYS4        0.0000 
     12 NZ        -17.9500    2.6200  -29.2900 N.4       2 LYS4        0.0000 
     13 NZ        -16.7200    1.8200  -29.6000 N.4       2 LYS4        0.0000 
     14 NZ        -15.4900    1.0200  -29.9100 N.4       2 LYS4        0.0000 
     15 NZ        -16.0300    2.4200  -28.4100 N.4       2 LYS4        0.0000 
     16 NZ        -14.8000    1.6200  -28.7300 N.4       2 LYS4        0.0000 
     17 CZ        -13.5700    0.8100  -29.0400 C.ar      3 PHE5        0.0000 
     18 CZ        -11.1400    1.7300  -29.0300 C.ar      3 PHE5        0.0000 
     19 CA        -17.8100    4.7700  -34.2500 C.3       4 GLY6        0.0000 
     20 CA        -17.0900    2.8600  -33.7000 C.3       4 GLY6        0.0000 
     21 CA        -17.6000    1.7400  -32.8400 C.3       4 GLY6        0.0000 
     22 CA        -18.3400    6.1800  -32.7500 C.3       4 GLY6        0.0000 
     23 CA        -17.1100    5.3700  -33.0600 C.3       4 GLY6        0.0000 
     24 CA        -17.6200    4.2600  -32.2000 C.3       4 GLY6        0.0000 
     25 CA        -16.9100    2.3400  -31.6500 C.3       4 GLY6        0.0000 
     26 CA        -17.4200    1.2200  -30.7900 C.3       4 GLY6        0.0000 
     27 CA        -15.6800    1.5400  -31.9600 C.3       4 GLY6        0.0000 
     28 CA        -16.4200    5.9700  -31.8700 C.3       4 GLY6        0.0000 
     29 CA        -16.9300    4.8600  -31.0100 C.3       4 GLY6        0.0000 
     30 CA        -16.2100    2.9400  -30.4600 C.3       4 GLY6        0.0000 
     31 CA        -14.9800    2.1300  -30.7800 C.3       4 GLY6        0.0000 
     32 CA        -13.7600    1.3300  -31.0900 C.3       4 GLY6        0.0000 
     33 CA        -13.0600    1.9300  -29.9000 C.3       4 GLY6        0.0000 
     34 CA        -11.8300    1.1300  -30.2200 C.3       4 GLY6        0.0000 
     35 CA        -13.6000    3.3300  -28.4000 C.3       4 GLY6        0.0000 
     36 CA        -14.1100    2.2200  -27.5400 C.3       4 GLY6        0.0000 
     37 CA        -11.8600    3.6500  -29.5800 C.3       4 GLY6        0.0000 
     38 CA        -12.3700    2.5300  -28.7100 C.3       4 GLY6        0.0000 
     39 CA        -12.8800    1.4100  -27.8500 C.3       4 GLY6        0.0000 
     40 CA        -10.6300    2.8400  -29.8900 C.3       4 GLY6        0.0000 
     41 CA        -11.1600    4.2500  -28.3900 C.3       4 GLY6        0.0000 
     42 CA         -9.9400    3.4400  -28.7000 C.3       4 GLY6        0.0000 
     43 CA        -10.4500    2.3300  -27.8400 C.3       4 GLY6        0.0000 
     44 DU        -19.3600    3.9400  -31.0200 H         5 CUB7        0.0000 
     45 DU        -18.1300    3.1400  -31.3400 H         5 CUB7        0.0000 
     46 DU        -17.4400    3.7400  -30.1500 H         5 CUB7        0.0000 
     47 DU        -16.7500    4.3400  -28.9600 H         5 CUB7        0.0000 
     48 DU        -15.5200    3.5400  -29.2800 H         5 CUB7        0.0000 
     49 DU        -14.2900    2.7300  -29.5900 H         5 CUB7        0.0000 
@<TRIPOS>BOND
@<TRIPOS>SUBSTRUCTURE
     1 ALA2        1 GROUP   
     2 LYS4        7 GROUP   
     3 PHE5       17 GROUP   
     4 GLY6       19 GROUP   
     5 CUB7       44 GROUP   
@<TRIPOS>SET

