#    Name: 5zth_1_SAH
#    Modification time : Fri May 22 19:24:01 2020

@<TRIPOS>MOLECULE
5zth_1_SAH
   26    28     1     0     0
SMALL
NO_CHARGES


@<TRIPOS>ATOM
      1 N          -4.4000   -8.9020   21.7360 N.4       1 SAH501      0.0000 
      2 CA         -4.3950   -8.7970   23.2290 C.3       1 SAH501      0.0000 
      3 CB         -2.9640   -8.5640   23.7190 C.3       1 SAH501      0.0000 
      4 CG         -2.2510   -9.8620   24.0820 C.3       1 SAH501      0.0000 
      5 SD         -1.0850   -9.6060   25.3780 S.3       1 SAH501      0.0000 
      6 C          -5.2740   -7.6650   23.6770 C.2       1 SAH501      0.0000 
      7 O          -5.0970   -6.5270   23.2390 O.co2     1 SAH501      0.0000 
      8 OXT        -6.1860   -7.8450   24.4900 O.co2     1 SAH501      0.0000 
      9 C5'         0.2230  -10.6710   24.8620 C.3       1 SAH501      0.0000 
     10 C4'        -0.2150  -12.1320   24.8210 C.3       1 SAH501      0.0000 
     11 O4'         0.7620  -12.8800   24.0960 O.3       1 SAH501      0.0000 
     12 C3'        -0.3270  -12.7580   26.2060 C.3       1 SAH501      0.0000 
     13 O3'        -1.5890  -13.4240   26.3400 O.3       1 SAH501      0.0000 
     14 C2'         0.8430  -13.7230   26.2880 C.3       1 SAH501      0.0000 
     15 O2'         0.5460  -14.9040   27.0360 O.3       1 SAH501      0.0000 
     16 C1'         1.1170  -14.0540   24.8300 C.3       1 SAH501      0.0000 
     17 N9          2.5050  -14.4650   24.4930 N.pl3     1 SAH501      0.0000 
     18 C8          3.6370  -14.3980   25.2280 C.2       1 SAH501      0.0000 
     19 N7          4.6920  -14.8920   24.5250 N.2       1 SAH501      0.0000 
     20 C5          4.2370  -15.2850   23.3210 C.ar      1 SAH501      0.0000 
     21 C6          4.8020  -15.8930   22.0880 C.ar      1 SAH501      0.0000 
     22 N6          6.1180  -16.1940   21.9930 N.pl3     1 SAH501      0.0000 
     23 N1          3.9540  -16.1360   21.0540 N.ar      1 SAH501      0.0000 
     24 C2          2.6340  -15.8490   21.1180 C.ar      1 SAH501      0.0000 
     25 N3          2.0580  -15.2960   22.2050 N.ar      1 SAH501      0.0000 
     26 C4          2.7930  -15.0000   23.3110 C.ar      1 SAH501      0.0000 
@<TRIPOS>BOND
     1    1    2 1    
     2    2    3 1    
     3    2    6 1    
     4    3    4 1    
     5    4    5 1    
     6    5    9 1    
     7    6    7 ar   
     8    6    8 ar   
     9    9   10 1    
    10   10   11 1    
    11   10   12 1    
    12   11   16 1    
    13   12   13 1    
    14   12   14 1    
    15   14   15 1    
    16   14   16 1    
    17   16   17 1    
    18   17   18 1    
    19   17   26 1    
    20   18   19 2    
    21   19   20 1    
    22   20   21 ar   
    23   20   26 ar   
    24   21   22 1    
    25   21   23 ar   
    26   23   24 ar   
    27   24   25 ar   
    28   25   26 ar   
@<TRIPOS>SUBSTRUCTURE
     1 SAH501      1 GROUP   
@<TRIPOS>SET

