#    Name: 6cey_5_GNP
#    Modification time : Fri May 22 19:26:16 2020

@<TRIPOS>MOLECULE
6cey_5_GNP
   32    34     1     0     1
SMALL
NO_CHARGES


@<TRIPOS>ATOM
      1 PG         71.2300   34.0060   39.6210 P.3       1 GNP500      0.0000 
      2 O1G        71.1430   35.3700   40.1390 O.co2     1 GNP500      0.0000 
      3 O2G        72.6300   33.5500   38.8600 O.co2     1 GNP500      0.0000 
      4 O3G        70.0180   33.9520   38.5670 O.co2     1 GNP500      0.0000 
      5 N3B        71.0450   32.9350   40.8560 N.3       1 GNP500      0.0000 
      6 PB         70.4780   31.4010   40.9630 P.3       1 GNP500      0.0000 
      7 O1B        69.3290   31.3020   41.8360 O.co2     1 GNP500      0.0000 
      8 O2B        69.8560   31.0800   39.5530 O.co2     1 GNP500      0.0000 
      9 O3A        71.6270   30.2530   41.1400 O.3       1 GNP500      0.0000 
     10 PA         72.6790   29.6180   40.1170 P.3       1 GNP500      0.0000 
     11 O1A        73.3360   30.7250   39.3560 O.co2     1 GNP500      0.0000 
     12 O2A        72.0300   28.4760   39.3410 O.co2     1 GNP500      0.0000 
     13 O5'        73.4990   28.9360   41.2540 O.3       1 GNP500      0.0000 
     14 C5'        74.0980   29.8090   42.2220 C.3       1 GNP500      0.0000 
     15 C4'        75.5750   29.5340   42.3060 C.3       1 GNP500      0.0000 
     16 O4'        75.7830   28.1530   42.6830 O.3       1 GNP500      0.0000 
     17 C3'        76.3390   29.6770   40.9900 C.3       1 GNP500      0.0000 
     18 O3'        76.7790   30.9710   40.6940 O.3       1 GNP500      0.0000 
     19 C2'        77.5770   28.8450   41.2790 C.3       1 GNP500      0.0000 
     20 O2'        78.4110   29.6970   42.0390 O.3       1 GNP500      0.0000 
     21 C1'        76.9720   27.6740   42.0820 C.3       1 GNP500      0.0000 
     22 N9         76.6130   26.5400   41.2320 N.pl3     1 GNP500      0.0000 
     23 C8         75.3590   26.1270   40.8430 C.2       1 GNP500      0.0000 
     24 N7         75.3640   25.0530   40.0750 N.2       1 GNP500      0.0000 
     25 C5         76.7010   24.7210   39.9690 C.2       1 GNP500      0.0000 
     26 C6         77.3540   23.6490   39.3080 C.2       1 GNP500      0.0000 
     27 O6         76.8400   22.6880   38.7600 O.2       1 GNP500      0.0000 
     28 N1         78.7300   23.7440   39.4030 N.am      1 GNP500      0.0000 
     29 C2         79.4040   24.6960   40.1160 C.2       1 GNP500      0.0000 
     30 N2         80.7080   24.5690   40.1810 N.pl3     1 GNP500      0.0000 
     31 N3         78.8110   25.6770   40.7940 N.2       1 GNP500      0.0000 
     32 C4         77.4890   25.6500   40.6740 C.2       1 GNP500      0.0000 
@<TRIPOS>BOND
     1    1    2 ar   
     2    1    3 ar   
     3    1    4 ar   
     4    1    5 1    
     5    5    6 1    
     6    6    7 ar   
     7    6    8 ar   
     8    6    9 1    
     9    9   10 1    
    10   10   11 ar   
    11   10   12 ar   
    12   10   13 1    
    13   13   14 1    
    14   14   15 1    
    15   15   16 1    
    16   15   17 1    
    17   16   21 1    
    18   17   18 1    
    19   17   19 1    
    20   19   20 1    
    21   19   21 1    
    22   21   22 1    
    23   22   23 1    
    24   22   32 1    
    25   23   24 2    
    26   24   25 1    
    27   25   26 1    
    28   25   32 2    
    29   26   27 2    
    30   26   28 am   
    31   28   29 1    
    32   29   30 1    
    33   29   31 2    
    34   31   32 1    
@<TRIPOS>SUBSTRUCTURE
     1 GNP500      1 GROUP   
@<TRIPOS>SET
ATOM$ORANGE STATIC     ATOMS   COLORGROUP SYSTEM 
20 14 14 15 15 17 17 19 19 21 21 23 23 25 25 26 26 29 \
29 32 32 

