#    Name: 6cey_3_GNP
#    Modification time : Fri May 22 19:26:10 2020

@<TRIPOS>MOLECULE
6cey_3_GNP
   32    34     1     0     1
SMALL
NO_CHARGES


@<TRIPOS>ATOM
      1 PG         40.0240   -0.4970   19.8500 P.3       1 GNP500      0.0000 
      2 O1G        40.1970   -1.7650   20.5860 O.co2     1 GNP500      0.0000 
      3 O2G        38.7410    0.1280   18.9910 O.co2     1 GNP500      0.0000 
      4 O3G        41.4940   -0.2350   18.9550 O.co2     1 GNP500      0.0000 
      5 N3B        40.0640    0.5410   21.1440 N.3       1 GNP500      0.0000 
      6 PB         40.7760    1.9630   21.4960 P.3       1 GNP500      0.0000 
      7 O1B        42.0220    1.8700   22.2250 O.co2     1 GNP500      0.0000 
      8 O2B        41.6970    2.3400   20.1310 O.co2     1 GNP500      0.0000 
      9 O3A        39.8020    3.3080   21.4990 O.3       1 GNP500      0.0000 
     10 PA         38.6860    3.9000   20.5130 P.3       1 GNP500      0.0000 
     11 O1A        38.0950    2.8510   19.6440 O.co2     1 GNP500      0.0000 
     12 O2A        39.5060    4.9960   19.7750 O.co2     1 GNP500      0.0000 
     13 O5'        37.8470    4.4800   21.6730 O.3       1 GNP500      0.0000 
     14 C5'        37.1840    3.5920   22.5590 C.3       1 GNP500      0.0000 
     15 C4'        35.7170    3.9140   22.6470 C.3       1 GNP500      0.0000 
     16 O4'        35.4940    5.2630   23.1490 O.3       1 GNP500      0.0000 
     17 C3'        34.9710    3.8660   21.3640 C.3       1 GNP500      0.0000 
     18 O3'        34.7190    2.5470   20.9810 O.3       1 GNP500      0.0000 
     19 C2'        33.7250    4.6640   21.7170 C.3       1 GNP500      0.0000 
     20 O2'        32.8880    3.9580   22.5950 O.3       1 GNP500      0.0000 
     21 C1'        34.3500    5.8170   22.5350 C.3       1 GNP500      0.0000 
     22 N9         34.7910    7.0460   21.7570 N.pl3     1 GNP500      0.0000 
     23 C8         36.0670    7.4110   21.3750 C.2       1 GNP500      0.0000 
     24 N7         36.1010    8.5280   20.7710 N.2       1 GNP500      0.0000 
     25 C5         34.7760    8.9420   20.7120 C.2       1 GNP500      0.0000 
     26 C6         34.1160   10.1090   20.0810 C.2       1 GNP500      0.0000 
     27 O6         34.6240   11.0780   19.4660 O.2       1 GNP500      0.0000 
     28 N1         32.7270   10.0900   20.1620 N.am      1 GNP500      0.0000 
     29 C2         32.0110    9.1180   20.8230 C.2       1 GNP500      0.0000 
     30 N2         30.6870    9.1820   20.7450 N.pl3     1 GNP500      0.0000 
     31 N3         32.5800    8.0670   21.4180 N.2       1 GNP500      0.0000 
     32 C4         33.9560    8.0380   21.2610 C.2       1 GNP500      0.0000 
@<TRIPOS>BOND
     1    1    2 ar   
     2    1    3 ar   
     3    1    4 ar   
     4    1    5 1    
     5    5    6 1    
     6    6    7 ar   
     7    6    8 ar   
     8    6    9 1    
     9    9   10 1    
    10   10   11 ar   
    11   10   12 ar   
    12   10   13 1    
    13   13   14 1    
    14   14   15 1    
    15   15   16 1    
    16   15   17 1    
    17   16   21 1    
    18   17   18 1    
    19   17   19 1    
    20   19   20 1    
    21   19   21 1    
    22   21   22 1    
    23   22   23 1    
    24   22   32 1    
    25   23   24 2    
    26   24   25 1    
    27   25   26 1    
    28   25   32 2    
    29   26   27 2    
    30   26   28 am   
    31   28   29 1    
    32   29   30 1    
    33   29   31 2    
    34   31   32 1    
@<TRIPOS>SUBSTRUCTURE
     1 GNP500      1 GROUP   
@<TRIPOS>SET
ATOM$ORANGE STATIC     ATOMS   COLORGROUP SYSTEM 
20 14 14 15 15 17 17 19 19 21 21 23 23 25 25 26 26 29 \
29 32 32 

