#    Name: 6r0y_1_ADP
#    Modification time : Fri May 22 19:24:58 2020

@<TRIPOS>MOLECULE
6r0y_1_ADP
   27    29     1     0     1
SMALL
NO_CHARGES


@<TRIPOS>ATOM
      1 PB         41.5110   76.4340  178.6230 P.3       1 ADP602      0.0000 
      2 O1B        41.6790   75.5410  177.4260 O.co2     1 ADP602      0.0000 
      3 O2B        42.7630   77.1520  179.0560 O.co2     1 ADP602      0.0000 
      4 O3B        40.7180   75.8340  179.7520 O.co2     1 ADP602      0.0000 
      5 PA         38.9600   77.2680  178.0130 P.3       1 ADP602      0.0000 
      6 O1A        38.7830   75.8180  177.6380 O.co2     1 ADP602      0.0000 
      7 O2A        38.3590   77.7820  179.2940 O.co2     1 ADP602      0.0000 
      8 O3A        40.5320   77.5670  178.0580 O.3       1 ADP602      0.0000 
      9 O5'        38.4750   78.2240  176.8130 O.3       1 ADP602      0.0000 
     10 C5'        39.2040   78.2280  175.5890 C.3       1 ADP602      0.0000 
     11 C4'        38.6410   79.2070  174.5630 C.3       1 ADP602      0.0000 
     12 O4'        38.9880   78.7210  173.2630 O.3       1 ADP602      0.0000 
     13 C3'        37.1280   79.3060  174.5700 C.3       1 ADP602      0.0000 
     14 O3'        36.6850   80.4380  175.3060 O.3       1 ADP602      0.0000 
     15 C2'        36.7660   79.4530  173.1120 C.3       1 ADP602      0.0000 
     16 O2'        36.7910   80.8320  172.7420 O.3       1 ADP602      0.0000 
     17 C1'        37.8750   78.7450  172.3700 C.3       1 ADP602      0.0000 
     18 N9         37.3970   77.3650  172.0970 N.pl3     1 ADP602      0.0000 
     19 C8         37.5950   76.2920  172.8790 C.2       1 ADP602      0.0000 
     20 N7         37.0280   75.1750  172.3760 N.2       1 ADP602      0.0000 
     21 C5         36.4370   75.5300  171.2340 C.ar      1 ADP602      0.0000 
     22 C6         35.6460   74.8270  170.2130 C.ar      1 ADP602      0.0000 
     23 N6         35.4050   73.5040  170.3190 N.pl3     1 ADP602      0.0000 
     24 N1         35.2160   75.5500  169.1590 N.ar      1 ADP602      0.0000 
     25 C2         35.4670   76.8690  169.0470 C.ar      1 ADP602      0.0000 
     26 N3         36.1720   77.5730  169.9470 N.ar      1 ADP602      0.0000 
     27 C4         36.6780   76.9690  171.0470 C.ar      1 ADP602      0.0000 
@<TRIPOS>BOND
     1    1    2 ar   
     2    1    3 ar   
     3    1    4 ar   
     4    1    8 1    
     5    5    6 ar   
     6    5    7 ar   
     7    5    8 1    
     8    5    9 1    
     9    9   10 1    
    10   10   11 1    
    11   11   12 1    
    12   11   13 1    
    13   12   17 1    
    14   13   14 1    
    15   13   15 1    
    16   15   16 1    
    17   15   17 1    
    18   17   18 1    
    19   18   19 1    
    20   18   27 1    
    21   19   20 2    
    22   20   21 1    
    23   21   22 ar   
    24   21   27 ar   
    25   22   23 1    
    26   22   24 ar   
    27   24   25 ar   
    28   25   26 ar   
    29   26   27 ar   
@<TRIPOS>SUBSTRUCTURE
     1 ADP602      1 GROUP   
@<TRIPOS>SET
ATOM$ORANGE STATIC     ATOMS   COLORGROUP SYSTEM 
20 10 10 11 11 13 13 15 15 17 17 19 19 21 21 22 22 25 \
25 27 27 

