#    Name: 6r0y_2_ADP
#    Modification time : Fri May 22 19:25:08 2020

@<TRIPOS>MOLECULE
6r0y_2_ADP
   27    29     1     0     1
SMALL
NO_CHARGES


@<TRIPOS>ATOM
      1 PB         53.6680   74.4370  210.9500 P.3       1 ADP501      0.0000 
      2 O1B        54.1160   74.9380  209.6040 O.co2     1 ADP501      0.0000 
      3 O2B        52.8250   75.4080  211.7260 O.co2     1 ADP501      0.0000 
      4 O3B        53.1070   73.0550  210.9260 O.co2     1 ADP501      0.0000 
      5 PA         56.3300   73.5030  211.4920 P.3       1 ADP501      0.0000 
      6 O1A        56.0430   72.0330  211.3070 O.co2     1 ADP501      0.0000 
      7 O2A        57.3810   73.9270  212.4890 O.co2     1 ADP501      0.0000 
      8 O3A        54.9890   74.3170  211.8560 O.3       1 ADP501      0.0000 
      9 O5'        56.7370   74.1480  210.0780 O.3       1 ADP501      0.0000 
     10 C5'        57.8870   74.9700  209.9680 C.3       1 ADP501      0.0000 
     11 C4'        57.6170   76.1240  209.0150 C.3       1 ADP501      0.0000 
     12 O4'        58.1450   77.3260  209.5770 O.3       1 ADP501      0.0000 
     13 C3'        58.3030   75.8960  207.6810 C.3       1 ADP501      0.0000 
     14 O3'        57.3300   75.9100  206.6410 O.3       1 ADP501      0.0000 
     15 C2'        59.2410   77.0650  207.5000 C.3       1 ADP501      0.0000 
     16 O2'        59.0350   77.6560  206.2210 O.3       1 ADP501      0.0000 
     17 C1'        58.8840   78.0500  208.5980 C.3       1 ADP501      0.0000 
     18 N9         60.1150   78.6410  209.1800 N.pl3     1 ADP501      0.0000 
     19 C8         61.3580   78.1480  209.0640 C.2       1 ADP501      0.0000 
     20 N7         62.2620   78.9350  209.6970 N.2       1 ADP501      0.0000 
     21 C5         61.5970   79.9630  210.2350 C.ar      1 ADP501      0.0000 
     22 C6         61.9420   81.1490  211.0280 C.ar      1 ADP501      0.0000 
     23 N6         63.2050   81.4190  211.4010 N.pl3     1 ADP501      0.0000 
     24 N1         60.9440   81.9590  211.3680 N.ar      1 ADP501      0.0000 
     25 C2         59.6790   81.7190  211.0170 C.ar      1 ADP501      0.0000 
     26 N3         59.2790   80.6660  210.3000 N.ar      1 ADP501      0.0000 
     27 C4         60.1860   79.7680  209.8810 C.ar      1 ADP501      0.0000 
@<TRIPOS>BOND
     1    1    2 ar   
     2    1    3 ar   
     3    1    4 ar   
     4    1    8 1    
     5    5    6 ar   
     6    5    7 ar   
     7    5    8 1    
     8    5    9 1    
     9    9   10 1    
    10   10   11 1    
    11   11   12 1    
    12   11   13 1    
    13   12   17 1    
    14   13   14 1    
    15   13   15 1    
    16   15   16 1    
    17   15   17 1    
    18   17   18 1    
    19   18   19 1    
    20   18   27 1    
    21   19   20 2    
    22   20   21 1    
    23   21   22 ar   
    24   21   27 ar   
    25   22   23 1    
    26   22   24 ar   
    27   24   25 ar   
    28   25   26 ar   
    29   26   27 ar   
@<TRIPOS>SUBSTRUCTURE
     1 ADP501      1 GROUP   
@<TRIPOS>SET
ATOM$ORANGE STATIC     ATOMS   COLORGROUP SYSTEM 
20 10 10 11 11 13 13 15 15 17 17 19 19 21 21 22 22 25 \
25 27 27 

