#    Name: 6opy_1_017
#    Modification time : Fri May 22 19:26:23 2020

@<TRIPOS>MOLECULE
6opy_1_017
   75    78     1     0     0
SMALL
NO_CHARGES


@<TRIPOS>ATOM
      1 N1         41.4280   37.7520   15.2560 N.pl3     1 017101      0.0000 
      2 C2         41.1910   38.0350   13.7990 C.ar      1 017101      0.0000 
      3 C3         40.2120   37.3450   13.1340 C.ar      1 017101      0.0000 
      4 C4         39.9730   37.5870   11.8050 C.ar      1 017101      0.0000 
      5 C5         40.7180   38.5310   11.1110 C.ar      1 017101      0.0000 
      6 C6         41.7000   39.2180   11.7730 C.ar      1 017101      0.0000 
      7 C7         41.9460   38.9760   13.1250 C.ar      1 017101      0.0000 
      8 S8         40.3430   38.7890    9.3160 S.o2      1 017101      0.0000 
      9 O9         39.0570   38.2730    8.9520 O.2       1 017101      0.0000 
     10 O10        40.1300   40.2190    8.9850 O.2       1 017101      0.0000 
     11 N11        41.5630   38.0190    8.3550 N.pl3     1 017101      0.0000 
     12 C12        42.9540   38.5100    8.4810 C.3       1 017101      0.0000 
     13 C13        43.4790   39.2750    7.2570 C.3       1 017101      0.0000 
     14 C14        42.7710   40.6520    7.0560 C.3       1 017101      0.0000 
     15 C15        45.0170   39.4510    7.4150 C.3       1 017101      0.0000 
     16 C16        41.3680   36.5080    8.0960 C.3       1 017101      0.0000 
     17 C17        41.1170   36.1750    6.5870 C.3       1 017101      0.0000 
     18 O18        41.3110   34.8300    6.3770 O.3       1 017101      0.0000 
     19 C19        39.6970   36.5820    6.1990 C.3       1 017101      0.0000 
     20 N20        39.5600   36.4380    4.7580 N.am      1 017101      0.0000 
     21 C21        39.5130   37.5590    3.7990 C.2       1 017101      0.0000 
     22 O22        39.4780   38.6930    4.1500 O.2       1 017101      0.0000 
     23 O23        39.5090   37.1750    2.4500 O.3       1 017101      0.0000 
     24 C24        38.9230   37.9870    1.4590 C.3       1 017101      0.0000 
     25 C25        40.0170   37.8960    0.1990 C.3       1 017101      0.0000 
     26 O26        39.8310   36.6260   -0.2160 O.3       1 017101      0.0000 
     27 C27        38.2730   36.3660   -0.0570 C.3       1 017101      0.0000 
     28 O28        38.0330   35.2870    0.5310 O.3       1 017101      0.0000 
     29 C29        36.7690   35.5740    1.5090 C.3       1 017101      0.0000 
     30 C30        36.8650   36.8370    1.8760 C.3       1 017101      0.0000 
     31 C31        37.7990   37.5190    0.9310 C.3       1 017101      0.0000 
     32 C32        38.6460   35.6590    6.8120 C.3       1 017101      0.0000 
     33 C33        36.7320   37.1720    6.2780 C.ar      1 017101      0.0000 
     34 C34        35.4830   37.4350    5.6930 C.ar      1 017101      0.0000 
     35 C35        34.8120   36.4280    4.9850 C.ar      1 017101      0.0000 
     36 C36        35.3590   35.1730    4.8820 C.ar      1 017101      0.0000 
     37 C37        36.6040   34.9050    5.4660 C.ar      1 017101      0.0000 
     38 C38        37.2850   35.9240    6.1690 C.ar      1 017101      0.0000 
     39 H11        41.9210   38.2880   15.7280 H         1 017101      0.0000 
     40 H12        41.0720   37.0530   15.6260 H         1 017101      0.0000 
     41 H3         39.7070   36.7090   13.5850 H         1 017101      0.0000 
     42 H4         39.3050   37.1150   11.3650 H         1 017101      0.0000 
     43 H6         42.2060   39.8500   11.3180 H         1 017101      0.0000 
     44 H7         42.6140   39.4450   13.5690 H         1 017101      0.0000 
     45 H121       42.9950   39.0820    9.2250 H         1 017101      0.0000 
     46 H122       43.5130   37.7700    8.6280 H         1 017101      0.0000 
     47 H13        43.2860   38.7750    6.4860 H         1 017101      0.0000 
     48 H141       43.4080   41.3410    7.0970 H         1 017101      0.0000 
     49 H142       42.1310   40.7780    7.7310 H         1 017101      0.0000 
     50 H143       42.3480   40.6670    6.2180 H         1 017101      0.0000 
     51 H151       45.4400   38.6210    7.3020 H         1 017101      0.0000 
     52 H152       45.3310   40.0530    6.7660 H         1 017101      0.0000 
     53 H153       45.2070   39.7870    8.2710 H         1 017101      0.0000 
     54 H161       40.6300   36.2100    8.5960 H         1 017101      0.0000 
     55 H162       42.1380   36.0520    8.3810 H         1 017101      0.0000 
     56 H17        41.7220   36.6530    6.0500 H         1 017101      0.0000 
     57 H18        42.0930   34.6270    6.5760 H         1 017101      0.0000 
     58 H19        39.5610   37.4600    6.5020 H         1 017101      0.0000 
     59 H20        39.5010   35.6330    4.4390 H         1 017101      0.0000 
     60 H24        38.7160   38.8380    1.7990 H         1 017101      0.0000 
     61 H251       40.8960   38.0280    0.5020 H         1 017101      0.0000 
     62 H252       39.8060   38.5090   -0.4800 H         1 017101      0.0000 
     63 H27        37.8230   36.3900   -0.8810 H         1 017101      0.0000 
     64 H291       36.8130   35.0160    2.2620 H         1 017101      0.0000 
     65 H292       35.9650   35.4350    1.0430 H         1 017101      0.0000 
     66 H301       36.0200   37.2440    1.8300 H         1 017101      0.0000 
     67 H302       37.2090   36.8860    2.7480 H         1 017101      0.0000 
     68 H31        37.3460   38.2250    0.5100 H         1 017101      0.0000 
     69 H321       38.8930   34.7650    6.6690 H         1 017101      0.0000 
     70 H322       38.5930   35.8160    7.7370 H         1 017101      0.0000 
     71 H33        37.1820   37.8430    6.7370 H         1 017101      0.0000 
     72 H34        35.1010   38.2780    5.7750 H         1 017101      0.0000 
     73 H35        33.9940   36.6090    4.5840 H         1 017101      0.0000 
     74 H36        34.9040   34.5030    4.4260 H         1 017101      0.0000 
     75 H37        36.9810   34.0590    5.3920 H         1 017101      0.0000 
@<TRIPOS>BOND
     1    1    2 1    
     2    2    3 ar   
     3    1   39 1    
     4    1   40 1    
     5    2    7 ar   
     6    3    4 ar   
     7    4    5 ar   
     8    3   41 1    
     9    5    6 ar   
    10    4   42 1    
    11    5    8 1    
    12    6    7 ar   
    13    8    9 2    
    14    6   43 1    
    15    7   44 1    
    16    8   10 2    
    17    8   11 1    
    18   11   12 1    
    19   11   16 1    
    20   12   13 1    
    21   13   14 1    
    22   12   45 1    
    23   12   46 1    
    24   13   15 1    
    25   16   17 1    
    26   13   47 1    
    27   14   48 1    
    28   14   49 1    
    29   14   50 1    
    30   15   51 1    
    31   15   52 1    
    32   15   53 1    
    33   17   18 1    
    34   16   54 1    
    35   16   55 1    
    36   17   19 1    
    37   19   20 1    
    38   17   56 1    
    39   18   57 1    
    40   19   32 1    
    41   20   21 am   
    42   19   58 1    
    43   21   22 2    
    44   20   59 1    
    45   21   23 1    
    46   23   24 1    
    47   24   25 1    
    48   24   31 1    
    49   25   26 1    
    50   24   60 1    
    51   31   68 1    
    52   26   27 1    
    53   25   61 1    
    54   25   62 1    
    55   27   28 1    
    56   27   31 1    
    57   28   29 1    
    58   27   63 1    
    59   29   30 1    
    60   30   66 1    
    61   30   31 1    
    62   29   64 1    
    63   29   65 1    
    64   30   67 1    
    65   32   38 1    
    66   33   34 ar   
    67   32   69 1    
    68   32   70 1    
    69   33   38 ar   
    70   34   35 ar   
    71   33   71 1    
    72   35   36 ar   
    73   34   72 1    
    74   36   37 ar   
    75   35   73 1    
    76   37   38 ar   
    77   36   74 1    
    78   37   75 1    
@<TRIPOS>SUBSTRUCTURE
     1 017101      1 GROUP   
@<TRIPOS>SET

