#    Name: 6o5n_2_GDP_CAVITY_N1_12
#    Modification time : Fri May 22 19:34:12 2020

@<TRIPOS>MOLECULE
6o5n_2_GDP_CAVITY_N1_12
   73     0     7     0     0
SMALL
NO_CHARGES


@<TRIPOS>ATOM
      1 OG         14.1100  -48.0400  -19.8600 O.3       1 SER1        0.0000 
      2 OG         15.2800  -47.2500  -20.3800 O.3       1 SER1        0.0000 
      3 OG         10.8500  -48.5200  -19.2900 O.3       1 SER1        0.0000 
      4 OG         12.0100  -47.7400  -19.8100 O.3       1 SER1        0.0000 
      5 OG         11.0800  -46.6600  -20.2700 O.3       1 SER1        0.0000 
      6 OG         18.2100  -49.8100  -17.6600 O.3       1 SER1        0.0000 
      7 OG         16.1100  -49.5200  -17.6100 O.3       1 SER1        0.0000 
      8 OG         17.2800  -48.7300  -18.1300 O.3       1 SER1        0.0000 
      9 OG         15.1800  -48.4300  -18.0700 O.3       1 SER1        0.0000 
     10 OG         19.4000  -49.5300  -14.5400 O.3       1 SER1        0.0000 
     11 OG         19.5300  -48.8500  -13.2100 O.3       1 SER1        0.0000 
     12 N          10.3400  -51.7500  -20.9700 N.am      2 ALA2        0.0000 
     13 N          11.5100  -50.9700  -21.4800 N.am      2 ALA2        0.0000 
     14 N          11.6400  -50.2900  -20.1600 N.am      2 ALA2        0.0000 
     15 O          10.7100  -49.2000  -20.6200 O.2       2 ALA2        0.0000 
     16 O          11.8800  -48.4200  -21.1400 O.2       2 ALA2        0.0000 
     17 O          13.0500  -47.6400  -21.6600 O.2       2 ALA2        0.0000 
     18 O          14.2200  -46.8500  -22.1700 O.2       2 ALA2        0.0000 
     19 O          12.1200  -46.5500  -22.1200 O.2       2 ALA2        0.0000 
     20 O          17.0400  -50.6000  -17.1500 O.2       2 ALA2        0.0000 
     21 O          14.9400  -50.3000  -17.0900 O.2       2 ALA2        0.0000 
     22 N          12.8400  -50.0000  -17.0300 N.am      2 ALA2        0.0000 
     23 O          16.3500  -47.6500  -18.5900 O.2       2 ALA2        0.0000 
     24 O          15.4200  -46.5700  -19.0500 O.2       2 ALA2        0.0000 
     25 O          17.1700  -49.9200  -15.8200 O.2       2 ALA2        0.0000 
     26 O          18.3400  -49.1300  -16.3300 O.2       2 ALA2        0.0000 
     27 N          15.0700  -49.6200  -15.7600 N.am      2 ALA2        0.0000 
     28 O          15.5500  -45.8900  -17.7200 O.2       2 ALA2        0.0000 
     29 O          17.9900  -52.1800  -13.0400 O.2       2 ALA2        0.0000 
     30 O          18.2300  -50.3100  -14.0200 O.2       2 ALA2        0.0000 
     31 O          18.4700  -48.4500  -15.0100 O.2       2 ALA2        0.0000 
     32 O          18.6000  -47.7700  -13.6800 O.2       2 ALA2        0.0000 
     33 O          19.6700  -48.1700  -11.8800 O.2       2 ALA2        0.0000 
     34 O          18.7300  -47.0800  -12.3500 O.2       2 ALA2        0.0000 
     35 O          18.8700  -46.4000  -11.0200 O.2       2 ALA2        0.0000 
     36 O          17.9400  -45.3200  -11.4800 O.2       2 ALA2        0.0000 
     37 OD1        14.0100  -49.2200  -17.5500 O.co2     3 ASP3        0.0000 
     38 OD1        16.2400  -48.8300  -16.2800 O.co2     3 ASP3        0.0000 
     39 OD1        15.3100  -47.7500  -16.7400 O.co2     3 ASP3        0.0000 
     40 NZ         12.2500  -45.8700  -20.7900 N.4       4 LYS4        0.0000 
     41 NZ         13.4200  -45.0900  -21.3100 N.4       4 LYS4        0.0000 
     42 NZ         11.9100  -48.9200  -17.5000 N.4       4 LYS4        0.0000 
     43 NZ         13.0800  -48.1400  -18.0200 N.4       4 LYS4        0.0000 
     44 NZ         14.2500  -47.3500  -18.5300 N.4       4 LYS4        0.0000 
     45 NZ         12.1500  -47.0500  -18.4800 N.4       4 LYS4        0.0000 
     46 NZ         13.3200  -46.2700  -19.0000 N.4       4 LYS4        0.0000 
     47 NZ         14.4900  -45.4900  -19.5200 N.4       4 LYS4        0.0000 
     48 NZ         14.3800  -46.6700  -17.2100 N.4       4 LYS4        0.0000 
     49 NZ         19.1600  -51.4000  -13.5600 N.4       4 LYS4        0.0000 
     50 NZ         18.1300  -51.5000  -11.7100 N.4       4 LYS4        0.0000 
     51 NZ         19.2900  -50.7100  -12.2300 N.4       4 LYS4        0.0000 
     52 NZ         17.1900  -50.4200  -12.1800 N.4       4 LYS4        0.0000 
     53 NZ         18.3600  -49.6300  -12.6900 N.4       4 LYS4        0.0000 
     54 NZ         18.5000  -48.9500  -11.3700 N.4       4 LYS4        0.0000 
     55 NZ         17.5700  -47.8700  -11.8300 N.4       4 LYS4        0.0000 
     56 NZ         19.8000  -47.4800  -10.5500 N.4       4 LYS4        0.0000 
     57 NZ         17.7000  -47.1800  -10.5000 N.4       4 LYS4        0.0000 
     58 NZ         16.7700  -46.1000  -10.9600 N.4       4 LYS4        0.0000 
     59 CZ         10.4700  -51.0700  -19.6400 C.ar      5 PHE5        0.0000 
     60 CZ         10.6100  -50.3900  -18.3100 C.ar      5 PHE5        0.0000 
     61 CA         11.4100  -52.1500  -19.1700 C.3       6 GLY6        0.0000 
     62 CA         12.8100  -49.5000  -20.6700 C.3       6 GLY6        0.0000 
     63 CA         13.9800  -48.7200  -21.1900 C.3       6 GLY6        0.0000 
     64 CA         13.8800  -49.9000  -18.8800 C.3       6 GLY6        0.0000 
     65 CA         11.7800  -49.6000  -18.8300 C.3       6 GLY6        0.0000 
     66 CA         12.9500  -48.8200  -19.3500 C.3       6 GLY6        0.0000 
     67 CA         14.3500  -46.1700  -20.8500 C.3       6 GLY6        0.0000 
     68 CA         19.2700  -50.2100  -15.8700 C.3       6 GLY6        0.0000 
     69 CA         17.4100  -48.0500  -16.8000 C.3       6 GLY6        0.0000 
     70 CA         16.4800  -46.9700  -17.2600 C.3       6 GLY6        0.0000 
     71 CA         17.0600  -51.1000  -13.5100 C.3       6 GLY6        0.0000 
     72 CA         17.3000  -49.2300  -14.4900 C.3       6 GLY6        0.0000 
     73 DU         13.1800  -46.9500  -20.3300 H         7 CUB7        0.0000 
@<TRIPOS>BOND
@<TRIPOS>SUBSTRUCTURE
     1 SER1        1 GROUP   
     2 ALA2       12 GROUP   
     3 ASP3       37 GROUP   
     4 LYS4       40 GROUP   
     5 PHE5       59 GROUP   
     6 GLY6       61 GROUP   
     7 CUB7       73 GROUP   
@<TRIPOS>SET

