#    Name: 6o5n_4_GDP
#    Modification time : Fri May 22 19:34:16 2020

@<TRIPOS>MOLECULE
6o5n_4_GDP
   28    30     1     0     1
SMALL
NO_CHARGES


@<TRIPOS>ATOM
      1 PB         25.5200   10.1650   43.6690 P.3       1 GDP501      0.0000 
      2 O1B        26.4210    9.3750   42.7630 O.co2     1 GDP501      0.0000 
      3 O2B        24.6640    9.2210   44.4650 O.co2     1 GDP501      0.0000 
      4 O3B        26.3330   11.0300   44.6050 O.co2     1 GDP501      0.0000 
      5 O3A        24.6440   11.0690   42.6740 O.3       1 GDP501      0.0000 
      6 PA         23.0780   11.3960   42.8030 P.3       1 GDP501      0.0000 
      7 O1A        22.2620   10.1250   42.7960 O.co2     1 GDP501      0.0000 
      8 O2A        22.7800   12.2640   44.0020 O.co2     1 GDP501      0.0000 
      9 O5'        22.8490   12.1960   41.4280 O.3       1 GDP501      0.0000 
     10 C5'        22.1520   13.4340   41.4150 C.3       1 GDP501      0.0000 
     11 C4'        21.1940   13.4230   40.2410 C.3       1 GDP501      0.0000 
     12 O4'        20.4930   12.1840   40.2710 O.3       1 GDP501      0.0000 
     13 C3'        20.1670   14.5290   40.3810 C.3       1 GDP501      0.0000 
     14 O3'        20.1790   15.3380   39.2010 O.3       1 GDP501      0.0000 
     15 C2'        18.8190   13.8570   40.5250 C.3       1 GDP501      0.0000 
     16 O2'        17.9340   14.3600   39.5210 O.3       1 GDP501      0.0000 
     17 C1'        19.0790   12.3780   40.2980 C.3       1 GDP501      0.0000 
     18 N9         18.5250   11.5440   41.3910 N.pl3     1 GDP501      0.0000 
     19 C8         19.0560   11.4110   42.6220 C.2       1 GDP501      0.0000 
     20 N7         18.3180   10.5600   43.3800 N.2       1 GDP501      0.0000 
     21 C5         17.2930   10.1280   42.6190 C.2       1 GDP501      0.0000 
     22 C6         16.1410    9.2140   42.7940 C.2       1 GDP501      0.0000 
     23 O6         15.9490    8.6240   43.8780 O.2       1 GDP501      0.0000 
     24 N1         15.3130    9.0390   41.7550 N.am      1 GDP501      0.0000 
     25 C2         15.4960    9.6610   40.5740 C.2       1 GDP501      0.0000 
     26 N2         14.6150    9.4340   39.5710 N.pl3     1 GDP501      0.0000 
     27 N3         16.5290   10.5110   40.3430 N.2       1 GDP501      0.0000 
     28 C4         17.4380   10.7780   41.3090 C.2       1 GDP501      0.0000 
@<TRIPOS>BOND
     1    1    2 ar   
     2    1    3 ar   
     3    1    4 ar   
     4    1    5 1    
     5    5    6 1    
     6    6    7 ar   
     7    6    8 ar   
     8    6    9 1    
     9    9   10 1    
    10   10   11 1    
    11   11   12 1    
    12   11   13 1    
    13   12   17 1    
    14   13   14 1    
    15   13   15 1    
    16   15   16 1    
    17   15   17 1    
    18   17   18 1    
    19   18   19 1    
    20   18   28 1    
    21   19   20 2    
    22   20   21 1    
    23   21   22 1    
    24   21   28 2    
    25   22   23 2    
    26   22   24 am   
    27   24   25 1    
    28   25   26 1    
    29   25   27 2    
    30   27   28 1    
@<TRIPOS>SUBSTRUCTURE
     1 GDP501      1 GROUP   
@<TRIPOS>SET
ATOM$ORANGE STATIC     ATOMS   COLORGROUP SYSTEM 
20 10 10 11 11 13 13 15 15 17 17 19 19 21 21 22 22 25 \
25 28 28 

