#    Name: 6o5n_2_GDP
#    Modification time : Fri May 22 19:34:11 2020

@<TRIPOS>MOLECULE
6o5n_2_GDP
   28    30     1     0     1
SMALL
NO_CHARGES


@<TRIPOS>ATOM
      1 PB         18.5550  -49.5490  -15.9740 P.3       1 GDP501      0.0000 
      2 O1B        18.9210  -50.3960  -17.1660 O.co2     1 GDP501      0.0000 
      3 O2B        18.1790  -50.4230  -14.8060 O.co2     1 GDP501      0.0000 
      4 O3B        19.7450  -48.7110  -15.5780 O.co2     1 GDP501      0.0000 
      5 O3A        17.3350  -48.5600  -16.3240 O.3       1 GDP501      0.0000 
      6 PA         15.9460  -49.0630  -16.9700 P.3       1 GDP501      0.0000 
      7 O1A        16.0530  -50.4750  -17.5030 O.co2     1 GDP501      0.0000 
      8 O2A        14.8290  -48.9640  -15.9560 O.co2     1 GDP501      0.0000 
      9 O5'        15.7060  -48.0110  -18.1660 O.3       1 GDP501      0.0000 
     10 C5'        14.5080  -47.2500  -18.2310 C.3       1 GDP501      0.0000 
     11 C4'        14.0120  -47.2120  -19.6670 C.3       1 GDP501      0.0000 
     12 O4'        13.6240  -48.5380  -20.0190 O.3       1 GDP501      0.0000 
     13 C3'        12.7720  -46.3500  -19.7890 C.3       1 GDP501      0.0000 
     14 O3'        12.7440  -45.7140  -21.0710 O.3       1 GDP501      0.0000 
     15 C2'        11.6210  -47.3250  -19.6880 C.3       1 GDP501      0.0000 
     16 O2'        10.5390  -46.9020  -20.5190 O.3       1 GDP501      0.0000 
     17 C1'        12.2070  -48.6300  -20.1920 C.3       1 GDP501      0.0000 
     18 N9         11.7090  -49.8010  -19.4320 N.pl3     1 GDP501      0.0000 
     19 C8         11.9810  -50.0950  -18.1450 C.2       1 GDP501      0.0000 
     20 N7         11.3810  -51.2560  -17.7700 N.2       1 GDP501      0.0000 
     21 C5         10.7140  -51.7260  -18.8420 C.2       1 GDP501      0.0000 
     22 C6          9.8710  -52.9030  -19.1460 C.2       1 GDP501      0.0000 
     23 O6          9.6310  -53.7650  -18.2760 O.2       1 GDP501      0.0000 
     24 N1          9.3710  -53.0160  -20.3820 N.am      1 GDP501      0.0000 
     25 C2          9.6090  -52.1050  -21.3440 C.2       1 GDP501      0.0000 
     26 N2          9.0650  -52.2900  -22.5710 N.pl3     1 GDP501      0.0000 
     27 N3         10.3720  -51.0020  -21.1390 N.2       1 GDP501      0.0000 
     28 C4         10.9360  -50.7650  -19.9320 C.2       1 GDP501      0.0000 
@<TRIPOS>BOND
     1    1    2 ar   
     2    1    3 ar   
     3    1    4 ar   
     4    1    5 1    
     5    5    6 1    
     6    6    7 ar   
     7    6    8 ar   
     8    6    9 1    
     9    9   10 1    
    10   10   11 1    
    11   11   12 1    
    12   11   13 1    
    13   12   17 1    
    14   13   14 1    
    15   13   15 1    
    16   15   16 1    
    17   15   17 1    
    18   17   18 1    
    19   18   19 1    
    20   18   28 1    
    21   19   20 2    
    22   20   21 1    
    23   21   22 1    
    24   21   28 2    
    25   22   23 2    
    26   22   24 am   
    27   24   25 1    
    28   25   26 1    
    29   25   27 2    
    30   27   28 1    
@<TRIPOS>SUBSTRUCTURE
     1 GDP501      1 GROUP   
@<TRIPOS>SET
ATOM$ORANGE STATIC     ATOMS   COLORGROUP SYSTEM 
20 10 10 11 11 13 13 15 15 17 17 19 19 21 21 22 22 25 \
25 28 28 

