#    Name: 6o5n_1_GTP_CAVITY_N1_8
#    Modification time : Fri May 22 19:34:07 2020

@<TRIPOS>MOLECULE
6o5n_1_GTP_CAVITY_N1_8
   19     0     4     0     0
SMALL
NO_CHARGES


@<TRIPOS>ATOM
      1 N          17.1700  -81.9000  -46.7900 N.am      1 ALA2        0.0000 
      2 N          17.3000  -81.2200  -45.4600 N.am      1 ALA2        0.0000 
      3 N          18.4700  -80.4300  -45.9800 N.am      1 ALA2        0.0000 
      4 N          18.3600  -81.6100  -43.6700 N.am      1 ALA2        0.0000 
      5 N          19.5300  -80.8300  -44.1900 N.am      1 ALA2        0.0000 
      6 N          18.6000  -79.7500  -44.6500 N.am      1 ALA2        0.0000 
      7 N          16.5000  -79.4500  -44.5900 N.am      1 ALA2        0.0000 
      8 N          17.6700  -78.6700  -45.1100 N.am      1 ALA2        0.0000 
      9 N          19.6600  -80.1500  -42.8600 N.am      1 ALA2        0.0000 
     10 N          18.7300  -79.0700  -43.3200 N.am      1 ALA2        0.0000 
     11 O          20.9700  -78.6800  -42.0500 O.2       1 ALA2        0.0000 
     12 CZ         15.0700  -81.6000  -46.7300 C.ar      2 PHE5        0.0000 
     13 CZ         16.3700  -80.1300  -45.9200 C.ar      2 PHE5        0.0000 
     14 CZ         17.5400  -79.3500  -46.4400 C.ar      2 PHE5        0.0000 
     15 CA         14.2700  -79.8400  -45.8700 C.3       3 GLY6        0.0000 
     16 CA         20.4600  -81.9100  -43.7200 C.3       3 GLY6        0.0000 
     17 CA         15.5700  -78.3700  -45.0600 C.3       3 GLY6        0.0000 
     18 DU         16.1300  -82.0000  -44.9400 H         4 CUB7        0.0000 
     19 DU         17.4300  -80.5300  -44.1300 H         4 CUB7        0.0000 
@<TRIPOS>BOND
@<TRIPOS>SUBSTRUCTURE
     1 ALA2        1 GROUP   
     2 PHE5       12 GROUP   
     3 GLY6       15 GROUP   
     4 CUB7       18 GROUP   
@<TRIPOS>SET

