#    Name: 6o5n_1_GTP
#    Modification time : Fri May 22 19:34:05 2020

@<TRIPOS>MOLECULE
6o5n_1_GTP
   32    34     1     0     1
SMALL
NO_CHARGES


@<TRIPOS>ATOM
      1 PG         27.0360  -73.7060  -46.3910 P.3       1 GTP501      0.0000 
      2 O1G        26.5730  -72.2810  -46.5900 O.co2     1 GTP501      0.0000 
      3 O2G        26.0410  -74.4530  -45.5350 O.co2     1 GTP501      0.0000 
      4 O3G        28.3780  -73.7160  -45.7030 O.co2     1 GTP501      0.0000 
      5 O3B        27.2100  -74.4060  -47.8350 O.3       1 GTP501      0.0000 
      6 PB         26.3030  -75.6380  -48.3460 P.3       1 GTP501      0.0000 
      7 O1B        27.1120  -76.4240  -49.3430 O.co2     1 GTP501      0.0000 
      8 O2B        25.8130  -76.5250  -47.2280 O.co2     1 GTP501      0.0000 
      9 O3A        25.0770  -74.9110  -49.0840 O.3       1 GTP501      0.0000 
     10 PA         23.8670  -75.7040  -49.7850 P.3       1 GTP501      0.0000 
     11 O1A        24.2820  -77.1050  -50.1790 O.co2     1 GTP501      0.0000 
     12 O2A        22.6620  -75.7090  -48.8720 O.co2     1 GTP501      0.0000 
     13 O5'        23.5890  -74.8140  -51.0950 O.3       1 GTP501      0.0000 
     14 C5'        22.5730  -73.8400  -51.1310 C.3       1 GTP501      0.0000 
     15 C4'        21.7730  -74.0400  -52.4090 C.3       1 GTP501      0.0000 
     16 O4'        21.6750  -75.4220  -52.6400 O.3       1 GTP501      0.0000 
     17 C3'        20.3590  -73.5080  -52.3100 C.3       1 GTP501      0.0000 
     18 O3'        20.1260  -72.6800  -53.4260 O.3       1 GTP501      0.0000 
     19 C2'        19.4520  -74.7190  -52.3750 C.3       1 GTP501      0.0000 
     20 O2'        18.4070  -74.4660  -53.2840 O.3       1 GTP501      0.0000 
     21 C1'        20.3490  -75.8270  -52.8890 C.3       1 GTP501      0.0000 
     22 N9         20.1910  -77.1080  -52.1850 N.pl3     1 GTP501      0.0000 
     23 C8         20.5380  -77.3960  -50.8900 C.2       1 GTP501      0.0000 
     24 N7         20.2650  -78.7000  -50.6480 N.2       1 GTP501      0.0000 
     25 C5         19.7670  -79.2460  -51.7800 C.2       1 GTP501      0.0000 
     26 C6         19.3300  -80.5250  -52.0900 C.2       1 GTP501      0.0000 
     27 O6         19.3610  -81.4100  -51.2380 O.2       1 GTP501      0.0000 
     28 N1         18.8610  -80.7970  -53.3580 N.am      1 GTP501      0.0000 
     29 C2         18.8290  -79.7970  -54.3120 C.2       1 GTP501      0.0000 
     30 N2         18.3790  -80.0480  -55.5380 N.pl3     1 GTP501      0.0000 
     31 N3         19.2640  -78.5270  -53.9990 N.2       1 GTP501      0.0000 
     32 C4         19.7250  -78.2600  -52.7540 C.2       1 GTP501      0.0000 
@<TRIPOS>BOND
     1    1    2 ar   
     2    1    3 ar   
     3    1    4 ar   
     4    1    5 1    
     5    5    6 1    
     6    6    7 ar   
     7    6    8 ar   
     8    6    9 1    
     9    9   10 1    
    10   10   11 ar   
    11   10   12 ar   
    12   10   13 1    
    13   13   14 1    
    14   14   15 1    
    15   15   16 1    
    16   15   17 1    
    17   16   21 1    
    18   17   18 1    
    19   17   19 1    
    20   19   20 1    
    21   19   21 1    
    22   21   22 1    
    23   22   23 1    
    24   22   32 1    
    25   23   24 2    
    26   24   25 1    
    27   25   26 1    
    28   25   32 2    
    29   26   27 2    
    30   26   28 am   
    31   28   29 1    
    32   29   30 1    
    33   29   31 2    
    34   31   32 1    
@<TRIPOS>SUBSTRUCTURE
     1 GTP501      1 GROUP   
@<TRIPOS>SET
ATOM$ORANGE STATIC     ATOMS   COLORGROUP SYSTEM 
20 14 14 15 15 17 17 19 19 21 21 23 23 25 25 26 26 29 \
29 32 32 

