#    Name: 6o5n_1_GTP_CAVITY_N1_6
#    Modification time : Fri May 22 19:34:07 2020

@<TRIPOS>MOLECULE
6o5n_1_GTP_CAVITY_N1_6
    3     0     2     0     0
SMALL
NO_CHARGES


@<TRIPOS>ATOM
      1 N          17.1700  -81.9000  -46.7900 N.am      1 ALA2        0.0000 
      2 N          18.4700  -80.4300  -45.9800 N.am      1 ALA2        0.0000 
      3 CZ         17.5400  -79.3500  -46.4400 C.ar      2 PHE5        0.0000 
@<TRIPOS>BOND
@<TRIPOS>SUBSTRUCTURE
     1 ALA2        1 GROUP   
     2 PHE5        3 GROUP   
@<TRIPOS>SET

