#    Name: 6o5n_1_GTP_CAVITY_N1_ALL
#    Modification time : Fri May 22 19:34:07 2020

@<TRIPOS>MOLECULE
6o5n_1_GTP_CAVITY_N1_ALL
   72     0     5     0     0
SMALL
NO_CHARGES


@<TRIPOS>ATOM
      1 N          17.1700  -81.9000  -46.7900 N.am      1 ALA2        0.0000 
      2 N          17.3000  -81.2200  -45.4600 N.am      1 ALA2        0.0000 
      3 N          18.4700  -80.4300  -45.9800 N.am      1 ALA2        0.0000 
      4 N          19.2900  -82.7000  -43.2000 N.am      1 ALA2        0.0000 
      5 N          18.3600  -81.6100  -43.6700 N.am      1 ALA2        0.0000 
      6 N          19.5300  -80.8300  -44.1900 N.am      1 ALA2        0.0000 
      7 N          18.6000  -79.7500  -44.6500 N.am      1 ALA2        0.0000 
      8 N          16.5000  -79.4500  -44.5900 N.am      1 ALA2        0.0000 
      9 N          17.6700  -78.6700  -45.1100 N.am      1 ALA2        0.0000 
     10 N          20.3600  -83.1000  -41.4100 N.am      1 ALA2        0.0000 
     11 N          19.6600  -80.1500  -42.8600 N.am      1 ALA2        0.0000 
     12 N          16.4000  -80.6300  -42.2800 N.am      1 ALA2        0.0000 
     13 N          17.5600  -79.8500  -42.8000 N.am      1 ALA2        0.0000 
     14 N          18.7300  -79.0700  -43.3200 N.am      1 ALA2        0.0000 
     15 N          15.4700  -79.5500  -42.7500 N.am      1 ALA2        0.0000 
     16 N          16.6300  -78.7700  -43.2600 N.am      1 ALA2        0.0000 
     17 O          20.9700  -78.6800  -42.0500 O.2       1 ALA2        0.0000 
     18 N          16.5300  -79.9500  -40.9500 N.am      1 ALA2        0.0000 
     19 N          17.7000  -79.1700  -41.4700 N.am      1 ALA2        0.0000 
     20 O          19.9300  -78.7800  -40.2000 O.2       1 ALA2        0.0000 
     21 N          16.6600  -79.2700  -39.6200 N.am      1 ALA2        0.0000 
     22 N          17.8300  -78.4900  -40.1400 N.am      1 ALA2        0.0000 
     23 O          19.0000  -77.7000  -40.6600 O.2       1 ALA2        0.0000 
     24 O          20.0600  -78.1000  -38.8700 O.2       1 ALA2        0.0000 
     25 N          17.9600  -77.8000  -38.8100 N.am      1 ALA2        0.0000 
     26 O          19.1300  -77.0200  -39.3300 O.2       1 ALA2        0.0000 
     27 N          17.0300  -76.7200  -39.2800 N.am      1 ALA2        0.0000 
     28 O          20.1900  -77.4200  -37.5400 O.2       1 ALA2        0.0000 
     29 OD1        18.0900  -77.1200  -37.4900 O.co2     2 ASP3        0.0000 
     30 OD1        19.2600  -76.3400  -38.0000 O.co2     2 ASP3        0.0000 
     31 OD1        17.1600  -76.0400  -37.9500 O.co2     2 ASP3        0.0000 
     32 CZ         15.0700  -81.6000  -46.7300 C.ar      3 PHE5        0.0000 
     33 CZ         16.3700  -80.1300  -45.9200 C.ar      3 PHE5        0.0000 
     34 CZ         17.5400  -79.3500  -46.4400 C.ar      3 PHE5        0.0000 
     35 CA         14.2700  -79.8400  -45.8700 C.3       4 GLY6        0.0000 
     36 CA         19.0500  -84.5600  -42.2200 C.3       4 GLY6        0.0000 
     37 CA         20.2200  -83.7800  -42.7400 C.3       4 GLY6        0.0000 
     38 CA         20.4600  -81.9100  -43.7200 C.3       4 GLY6        0.0000 
     39 CA         15.3300  -80.2400  -44.0800 C.3       4 GLY6        0.0000 
     40 CA         14.4000  -79.1500  -44.5400 C.3       4 GLY6        0.0000 
     41 CA         15.5700  -78.3700  -45.0600 C.3       4 GLY6        0.0000 
     42 CA         19.1900  -83.8800  -40.8900 C.3       4 GLY6        0.0000 
     43 CA         21.5300  -82.3100  -41.9300 C.3       4 GLY6        0.0000 
     44 CA         20.5900  -81.2300  -42.3900 C.3       4 GLY6        0.0000 
     45 CA         19.3200  -83.2000  -39.5600 C.3       4 GLY6        0.0000 
     46 CA         19.5600  -81.3300  -40.5500 C.3       4 GLY6        0.0000 
     47 CA         20.7300  -80.5500  -41.0600 C.3       4 GLY6        0.0000 
     48 CA         19.8000  -79.4700  -41.5300 C.3       4 GLY6        0.0000 
     49 CA         18.8700  -78.3800  -41.9900 C.3       4 GLY6        0.0000 
     50 CA         18.5200  -81.4300  -38.7000 C.3       4 GLY6        0.0000 
     51 CA         18.7600  -79.5700  -39.6800 C.3       4 GLY6        0.0000 
     52 CA         18.6500  -80.7500  -37.3700 C.3       4 GLY6        0.0000 
     53 CA         19.8200  -79.9700  -37.8900 C.3       4 GLY6        0.0000 
     54 CA         17.7200  -79.6700  -37.8300 C.3       4 GLY6        0.0000 
     55 CA         18.8900  -78.8800  -38.3500 C.3       4 GLY6        0.0000 
     56 CA         16.7900  -78.5900  -38.3000 C.3       4 GLY6        0.0000 
     57 CA         19.9500  -79.2800  -36.5600 C.3       4 GLY6        0.0000 
     58 CA         19.0200  -78.2000  -37.0200 C.3       4 GLY6        0.0000 
     59 CA         16.9200  -77.9000  -36.9700 C.3       4 GLY6        0.0000 
     60 DU         16.1300  -82.0000  -44.9400 H         5 CUB7        0.0000 
     61 DU         18.1200  -83.4800  -42.6900 H         5 CUB7        0.0000 
     62 DU         17.1900  -82.4000  -43.1500 H         5 CUB7        0.0000 
     63 DU         16.2600  -81.3200  -43.6100 H         5 CUB7        0.0000 
     64 DU         17.4300  -80.5300  -44.1300 H         5 CUB7        0.0000 
     65 DU         18.2600  -82.8000  -41.3600 H         5 CUB7        0.0000 
     66 DU         19.4300  -82.0100  -41.8800 H         5 CUB7        0.0000 
     67 DU         17.3300  -81.7200  -41.8200 H         5 CUB7        0.0000 
     68 DU         18.5000  -80.9300  -42.3400 H         5 CUB7        0.0000 
     69 DU         18.3900  -82.1100  -40.0300 H         5 CUB7        0.0000 
     70 DU         17.4600  -81.0300  -40.4900 H         5 CUB7        0.0000 
     71 DU         18.6300  -80.2500  -41.0100 H         5 CUB7        0.0000 
     72 DU         17.5900  -80.3500  -39.1600 H         5 CUB7        0.0000 
@<TRIPOS>BOND
@<TRIPOS>SUBSTRUCTURE
     1 ALA2        1 GROUP   
     2 ASP3       29 GROUP   
     3 PHE5       32 GROUP   
     4 GLY6       35 GROUP   
     5 CUB7       60 GROUP   
@<TRIPOS>SET

