#    Name: 6o5n_4_GDP_CAVITY_N1_4
#    Modification time : Fri May 22 19:34:18 2020

@<TRIPOS>MOLECULE
6o5n_4_GDP_CAVITY_N1_4
   77     0     6     0     0
SMALL
NO_CHARGES


@<TRIPOS>ATOM
      1 OG         20.8400   10.7200   40.7000 O.3       1 SER1        0.0000 
      2 OG         23.0700   11.1100   41.9800 O.3       1 SER1        0.0000 
      3 OG         22.1400   12.1900   41.5100 O.3       1 SER1        0.0000 
      4 OG         17.9400   12.7900   41.6200 O.3       1 SER1        0.0000 
      5 OG         19.1100   13.5700   41.1100 O.3       1 SER1        0.0000 
      6 OG         18.1800   14.6500   40.6400 O.3       1 SER1        0.0000 
      7 OG         19.0100   12.3900   43.4200 O.3       1 SER1        0.0000 
      8 OG         20.1800   13.1700   42.9000 O.3       1 SER1        0.0000 
      9 OG         19.2500   14.2500   42.4300 O.3       1 SER1        0.0000 
     10 OG         20.4100   15.0400   41.9200 O.3       1 SER1        0.0000 
     11 OG         19.3800   14.9400   43.7600 O.3       1 SER1        0.0000 
     12 OG         20.5500   15.7200   43.2500 O.3       1 SER1        0.0000 
     13 N          16.2700    8.7700   40.4700 N.am      2 ALA2        0.0000 
     14 O          18.8500   12.2000   38.4500 O.2       2 ALA2        0.0000 
     15 N          15.2300    8.6700   42.3100 N.am      2 ALA2        0.0000 
     16 N          16.4000    9.4600   41.8000 N.am      2 ALA2        0.0000 
     17 N          17.5700   10.2400   41.2800 N.am      2 ALA2        0.0000 
     18 O          16.6400   11.3200   40.8100 O.2       2 ALA2        0.0000 
     19 O          17.8100   12.1000   40.3000 O.2       2 ALA2        0.0000 
     20 O          18.9800   12.8900   39.7800 O.2       2 ALA2        0.0000 
     21 O          18.0500   13.9700   39.3100 O.2       2 ALA2        0.0000 
     22 O          21.9000   10.3300   42.4900 O.2       2 ALA2        0.0000 
     23 O          23.3100   12.9700   40.9900 O.2       2 ALA2        0.0000 
     24 N          23.2100   11.7900   43.3100 N.am      2 ALA2        0.0000 
     25 O          15.2600    8.1700   45.9500 O.2       2 ALA2        0.0000 
     26 O          17.6000    9.7400   44.9200 O.2       2 ALA2        0.0000 
     27 N          19.9400   11.3100   43.8800 N.am      2 ALA2        0.0000 
     28 N          21.1100   12.0900   43.3600 N.am      2 ALA2        0.0000 
     29 N          22.2700   12.8700   42.8400 N.am      2 ALA2        0.0000 
     30 N          23.3400   12.4700   44.6300 N.am      2 ALA2        0.0000 
     31 O          15.3900    8.8500   47.2800 O.2       2 ALA2        0.0000 
     32 O          16.5600    9.6400   46.7600 O.2       2 ALA2        0.0000 
     33 N          22.4100   13.5600   44.1700 N.am      2 ALA2        0.0000 
     34 O          19.1400   13.0700   44.7500 O.2       2 ALA2        0.0000 
     35 N          20.3100   13.8500   44.2300 N.am      2 ALA2        0.0000 
     36 N          21.4800   14.6400   43.7100 N.am      2 ALA2        0.0000 
     37 N          22.6500   15.4200   43.1900 N.am      2 ALA2        0.0000 
     38 N          22.5400   14.2400   45.5000 N.am      2 ALA2        0.0000 
     39 N          21.6100   15.3200   45.0400 N.am      2 ALA2        0.0000 
     40 O          22.7800   16.1000   44.5200 O.2       2 ALA2        0.0000 
     41 NZ         20.1500   13.6700   39.2600 N.4       3 LYS4        0.0000 
     42 NZ         21.3200   14.4500   38.7400 N.4       3 LYS4        0.0000 
     43 NZ         19.2200   14.7500   38.7900 N.4       3 LYS4        0.0000 
     44 NZ         20.3900   15.5400   38.2800 N.4       3 LYS4        0.0000 
     45 NZ         22.3800   14.0600   40.5300 N.4       3 LYS4        0.0000 
     46 NZ         20.2800   14.3500   40.5900 N.4       3 LYS4        0.0000 
     47 NZ         22.5100   14.7400   41.8600 N.4       3 LYS4        0.0000 
     48 CZ         15.3700    9.3500   43.6400 C.ar      4 PHE5        0.0000 
     49 CZ         16.5400   10.1400   43.1200 C.ar      4 PHE5        0.0000 
     50 CZ         17.7000   10.9200   42.6100 C.ar      4 PHE5        0.0000 
     51 CZ         17.8400   11.6000   43.9400 C.ar      4 PHE5        0.0000 
     52 CA         19.7800   11.1200   38.9100 C.3       5 GLY6        0.0000 
     53 CA         20.9500   11.9100   38.3900 C.3       5 GLY6        0.0000 
     54 CA         20.0200   12.9900   37.9300 C.3       5 GLY6        0.0000 
     55 CA         21.1900   13.7700   37.4100 C.3       5 GLY6        0.0000 
     56 CA         19.0900   14.0700   37.4700 C.3       5 GLY6        0.0000 
     57 CA         17.3300    8.3700   42.2600 C.3       5 GLY6        0.0000 
     58 CA         18.7400   11.0200   40.7600 C.3       5 GLY6        0.0000 
     59 CA         19.9100   11.8100   40.2400 C.3       5 GLY6        0.0000 
     60 CA         21.0800   12.5900   39.7200 C.3       5 GLY6        0.0000 
     61 CA         22.2500   13.3700   39.2000 C.3       5 GLY6        0.0000 
     62 CA         16.3000    8.2700   44.1100 C.3       5 GLY6        0.0000 
     63 CA         17.4700    9.0600   43.5900 C.3       5 GLY6        0.0000 
     64 CA         18.6400    9.8400   43.0700 C.3       5 GLY6        0.0000 
     65 CA         19.8000   10.6200   42.5500 C.3       5 GLY6        0.0000 
     66 CA         20.9700   11.4100   42.0300 C.3       5 GLY6        0.0000 
     67 CA         18.8700   11.7000   42.0900 C.3       5 GLY6        0.0000 
     68 CA         19.3500   15.4400   40.1200 C.3       5 GLY6        0.0000 
     69 CA         22.0400   11.0100   43.8200 C.3       5 GLY6        0.0000 
     70 CA         24.3700   12.5800   42.7900 C.3       5 GLY6        0.0000 
     71 CA         16.4300    8.9600   45.4400 C.3       5 GLY6        0.0000 
     72 CA         18.7700   10.5200   44.4000 C.3       5 GLY6        0.0000 
     73 CA         23.4400   13.6600   42.3200 C.3       5 GLY6        0.0000 
     74 CA         14.4600    9.9400   46.8200 C.3       5 GLY6        0.0000 
     75 DU         20.0400   12.4900   41.5700 H         6 CUB7        0.0000 
     76 DU         21.2100   13.2700   41.0500 H         6 CUB7        0.0000 
     77 DU         21.3400   13.9500   42.3800 H         6 CUB7        0.0000 
@<TRIPOS>BOND
@<TRIPOS>SUBSTRUCTURE
     1 SER1        1 GROUP   
     2 ALA2       13 GROUP   
     3 LYS4       41 GROUP   
     4 PHE5       48 GROUP   
     5 GLY6       52 GROUP   
     6 CUB7       75 GROUP   
@<TRIPOS>SET

