#    Name: 6c9h_2_AMP
#    Modification time : Fri May 22 19:26:25 2020

@<TRIPOS>MOLECULE
6c9h_2_AMP
   23    25     1     0     1
SMALL
NO_CHARGES


@<TRIPOS>ATOM
      1 P         -41.4680   70.1030   12.5730 P.3       1 AMP1101     0.0000 
      2 O1P       -40.4930   69.7770   11.4670 O.co2     1 AMP1101     0.0000 
      3 O2P       -40.8850   70.9390   13.6880 O.co2     1 AMP1101     0.0000 
      4 O3P       -42.3110   68.9330   13.0210 O.co2     1 AMP1101     0.0000 
      5 O5'       -42.5110   71.0820   11.8750 O.3       1 AMP1101     0.0000 
      6 C5'       -42.4890   72.4820   12.1320 C.3       1 AMP1101     0.0000 
      7 C4'       -43.1220   73.2630   11.0060 C.3       1 AMP1101     0.0000 
      8 O4'       -42.2330   73.2410    9.8580 O.3       1 AMP1101     0.0000 
      9 C3'       -44.4710   72.7340   10.5180 C.3       1 AMP1101     0.0000 
     10 O3'       -45.3070   73.8330   10.1580 O.3       1 AMP1101     0.0000 
     11 C2'       -44.0980   71.9450    9.2650 C.3       1 AMP1101     0.0000 
     12 O2'       -45.1330   71.8300    8.3110 O.3       1 AMP1101     0.0000 
     13 C1'       -42.9220   72.7530    8.7260 C.3       1 AMP1101     0.0000 
     14 N9        -41.9770   71.9680    7.9300 N.pl3     1 AMP1101     0.0000 
     15 C8        -41.2970   70.8920    8.3680 C.2       1 AMP1101     0.0000 
     16 N7        -40.5000   70.3870    7.3940 N.2       1 AMP1101     0.0000 
     17 C5        -40.6700   71.1520    6.3000 C.ar      1 AMP1101     0.0000 
     18 C6        -40.1310   71.1720    4.9210 C.ar      1 AMP1101     0.0000 
     19 N6        -39.2280   70.2470    4.5120 N.pl3     1 AMP1101     0.0000 
     20 N1        -40.5700   72.1410    4.0880 N.ar      1 AMP1101     0.0000 
     21 C2        -41.4670   73.0630    4.4860 C.ar      1 AMP1101     0.0000 
     22 N3        -41.9980   73.1060    5.7210 N.ar      1 AMP1101     0.0000 
     23 C4        -41.6470   72.1910    6.6560 C.ar      1 AMP1101     0.0000 
@<TRIPOS>BOND
     1    1    2 ar   
     2    1    3 ar   
     3    1    4 ar   
     4    1    5 1    
     5    5    6 1    
     6    6    7 1    
     7    7    8 1    
     8    7    9 1    
     9    8   13 1    
    10    9   10 1    
    11    9   11 1    
    12   11   12 1    
    13   11   13 1    
    14   13   14 1    
    15   14   15 1    
    16   14   23 1    
    17   15   16 2    
    18   16   17 1    
    19   17   18 ar   
    20   17   23 ar   
    21   18   19 1    
    22   18   20 ar   
    23   20   21 ar   
    24   21   22 ar   
    25   22   23 ar   
@<TRIPOS>SUBSTRUCTURE
     1 AMP1101     1 GROUP   
@<TRIPOS>SET
ATOM$ORANGE STATIC     ATOMS   COLORGROUP SYSTEM 
20 6 6 7 7 9 9 11 11 13 13 15 15 17 17 18 18 21 \
21 23 23 

