#    Name: 6c9h_4_AMP
#    Modification time : Fri May 22 19:26:41 2020

@<TRIPOS>MOLECULE
6c9h_4_AMP
   23    25     1     0     1
SMALL
NO_CHARGES


@<TRIPOS>ATOM
      1 P         -35.7240   70.4030   19.5560 P.3       1 AMP1103     0.0000 
      2 O1P       -35.3270   69.9740   18.1650 O.co2     1 AMP1103     0.0000 
      3 O2P       -35.6340   69.3110   20.5930 O.co2     1 AMP1103     0.0000 
      4 O3P       -36.9870   71.2290   19.6290 O.co2     1 AMP1103     0.0000 
      5 O5'       -34.5650   71.4080   19.9820 O.3       1 AMP1103     0.0000 
      6 C5'       -34.4710   72.7070   19.4080 C.3       1 AMP1103     0.0000 
      7 C4'       -34.0380   73.7310   20.4280 C.3       1 AMP1103     0.0000 
      8 O4'       -35.0520   73.8230   21.4660 O.3       1 AMP1103     0.0000 
      9 C3'       -32.7200   73.4200   21.1400 C.3       1 AMP1103     0.0000 
     10 O3'       -32.0110   74.6350   21.3790 O.3       1 AMP1103     0.0000 
     11 C2'       -33.1820   72.8280   22.4700 C.3       1 AMP1103     0.0000 
     12 O2'       -32.2570   72.9570   23.5270 O.3       1 AMP1103     0.0000 
     13 C1'       -34.4590   73.6190   22.7320 C.3       1 AMP1103     0.0000 
     14 N9        -35.4220   72.9210   23.5870 N.pl3     1 AMP1103     0.0000 
     15 C8        -35.8230   71.6430   23.4440 C.2       1 AMP1103     0.0000 
     16 N7        -36.7150   71.2980   24.4080 N.2       1 AMP1103     0.0000 
     17 C5        -36.8900   72.3750   25.1950 C.ar      1 AMP1103     0.0000 
     18 C6        -37.6930   72.7020   26.3950 C.ar      1 AMP1103     0.0000 
     19 N6        -38.5090   71.7800   26.9590 N.pl3     1 AMP1103     0.0000 
     20 N1        -37.5850   73.9480   26.9080 N.ar      1 AMP1103     0.0000 
     21 C2        -36.7780   74.8730   26.3570 C.ar      1 AMP1103     0.0000 
     22 N3        -36.0220   74.6460   25.2680 N.ar      1 AMP1103     0.0000 
     23 C4        -36.0300   73.4380   24.6540 C.ar      1 AMP1103     0.0000 
@<TRIPOS>BOND
     1    1    2 ar   
     2    1    3 ar   
     3    1    4 ar   
     4    1    5 1    
     5    5    6 1    
     6    6    7 1    
     7    7    8 1    
     8    7    9 1    
     9    8   13 1    
    10    9   10 1    
    11    9   11 1    
    12   11   12 1    
    13   11   13 1    
    14   13   14 1    
    15   14   15 1    
    16   14   23 1    
    17   15   16 2    
    18   16   17 1    
    19   17   18 ar   
    20   17   23 ar   
    21   18   19 1    
    22   18   20 ar   
    23   20   21 ar   
    24   21   22 ar   
    25   22   23 ar   
@<TRIPOS>SUBSTRUCTURE
     1 AMP1103     1 GROUP   
@<TRIPOS>SET
ATOM$ORANGE STATIC     ATOMS   COLORGROUP SYSTEM 
20 6 6 7 7 9 9 11 11 13 13 15 15 17 17 18 18 21 \
21 23 23 

