#    Name: 6c9h_3_AMP
#    Modification time : Fri May 22 19:26:36 2020

@<TRIPOS>MOLECULE
6c9h_3_AMP
   23    25     1     0     1
SMALL
NO_CHARGES


@<TRIPOS>ATOM
      1 P         -39.6060   61.9140   20.1930 P.3       1 AMP1102     0.0000 
      2 O1P       -39.6010   61.0520   18.9520 O.co2     1 AMP1102     0.0000 
      3 O2P       -38.2330   62.2260   20.7380 O.co2     1 AMP1102     0.0000 
      4 O3P       -40.5480   63.0970   20.1550 O.co2     1 AMP1102     0.0000 
      5 O5'       -40.2130   60.9670   21.3190 O.3       1 AMP1102     0.0000 
      6 C5'       -40.9830   59.8180   20.9790 C.3       1 AMP1102     0.0000 
      7 C4'       -41.3090   58.9980   22.2020 C.3       1 AMP1102     0.0000 
      8 O4'       -40.1310   58.9370   23.0520 O.3       1 AMP1102     0.0000 
      9 C3'       -42.4360   59.5510   23.0740 C.3       1 AMP1102     0.0000 
     10 O3'       -43.1580   58.4670   23.6580 O.3       1 AMP1102     0.0000 
     11 C2'       -41.6790   60.3040   24.1630 C.3       1 AMP1102     0.0000 
     12 O2'       -42.3870   60.4680   25.3730 O.3       1 AMP1102     0.0000 
     13 C1'       -40.4450   59.4250   24.3410 C.3       1 AMP1102     0.0000 
     14 N9        -39.2780   60.1440   24.8590 N.pl3     1 AMP1102     0.0000 
     15 C8        -38.5250   61.0220   24.1730 C.2       1 AMP1102     0.0000 
     16 N7        -37.5230   61.5210   24.9420 N.2       1 AMP1102     0.0000 
     17 C5        -37.6340   60.9570   26.1580 C.ar      1 AMP1102     0.0000 
     18 C6        -36.9030   61.0370   27.4430 C.ar      1 AMP1102     0.0000 
     19 N6        -35.8250   61.8450   27.5820 N.pl3     1 AMP1102     0.0000 
     20 N1        -37.3490   60.2790   28.4680 N.ar      1 AMP1102     0.0000 
     21 C2        -38.4200   59.4740   28.3400 C.ar      1 AMP1102     0.0000 
     22 N3        -39.1300   59.3520   27.2050 N.ar      1 AMP1102     0.0000 
     23 C4        -38.7950   60.0560   26.0990 C.ar      1 AMP1102     0.0000 
@<TRIPOS>BOND
     1    1    2 ar   
     2    1    3 ar   
     3    1    4 ar   
     4    1    5 1    
     5    5    6 1    
     6    6    7 1    
     7    7    8 1    
     8    7    9 1    
     9    8   13 1    
    10    9   10 1    
    11    9   11 1    
    12   11   12 1    
    13   11   13 1    
    14   13   14 1    
    15   14   15 1    
    16   14   23 1    
    17   15   16 2    
    18   16   17 1    
    19   17   18 ar   
    20   17   23 ar   
    21   18   19 1    
    22   18   20 ar   
    23   20   21 ar   
    24   21   22 ar   
    25   22   23 ar   
@<TRIPOS>SUBSTRUCTURE
     1 AMP1102     1 GROUP   
@<TRIPOS>SET
ATOM$ORANGE STATIC     ATOMS   COLORGROUP SYSTEM 
20 6 6 7 7 9 9 11 11 13 13 15 15 17 17 18 18 21 \
21 23 23 

