#    Name: 6c9h_1_STU
#    Modification time : Fri May 22 19:26:20 2020

@<TRIPOS>MOLECULE
6c9h_1_STU
   35    42     1     0     0
SMALL
NO_CHARGES


@<TRIPOS>ATOM
      1 O4        -20.5970   21.5680  -26.6620 O.3       1 STU602      0.0000 
      2 C25       -20.0040   20.5290  -25.8260 C.3       1 STU602      0.0000 
      3 C24       -21.0400   20.0020  -24.7850 C.3       1 STU602      0.0000 
      4 C23       -22.4060   20.5060  -25.1690 C.3       1 STU602      0.0000 
      5 C22       -22.3850   21.9910  -25.1040 C.3       1 STU602      0.0000 
      6 C21       -21.5480   22.5410  -26.1880 C.3       1 STU602      0.0000 
      7 C26       -22.4700   22.8470  -27.3870 C.3       1 STU602      0.0000 
      8 N2        -20.8980   23.7570  -25.6920 N.pl3     1 STU602      0.0000 
      9 C18       -19.5900   23.5770  -25.1070 C.ar      1 STU602      0.0000 
     10 C19       -18.7640   22.4830  -24.9040 C.ar      1 STU602      0.0000 
     11 C6        -17.5020   22.6480  -24.2830 C.ar      1 STU602      0.0000 
     12 C7        -17.0790   23.9310  -23.8670 C.ar      1 STU602      0.0000 
     13 C10       -17.8860   25.0070  -24.0560 C.ar      1 STU602      0.0000 
     14 C11       -19.1400   24.8410  -24.6740 C.ar      1 STU602      0.0000 
     15 C12       -20.2280   25.8670  -25.0070 C.ar      1 STU602      0.0000 
     16 C17       -21.2700   25.1580  -25.6170 C.ar      1 STU602      0.0000 
     17 C16       -22.4190   25.8420  -26.0350 C.ar      1 STU602      0.0000 
     18 C15       -22.5310   27.2090  -25.8550 C.ar      1 STU602      0.0000 
     19 C14       -21.5100   27.9230  -25.2540 C.ar      1 STU602      0.0000 
     20 C13       -20.3510   27.2660  -24.8220 C.ar      1 STU602      0.0000 
     21 C9        -17.2460   26.2980  -23.5320 C.3       1 STU602      0.0000 
     22 N1        -15.9210   25.8700  -23.0760 N.am      1 STU602      0.0000 
     23 C8        -15.8350   24.4310  -23.1900 C.2       1 STU602      0.0000 
     24 O5        -14.7630   23.6390  -22.7360 O.2       1 STU602      0.0000 
     25 C5        -16.8460   21.2690  -24.2120 C.ar      1 STU602      0.0000 
     26 C20       -17.7490   20.3770  -24.7890 C.ar      1 STU602      0.0000 
     27 C1        -17.4630   19.0180  -24.8870 C.ar      1 STU602      0.0000 
     28 C2        -16.2610   18.5370  -24.4050 C.ar      1 STU602      0.0000 
     29 C3        -15.3370   19.3960  -23.8250 C.ar      1 STU602      0.0000 
     30 C4        -15.6130   20.7720  -23.7190 C.ar      1 STU602      0.0000 
     31 N3        -18.9270   21.1050  -25.2090 N.pl3     1 STU602      0.0000 
     32 O6        -21.8870   22.3940  -23.8030 O.3       1 STU602      0.0000 
     33 C27       -22.8170   23.1770  -23.0300 C.3       1 STU602      0.0000 
     34 N4        -23.3850   19.9810  -24.2380 N.4       1 STU602      0.0000 
     35 C28       -24.7200   20.3790  -24.6360 C.3       1 STU602      0.0000 
@<TRIPOS>BOND
     1    1    2 1    
     2    1    6 1    
     3    2    3 1    
     4    2   31 1    
     5    3    4 1    
     6    4    5 1    
     7    4   34 1    
     8    5    6 1    
     9    5   32 1    
    10    6    7 1    
    11    6    8 1    
    12    8    9 1    
    13    8   16 1    
    14    9   10 ar   
    15    9   14 ar   
    16   10   11 ar   
    17   10   31 1    
    18   11   12 ar   
    19   11   25 1    
    20   12   13 ar   
    21   12   23 1    
    22   13   14 ar   
    23   13   21 1    
    24   14   15 1    
    25   15   16 ar   
    26   15   20 ar   
    27   16   17 ar   
    28   17   18 ar   
    29   18   19 ar   
    30   19   20 ar   
    31   21   22 1    
    32   22   23 am   
    33   23   24 2    
    34   25   26 ar   
    35   25   30 ar   
    36   26   27 ar   
    37   26   31 1    
    38   27   28 ar   
    39   28   29 ar   
    40   29   30 ar   
    41   32   33 1    
    42   34   35 1    
@<TRIPOS>SUBSTRUCTURE
     1 STU602      1 GROUP   
@<TRIPOS>SET

