#    Name: 6c9h_4_AMP_CAVITY_N1_4
#    Modification time : Fri May 22 19:26:43 2020

@<TRIPOS>MOLECULE
6c9h_4_AMP_CAVITY_N1_4
   88     0     6     0     0
SMALL
NO_CHARGES


@<TRIPOS>ATOM
      1 OG        -34.0300   71.5200   15.2100 O.3       1 SER1        0.0000 
      2 OG        -33.4500   72.2600   16.3800 O.3       1 SER1        0.0000 
      3 OG        -34.5000   70.9800   17.7100 O.3       1 SER1        0.0000 
      4 OG        -34.8000   72.2900   17.0400 O.3       1 SER1        0.0000 
      5 OG        -35.8500   71.0100   18.3600 O.3       1 SER1        0.0000 
      6 OG        -36.1500   72.3200   17.6900 O.3       1 SER1        0.0000 
      7 OG        -37.2000   71.0400   19.0200 O.3       1 SER1        0.0000 
      8 OG        -34.9700   70.4400   20.2100 O.3       1 SER1        0.0000 
      9 OG        -36.3200   70.4700   20.8600 O.3       1 SER1        0.0000 
     10 OG        -33.3400   72.4600   20.0500 O.3       1 SER1        0.0000 
     11 OG        -34.3900   71.1800   21.3800 O.3       1 SER1        0.0000 
     12 OG        -34.6900   72.4900   20.7000 O.3       1 SER1        0.0000 
     13 OG        -35.4300   69.9000   22.7100 O.3       1 SER1        0.0000 
     14 OG        -35.7400   71.2100   22.0300 O.3       1 SER1        0.0000 
     15 OG        -36.7900   69.9300   23.3600 O.3       1 SER1        0.0000 
     16 OG        -33.5000   70.6200   23.2200 O.3       1 SER1        0.0000 
     17 OG        -33.8000   71.9200   22.5500 O.3       1 SER1        0.0000 
     18 OG        -32.1700   73.9400   22.3900 O.3       1 SER1        0.0000 
     19 OG        -32.4700   75.2400   21.7100 O.3       1 SER1        0.0000 
     20 OG        -33.2200   72.6600   23.7200 O.3       1 SER1        0.0000 
     21 OG        -33.5200   73.9600   23.0400 O.3       1 SER1        0.0000 
     22 OG        -33.8200   75.2700   22.3700 O.3       1 SER1        0.0000 
     23 OG        -34.8700   73.9900   23.6900 O.3       1 SER1        0.0000 
     24 N         -35.8700   74.3600   18.1800 N.am      2 ALA2        0.0000 
     25 N         -36.1700   75.6700   17.5100 N.am      2 ALA2        0.0000 
     26 O         -36.6200   71.7800   20.1900 O.2       2 ALA2        0.0000 
     27 N         -36.9200   73.0800   19.5100 N.am      2 ALA2        0.0000 
     28 N         -36.6400   75.1300   20.0000 N.am      2 ALA2        0.0000 
     29 O         -37.0900   71.2400   22.6800 O.2       2 ALA2        0.0000 
     30 N         -37.5500   70.7000   25.1800 N.am      2 ALA2        0.0000 
     31 N         -38.3200   71.4600   27.0000 N.am      2 ALA2        0.0000 
     32 N         -38.6200   72.7700   26.3300 N.am      2 ALA2        0.0000 
     33 N         -35.9400   76.0600   24.8400 N.am      2 ALA2        0.0000 
     34 N         -36.2400   77.3700   24.1700 N.am      2 ALA2        0.0000 
     35 O         -36.6900   73.4800   26.8400 O.2       2 ALA2        0.0000 
     36 O         -36.9900   74.7900   26.1700 O.2       2 ALA2        0.0000 
     37 N         -37.2900   76.0900   25.4900 N.am      2 ALA2        0.0000 
     38 N         -37.5900   77.4000   24.8200 N.am      2 ALA2        0.0000 
     39 N         -37.7400   72.2000   28.1700 N.am      2 ALA2        0.0000 
     40 O         -38.0400   73.5100   27.5000 O.2       2 ALA2        0.0000 
     41 N         -35.3600   76.8000   26.0100 N.am      2 ALA2        0.0000 
     42 N         -35.6600   78.1100   25.3400 N.am      2 ALA2        0.0000 
     43 N         -36.4100   75.5200   27.3400 N.am      2 ALA2        0.0000 
     44 NZ        -32.7500   73.2000   21.2200 N.4       3 LYS4        0.0000 
     45 CZ        -36.4500   73.6200   17.0100 C.ar      4 PHE5        0.0000 
     46 CZ        -37.5000   72.3400   18.3400 C.ar      4 PHE5        0.0000 
     47 CA        -32.8700   73.0000   17.5500 C.3       5 GLY6        0.0000 
     48 CA        -33.9200   71.7200   18.8800 C.3       5 GLY6        0.0000 
     49 CA        -34.2200   73.0300   18.2000 C.3       5 GLY6        0.0000 
     50 CA        -36.0400   72.5200   21.3600 C.3       5 GLY6        0.0000 
     51 CA        -36.3400   73.8200   20.6800 C.3       5 GLY6        0.0000 
     52 CA        -36.4800   68.6300   24.0300 C.3       5 GLY6        0.0000 
     53 CA        -34.8500   70.6400   23.8800 C.3       5 GLY6        0.0000 
     54 CA        -35.4600   73.2500   22.5200 C.3       5 GLY6        0.0000 
     55 CA        -35.7600   74.5600   21.8500 C.3       5 GLY6        0.0000 
     56 CA        -36.2000   70.6700   24.5300 C.3       5 GLY6        0.0000 
     57 CA        -36.5000   71.9800   23.8500 C.3       5 GLY6        0.0000 
     58 CA        -37.8500   72.0000   24.5100 C.3       5 GLY6        0.0000 
     59 CA        -34.5700   72.6900   24.3700 C.3       5 GLY6        0.0000 
     60 CA        -35.1700   75.3000   23.0200 C.3       5 GLY6        0.0000 
     61 CA        -35.6200   71.4100   25.7000 C.3       5 GLY6        0.0000 
     62 CA        -35.9200   72.7100   25.0200 C.3       5 GLY6        0.0000 
     63 CA        -36.2200   74.0200   24.3500 C.3       5 GLY6        0.0000 
     64 CA        -36.5200   75.3200   23.6700 C.3       5 GLY6        0.0000 
     65 CA        -36.8300   76.6300   23.0000 C.3       5 GLY6        0.0000 
     66 CA        -36.9700   71.4400   26.3500 C.3       5 GLY6        0.0000 
     67 CA        -37.2700   72.7400   25.6800 C.3       5 GLY6        0.0000 
     68 CA        -33.9900   73.4300   25.5400 C.3       5 GLY6        0.0000 
     69 CA        -34.2900   74.7300   24.8600 C.3       5 GLY6        0.0000 
     70 CA        -34.5900   76.0400   24.1900 C.3       5 GLY6        0.0000 
     71 CA        -35.3400   73.4500   26.1900 C.3       5 GLY6        0.0000 
     72 CA        -35.6400   74.7600   25.5200 C.3       5 GLY6        0.0000 
     73 CA        -35.0600   75.5000   26.6900 C.3       5 GLY6        0.0000 
     74 CA        -36.1100   74.2200   28.0100 C.3       5 GLY6        0.0000 
     75 DU        -33.7500   73.5700   15.7100 H         6 CUB7        0.0000 
     76 DU        -35.1000   73.5900   16.3600 H         6 CUB7        0.0000 
     77 DU        -33.1700   74.3100   16.8800 H         6 CUB7        0.0000 
     78 DU        -34.5200   74.3300   17.5300 H         6 CUB7        0.0000 
     79 DU        -34.8200   75.6400   16.8500 H         6 CUB7        0.0000 
     80 DU        -35.2700   71.7500   19.5300 H         6 CUB7        0.0000 
     81 DU        -35.5700   73.0500   18.8600 H         6 CUB7        0.0000 
     82 DU        -33.6400   73.7700   19.3700 H         6 CUB7        0.0000 
     83 DU        -34.9900   73.7900   20.0300 H         6 CUB7        0.0000 
     84 DU        -35.2900   75.1000   19.3500 H         6 CUB7        0.0000 
     85 DU        -33.0600   74.5000   20.5400 H         6 CUB7        0.0000 
     86 DU        -34.1000   73.2300   21.8700 H         6 CUB7        0.0000 
     87 DU        -34.4100   74.5300   21.2000 H         6 CUB7        0.0000 
     88 DU        -35.1500   71.9500   23.2000 H         6 CUB7        0.0000 
@<TRIPOS>BOND
@<TRIPOS>SUBSTRUCTURE
     1 SER1        1 GROUP   
     2 ALA2       24 GROUP   
     3 LYS4       44 GROUP   
     4 PHE5       45 GROUP   
     5 GLY6       47 GROUP   
     6 CUB7       75 GROUP   
@<TRIPOS>SET

