#    Name: 5yjw_2_SMA
#    Modification time : Fri May 22 19:26:44 2020

@<TRIPOS>MOLECULE
5yjw_2_SMA
   37    38     1     0     0
SMALL
NO_CHARGES


@<TRIPOS>ATOM
      1 C2         -4.5720  -29.0370   -3.0440 C.2       1 SMA626      0.0000 
      2 C3         -3.7950  -30.1860   -2.8760 C.2       1 SMA626      0.0000 
      3 C3M        -2.5030  -30.2270   -3.3890 C.3       1 SMA626      0.0000 
      4 C4         -4.3010  -31.2910   -2.1950 C.2       1 SMA626      0.0000 
      5 C4A        -5.5900  -31.2100   -1.6820 C.ar      1 SMA626      0.0000 
      6 C5         -6.1890  -32.2450   -0.9550 C.ar      1 SMA626      0.0000 
      7 C5M        -4.2530  -33.2180   -0.0520 C.3       1 SMA626      0.0000 
      8 C6         -7.4870  -32.1260   -0.4470 C.ar      1 SMA626      0.0000 
      9 C7         -8.1950  -30.9460   -0.6610 C.ar      1 SMA626      0.0000 
     10 C7M        -9.6130  -31.4880    0.9520 C.3       1 SMA626      0.0000 
     11 C8         -7.6090  -29.9220   -1.3680 C.ar      1 SMA626      0.0000 
     12 C8A        -6.3300  -30.0500   -1.8660 C.ar      1 SMA626      0.0000 
     13 C9         -4.1970  -27.8950   -3.6970 C.3       1 SMA626      0.0000 
     14 C10        -5.3360  -26.9550   -3.3340 C.3       1 SMA626      0.0000 
     15 C11        -4.8240  -25.5510   -3.6600 C.3       1 SMA626      0.0000 
     16 C12        -5.6200  -24.4650   -2.9180 C.3       1 SMA626      0.0000 
     17 C13        -6.3750  -23.6240   -3.9580 C.3       1 SMA626      0.0000 
     18 C14        -7.3580  -22.6480   -3.3210 C.3       1 SMA626      0.0000 
     19 C15        -7.5730  -21.5030   -4.3190 C.2       1 SMA626      0.0000 
     20 C16        -8.7670  -21.5470   -5.2720 C.2       1 SMA626      0.0000 
     21 C17        -9.7400  -22.7200   -5.1830 C.2       1 SMA626      0.0000 
     22 C18       -10.9610  -22.8080   -6.1010 C.2       1 SMA626      0.0000 
     23 C19       -11.2510  -21.7260   -7.1430 C.2       1 SMA626      0.0000 
     24 C20       -10.3290  -20.5140   -7.2970 C.2       1 SMA626      0.0000 
     25 C21       -10.6500  -19.4460   -8.3460 C.3       1 SMA626      0.0000 
     26 C22        -3.3580  -25.4750   -3.2720 C.3       1 SMA626      0.0000 
     27 C23        -7.6910  -25.4590   -2.7750 C.3       1 SMA626      0.0000 
     28 C24        -5.3780  -22.7800   -4.7260 C.3       1 SMA626      0.0000 
     29 C25        -7.5610  -20.9720   -1.7150 C.3       1 SMA626      0.0000 
     30 C26       -12.4860  -21.8570   -8.0370 C.3       1 SMA626      0.0000 
     31 O1         -5.8340  -28.9920   -2.5490 O.3       1 SMA626      0.0000 
     32 O4         -3.6140  -32.3000   -2.0320 O.2       1 SMA626      0.0000 
     33 O5         -5.4700  -33.3850   -0.7750 O.3       1 SMA626      0.0000 
     34 O7         -9.4530  -30.7130   -0.2180 O.3       1 SMA626      0.0000 
     35 O8         -8.3030  -28.7680   -1.5760 O.3       1 SMA626      0.0000 
     36 O12        -6.5480  -25.0640   -2.0160 O.3       1 SMA626      0.0000 
     37 O14        -6.8210  -22.1340   -2.1010 O.3       1 SMA626      0.0000 
@<TRIPOS>BOND
     1    1    2 2    
     2    1   13 1    
     3    1   31 1    
     4    2    3 1    
     5    2    4 1    
     6    4    5 1    
     7    4   32 2    
     8    5    6 ar   
     9    5   12 ar   
    10    6    8 ar   
    11    6   33 1    
    12    7   33 1    
    13    8    9 ar   
    14    9   11 ar   
    15    9   34 1    
    16   10   34 1    
    17   11   12 ar   
    18   11   35 1    
    19   12   31 1    
    20   13   14 1    
    21   14   15 1    
    22   15   16 1    
    23   15   26 1    
    24   16   17 1    
    25   16   36 1    
    26   17   18 1    
    27   17   28 1    
    28   18   19 1    
    29   18   37 1    
    30   19   20 2    
    31   20   21 1    
    32   21   22 2    
    33   22   23 1    
    34   23   24 2    
    35   23   30 1    
    36   24   25 1    
    37   27   36 1    
    38   29   37 1    
@<TRIPOS>SUBSTRUCTURE
     1 SMA626      1 GROUP   
@<TRIPOS>SET

