#    Name: 6nor_6_NAD
#    Modification time : Fri May 22 19:34:29 2020

@<TRIPOS>MOLECULE
6nor_6_NAD
   44    48     1     0     1
SMALL
NO_CHARGES


@<TRIPOS>ATOM
      1 PA          8.4090  -47.4080   -5.9130 P.3       1 NAD401      0.0000 
      2 O1A         9.0980  -48.7620   -5.7010 O.co2     1 NAD401      0.0000 
      3 O2A         9.0630  -46.3350   -5.1130 O.co2     1 NAD401      0.0000 
      4 O5B         8.4740  -47.1090   -7.4680 O.3       1 NAD401      0.0000 
      5 C5B         7.7190  -46.0360   -8.0120 C.3       1 NAD401      0.0000 
      6 C4B         8.3260  -45.7430   -9.4190 C.3       1 NAD401      0.0000 
      7 O4B         7.7140  -44.7380  -10.0000 O.3       1 NAD401      0.0000 
      8 C3B         9.7710  -45.3050   -9.2770 C.3       1 NAD401      0.0000 
      9 O3B        10.5830  -46.1400  -10.0090 O.3       1 NAD401      0.0000 
     10 C2B         9.7760  -43.8400   -9.8430 C.3       1 NAD401      0.0000 
     11 O2B        11.0640  -43.5930  -10.5150 O.3       1 NAD401      0.0000 
     12 C1B         8.7960  -43.8010  -10.6800 C.3       1 NAD401      0.0000 
     13 N9A         8.1280  -42.5100  -10.8150 N.pl3     1 NAD401      0.0000 
     14 C8A         7.9840  -41.5280   -9.9000 C.2       1 NAD401      0.0000 
     15 N7A         7.2420  -40.5460  -10.4390 N.2       1 NAD401      0.0000 
     16 C5A         6.9260  -40.9070  -11.7000 C.ar      1 NAD401      0.0000 
     17 C6A         6.2260  -40.2740  -12.6960 C.ar      1 NAD401      0.0000 
     18 N6A         5.6090  -39.0410  -12.6530 N.pl3     1 NAD401      0.0000 
     19 N1A         6.0550  -40.8490  -13.8770 N.ar      1 NAD401      0.0000 
     20 C2A         6.5950  -42.0700  -14.1150 C.ar      1 NAD401      0.0000 
     21 N3A         7.2940  -42.6920  -13.1400 N.ar      1 NAD401      0.0000 
     22 C4A         7.4670  -42.1210  -11.9310 C.ar      1 NAD401      0.0000 
     23 O3          6.9100  -47.4530   -5.4890 O.3       1 NAD401      0.0000 
     24 PN          5.9480  -48.7310   -5.4360 P.3       1 NAD401      0.0000 
     25 O1N         6.1720  -49.5710   -6.6630 O.co2     1 NAD401      0.0000 
     26 O2N         6.1270  -49.5150   -4.1610 O.co2     1 NAD401      0.0000 
     27 O5D         4.4970  -48.1480   -5.4800 O.3       1 NAD401      0.0000 
     28 C5D         3.9710  -47.4520   -6.6020 C.3       1 NAD401      0.0000 
     29 C4D         2.4350  -47.5740   -6.5360 C.3       1 NAD401      0.0000 
     30 O4D         2.0670  -48.8020   -6.3040 O.3       1 NAD401      0.0000 
     31 C3D         1.8770  -46.7350   -5.3380 C.3       1 NAD401      0.0000 
     32 O3D         0.7290  -46.1740   -5.6420 O.3       1 NAD401      0.0000 
     33 C2D         1.6600  -47.8000   -4.2560 C.3       1 NAD401      0.0000 
     34 O2D         0.6360  -47.2990   -3.2970 O.3       1 NAD401      0.0000 
     35 C1D         1.2200  -48.8220   -4.9390 C.3       1 NAD401      0.0000 
     36 N1N         1.5090  -50.0460   -4.2620 N.pl3     1 NAD401      0.0000 
     37 C2N         0.5670  -51.0630   -4.2390 C.ar      1 NAD401      0.0000 
     38 C3N         0.8620  -52.2630   -3.5750 C.ar      1 NAD401      0.0000 
     39 C7N        -0.1870  -53.3840   -3.5230 C.2       1 NAD401      0.0000 
     40 O7N        -1.1920  -53.3100   -4.1360 O.2       1 NAD401      0.0000 
     41 N7N         0.0480  -54.5110   -2.7030 N.am      1 NAD401      0.0000 
     42 C4N         2.0710  -52.4390   -2.9530 C.ar      1 NAD401      0.0000 
     43 C5N         3.0220  -51.4220   -2.9880 C.ar      1 NAD401      0.0000 
     44 C6N         2.7230  -50.2190   -3.6490 C.ar      1 NAD401      0.0000 
@<TRIPOS>BOND
     1    1    2 ar   
     2    1    3 ar   
     3    1    4 1    
     4    1   23 1    
     5    4    5 1    
     6    5    6 1    
     7    6    7 1    
     8    6    8 1    
     9    7   12 1    
    10    8    9 1    
    11    8   10 1    
    12   10   11 1    
    13   10   12 1    
    14   12   13 1    
    15   13   14 1    
    16   13   22 1    
    17   14   15 2    
    18   15   16 1    
    19   16   17 ar   
    20   16   22 ar   
    21   17   18 1    
    22   17   19 ar   
    23   19   20 ar   
    24   20   21 ar   
    25   21   22 ar   
    26   23   24 1    
    27   24   25 ar   
    28   24   26 ar   
    29   24   27 1    
    30   27   28 1    
    31   28   29 1    
    32   29   30 1    
    33   29   31 1    
    34   30   35 1    
    35   31   32 1    
    36   31   33 1    
    37   33   34 1    
    38   33   35 1    
    39   35   36 1    
    40   36   37 ar   
    41   36   44 ar   
    42   37   38 ar   
    43   38   39 1    
    44   38   42 ar   
    45   39   40 2    
    46   39   41 am   
    47   42   43 ar   
    48   43   44 ar   
@<TRIPOS>SUBSTRUCTURE
     1 NAD401      1 GROUP   
@<TRIPOS>SET
ATOM$ORANGE STATIC     ATOMS   COLORGROUP SYSTEM 
42 5 5 6 6 8 8 10 10 12 12 14 14 16 16 17 17 20 \
20 22 22 28 28 29 29 31 31 33 33 35 35 37 37 38 38 39 \
39 42 42 43 43 44 44 

