#    Name: 6nor_5_NAD
#    Modification time : Fri May 22 19:34:20 2020

@<TRIPOS>MOLECULE
6nor_5_NAD
   44    48     1     0     1
SMALL
NO_CHARGES


@<TRIPOS>ATOM
      1 PA         49.0890  -59.8600    8.8630 P.3       1 NAD401      0.0000 
      2 O1A        50.5510  -59.8660    8.3410 O.co2     1 NAD401      0.0000 
      3 O2A        48.3760  -61.0740    8.3920 O.co2     1 NAD401      0.0000 
      4 O5B        49.1060  -59.7930   10.4450 O.3       1 NAD401      0.0000 
      5 C5B        47.8600  -59.8810   11.1310 C.3       1 NAD401      0.0000 
      6 C4B        48.1470  -60.5270   12.5140 C.3       1 NAD401      0.0000 
      7 O4B        47.0940  -60.4550   13.2780 O.3       1 NAD401      0.0000 
      8 C3B        48.4150  -61.9990   12.3270 C.3       1 NAD401      0.0000 
      9 O3B        49.6160  -62.3280   12.9000 O.3       1 NAD401      0.0000 
     10 C2B        47.2460  -62.7190   13.0650 C.3       1 NAD401      0.0000 
     11 O2B        47.7640  -63.9650   13.6810 O.3       1 NAD401      0.0000 
     12 C1B        46.9200  -61.8830   13.9660 C.3       1 NAD401      0.0000 
     13 N9A        45.5190  -61.9940   14.3490 N.pl3     1 NAD401      0.0000 
     14 C8A        44.4610  -62.4040   13.6210 C.2       1 NAD401      0.0000 
     15 N7A        43.3580  -62.3050   14.3860 N.2       1 NAD401      0.0000 
     16 C5A        43.7430  -61.8290   15.5780 C.ar      1 NAD401      0.0000 
     17 C6A        43.0280  -61.5470   16.7010 C.ar      1 NAD401      0.0000 
     18 N6A        41.6700  -61.6990   16.8740 N.pl3     1 NAD401      0.0000 
     19 N1A        43.6410  -61.0710   17.7740 N.ar      1 NAD401      0.0000 
     20 C2A        44.9890  -60.8690   17.7600 C.ar      1 NAD401      0.0000 
     21 N3A        45.6990  -61.1520   16.6510 N.ar      1 NAD401      0.0000 
     22 C4A        45.0720  -61.6290   15.5600 C.ar      1 NAD401      0.0000 
     23 O3         48.3280  -58.6160    8.3280 O.3       1 NAD401      0.0000 
     24 PN         48.9060  -57.1390    8.1990 P.3       1 NAD401      0.0000 
     25 O1N        49.5500  -56.9770    6.8610 O.co2     1 NAD401      0.0000 
     26 O2N        49.9070  -56.8150    9.2940 O.co2     1 NAD401      0.0000 
     27 O5D        47.6730  -56.2110    8.3460 O.3       1 NAD401      0.0000 
     28 C5D        47.1190  -56.0090    9.6380 C.3       1 NAD401      0.0000 
     29 C4D        46.3950  -54.6520    9.6480 C.3       1 NAD401      0.0000 
     30 O4D        47.2060  -53.7080    9.2770 O.3       1 NAD401      0.0000 
     31 C3D        45.2440  -54.6530    8.5960 C.3       1 NAD401      0.0000 
     32 O3D        44.2170  -53.9910    9.0760 O.3       1 NAD401      0.0000 
     33 C2D        45.8430  -53.9010    7.3920 C.3       1 NAD401      0.0000 
     34 O2D        44.7390  -53.2910    6.5760 O.3       1 NAD401      0.0000 
     35 C1D        46.6010  -53.0000    7.9530 C.3       1 NAD401      0.0000 
     36 N1N        47.7080  -52.6240    7.1230 N.pl3     1 NAD401      0.0000 
     37 C2N        48.0550  -51.2730    6.9920 C.ar      1 NAD401      0.0000 
     38 C3N        49.1480  -50.9060    6.1950 C.ar      1 NAD401      0.0000 
     39 C7N        49.5500  -49.4200    6.0220 C.2       1 NAD401      0.0000 
     40 O7N        49.1090  -48.5760    6.7180 O.2       1 NAD401      0.0000 
     41 N7N        50.4660  -49.0410    5.0000 N.am      1 NAD401      0.0000 
     42 C4N        49.8650  -51.8780    5.5470 C.ar      1 NAD401      0.0000 
     43 C5N        49.5340  -53.2260    5.6820 C.ar      1 NAD401      0.0000 
     44 C6N        48.4440  -53.5960    6.4830 C.ar      1 NAD401      0.0000 
@<TRIPOS>BOND
     1    1    2 ar   
     2    1    3 ar   
     3    1    4 1    
     4    1   23 1    
     5    4    5 1    
     6    5    6 1    
     7    6    7 1    
     8    6    8 1    
     9    7   12 1    
    10    8    9 1    
    11    8   10 1    
    12   10   11 1    
    13   10   12 1    
    14   12   13 1    
    15   13   14 1    
    16   13   22 1    
    17   14   15 2    
    18   15   16 1    
    19   16   17 ar   
    20   16   22 ar   
    21   17   18 1    
    22   17   19 ar   
    23   19   20 ar   
    24   20   21 ar   
    25   21   22 ar   
    26   23   24 1    
    27   24   25 ar   
    28   24   26 ar   
    29   24   27 1    
    30   27   28 1    
    31   28   29 1    
    32   29   30 1    
    33   29   31 1    
    34   30   35 1    
    35   31   32 1    
    36   31   33 1    
    37   33   34 1    
    38   33   35 1    
    39   35   36 1    
    40   36   37 ar   
    41   36   44 ar   
    42   37   38 ar   
    43   38   39 1    
    44   38   42 ar   
    45   39   40 2    
    46   39   41 am   
    47   42   43 ar   
    48   43   44 ar   
@<TRIPOS>SUBSTRUCTURE
     1 NAD401      1 GROUP   
@<TRIPOS>SET
ATOM$ORANGE STATIC     ATOMS   COLORGROUP SYSTEM 
42 5 5 6 6 8 8 10 10 12 12 14 14 16 16 17 17 20 \
20 22 22 28 28 29 29 31 31 33 33 35 35 37 37 38 38 39 \
39 42 42 43 43 44 44 

