#    Name: 6nor_4_NAD
#    Modification time : Fri May 22 19:34:14 2020

@<TRIPOS>MOLECULE
6nor_4_NAD
   44    48     1     0     1
SMALL
NO_CHARGES


@<TRIPOS>ATOM
      1 PA         19.2410  -53.6770  -50.7360 P.3       1 NAD401      0.0000 
      2 O1A        20.3720  -52.7130  -51.1740 O.co2     1 NAD401      0.0000 
      3 O2A        17.9510  -53.1770  -51.2960 O.co2     1 NAD401      0.0000 
      4 O5B        19.1620  -53.7420  -49.1500 O.3       1 NAD401      0.0000 
      5 C5B        20.2700  -54.2600  -48.4090 C.3       1 NAD401      0.0000 
      6 C4B        20.3110  -53.5280  -47.0360 C.3       1 NAD401      0.0000 
      7 O4B        21.2630  -54.0090  -46.2840 O.3       1 NAD401      0.0000 
      8 C3B        20.6690  -52.0740  -47.2470 C.3       1 NAD401      0.0000 
      9 O3B        19.5770  -51.2670  -47.0110 O.3       1 NAD401      0.0000 
     10 C2B        21.8520  -51.7770  -46.2620 C.3       1 NAD401      0.0000 
     11 O2B        21.6080  -50.5040  -45.5240 O.3       1 NAD401      0.0000 
     12 C1B        21.8660  -52.7780  -45.4670 C.3       1 NAD401      0.0000 
     13 N9A        23.2280  -53.1380  -45.0870 N.pl3     1 NAD401      0.0000 
     14 C8A        24.3600  -53.0890  -45.8200 C.2       1 NAD401      0.0000 
     15 N7A        25.3670  -53.5440  -45.0550 N.2       1 NAD401      0.0000 
     16 C5A        24.8600  -53.8770  -43.8510 C.ar      1 NAD401      0.0000 
     17 C6A        25.4450  -54.3830  -42.7160 C.ar      1 NAD401      0.0000 
     18 N6A        26.7770  -54.6920  -42.5160 N.pl3     1 NAD401      0.0000 
     19 N1A        24.7100  -54.6300  -41.6440 N.ar      1 NAD401      0.0000 
     20 C2A        23.3680  -54.3810  -41.6650 C.ar      1 NAD401      0.0000 
     21 N3A        22.7890  -53.8800  -42.7760 N.ar      1 NAD401      0.0000 
     22 C4A        23.5360  -53.6290  -43.8700 C.ar      1 NAD401      0.0000 
     23 O3         19.5660  -55.1130  -51.2650 O.3       1 NAD401      0.0000 
     24 PN         18.5180  -56.3030  -51.4680 P.3       1 NAD401      0.0000 
     25 O1N        17.8900  -56.1770  -52.8210 O.co2     1 NAD401      0.0000 
     26 O2N        17.4410  -56.2730  -50.3830 O.co2     1 NAD401      0.0000 
     27 O5D        19.3000  -57.6530  -51.3760 O.3       1 NAD401      0.0000 
     28 C5D        19.8780  -58.0490  -50.1390 C.3       1 NAD401      0.0000 
     29 C4D        20.1760  -59.5620  -50.1950 C.3       1 NAD401      0.0000 
     30 O4D        19.1180  -60.2020  -50.5640 O.3       1 NAD401      0.0000 
     31 C3D        21.2540  -59.8720  -51.2850 C.3       1 NAD401      0.0000 
     32 O3D        22.1020  -60.7600  -50.8140 O.3       1 NAD401      0.0000 
     33 C2D        20.4830  -60.4520  -52.4850 C.3       1 NAD401      0.0000 
     34 O2D        21.3180  -61.4960  -53.1860 O.3       1 NAD401      0.0000 
     35 C1D        19.4330  -60.9990  -51.9400 C.3       1 NAD401      0.0000 
     36 N1N        18.2910  -60.9500  -52.8120 N.pl3     1 NAD401      0.0000 
     37 C2N        17.5630  -62.1120  -53.0400 C.ar      1 NAD401      0.0000 
     38 C3N        16.4430  -62.0950  -53.8830 C.ar      1 NAD401      0.0000 
     39 C7N        15.6670  -63.4150  -54.1130 C.2       1 NAD401      0.0000 
     40 O7N        15.9090  -64.3450  -53.4290 O.2       1 NAD401      0.0000 
     41 N7N        14.6740  -63.5290  -55.1350 N.am      1 NAD401      0.0000 
     42 C4N        16.0600  -60.9230  -54.4950 C.ar      1 NAD401      0.0000 
     43 C5N        16.7750  -59.7520  -54.2620 C.ar      1 NAD401      0.0000 
     44 C6N        17.9010  -59.7780  -53.4160 C.ar      1 NAD401      0.0000 
@<TRIPOS>BOND
     1    1    2 ar   
     2    1    3 ar   
     3    1    4 1    
     4    1   23 1    
     5    4    5 1    
     6    5    6 1    
     7    6    7 1    
     8    6    8 1    
     9    7   12 1    
    10    8    9 1    
    11    8   10 1    
    12   10   11 1    
    13   10   12 1    
    14   12   13 1    
    15   13   14 1    
    16   13   22 1    
    17   14   15 2    
    18   15   16 1    
    19   16   17 ar   
    20   16   22 ar   
    21   17   18 1    
    22   17   19 ar   
    23   19   20 ar   
    24   20   21 ar   
    25   21   22 ar   
    26   23   24 1    
    27   24   25 ar   
    28   24   26 ar   
    29   24   27 1    
    30   27   28 1    
    31   28   29 1    
    32   29   30 1    
    33   29   31 1    
    34   30   35 1    
    35   31   32 1    
    36   31   33 1    
    37   33   34 1    
    38   33   35 1    
    39   35   36 1    
    40   36   37 ar   
    41   36   44 ar   
    42   37   38 ar   
    43   38   39 1    
    44   38   42 ar   
    45   39   40 2    
    46   39   41 am   
    47   42   43 ar   
    48   43   44 ar   
@<TRIPOS>SUBSTRUCTURE
     1 NAD401      1 GROUP   
@<TRIPOS>SET
ATOM$ORANGE STATIC     ATOMS   COLORGROUP SYSTEM 
42 5 5 6 6 8 8 10 10 12 12 14 14 16 16 17 17 20 \
20 22 22 28 28 29 29 31 31 33 33 35 35 37 37 38 38 39 \
39 42 42 43 43 44 44 

