#    Name: 6nor_1_NAD_CAVITY_N1_12
#    Modification time : Fri May 22 19:33:50 2020

@<TRIPOS>MOLECULE
6nor_1_NAD_CAVITY_N1_12
  139     0     7     0     0
SMALL
NO_CHARGES


@<TRIPOS>ATOM
      1 OG         11.0000  -12.8100  -26.9500 O.3       1 SER1        0.0000 
      2 OG         10.1500  -13.5700  -25.9700 O.3       1 SER1        0.0000 
      3 OG         19.0100  -15.9100  -24.7200 O.3       1 SER1        0.0000 
      4 OG         18.1700  -16.6600  -23.7400 O.3       1 SER1        0.0000 
      5 OG         18.9300  -16.0500  -22.6100 O.3       1 SER1        0.0000 
      6 N          14.7200  -13.4400  -31.1000 N.am      2 ALA2        0.0000 
      7 N          15.6900  -14.5800  -31.1400 N.am      2 ALA2        0.0000 
      8 N          11.3900  -18.5000  -24.1200 N.am      2 ALA2        0.0000 
      9 N          12.3600  -19.6400  -24.1600 N.am      2 ALA2        0.0000 
     10 N          12.1500  -17.8800  -22.9900 N.am      2 ALA2        0.0000 
     11 N          11.3100  -18.6400  -22.0100 N.am      2 ALA2        0.0000 
     12 O          17.3500  -15.2400  -27.9300 O.2       2 ALA2        0.0000 
     13 N          12.2800  -19.7800  -22.0400 N.am      2 ALA2        0.0000 
     14 N          13.8900  -18.4100  -21.8900 N.am      2 ALA2        0.0000 
     15 N          13.0500  -19.1600  -20.9100 N.am      2 ALA2        0.0000 
     16 N          14.6600  -17.7900  -20.7600 N.am      2 ALA2        0.0000 
     17 O          17.3200  -17.4200  -22.7600 O.2       2 ALA2        0.0000 
     18 N          15.6300  -18.9300  -20.8000 N.am      2 ALA2        0.0000 
     19 O          17.9600  -14.9100  -22.5700 O.2       2 ALA2        0.0000 
     20 O          17.1100  -15.6600  -21.5900 O.2       2 ALA2        0.0000 
     21 O          18.0900  -16.8000  -21.6300 O.2       2 ALA2        0.0000 
     22 N          17.2400  -17.5600  -20.6500 N.am      2 ALA2        0.0000 
     23 O          19.0600  -17.9400  -21.6700 O.2       2 ALA2        0.0000 
     24 O          18.2200  -18.7000  -20.6900 O.2       2 ALA2        0.0000 
     25 OD1        11.1300  -14.7100  -26.0000 O.co2     3 ASP3        0.0000 
     26 OD1        10.2800  -15.4600  -25.0200 O.co2     3 ASP3        0.0000 
     27 OD1        12.1000  -15.8500  -26.0400 O.co2     3 ASP3        0.0000 
     28 OD1        11.2600  -16.6000  -25.0600 O.co2     3 ASP3        0.0000 
     29 OD1        12.2300  -17.7400  -25.1000 O.co2     3 ASP3        0.0000 
     30 NZ         12.2600  -15.5600  -30.2700 N.4       4 LYS4        0.0000 
     31 NZ         14.0800  -15.9500  -31.3000 N.4       4 LYS4        0.0000 
     32 NZ         12.7700  -11.1600  -31.0300 N.4       4 LYS4        0.0000 
     33 NZ         11.9200  -11.9100  -30.0400 N.4       4 LYS4        0.0000 
     34 NZ         13.7400  -12.3000  -31.0600 N.4       4 LYS4        0.0000 
     35 NZ         12.9000  -13.0500  -30.0800 N.4       4 LYS4        0.0000 
     36 NZ         14.0000  -16.0900  -29.1800 N.4       4 LYS4        0.0000 
     37 NZ         11.5800   -8.2600  -29.8100 N.4       4 LYS4        0.0000 
     38 NZ         13.4000   -8.6500  -30.8300 N.4       4 LYS4        0.0000 
     39 NZ         12.5600   -9.4000  -29.8500 N.4       4 LYS4        0.0000 
     40 NZ         11.7100  -10.1600  -28.8700 N.4       4 LYS4        0.0000 
     41 NZ         13.5300  -10.5400  -29.8900 N.4       4 LYS4        0.0000 
     42 NZ         12.6900  -11.3000  -28.9100 N.4       4 LYS4        0.0000 
     43 NZ         16.3300  -12.0600  -30.9500 N.4       4 LYS4        0.0000 
     44 NZ         16.2500  -12.2000  -28.8400 N.4       4 LYS4        0.0000 
     45 NZ         11.1800  -16.7400  -22.9500 N.4       4 LYS4        0.0000 
     46 NZ         17.2200  -13.3400  -28.8800 N.4       4 LYS4        0.0000 
     47 NZ         17.0100  -11.5900  -27.7000 N.4       4 LYS4        0.0000 
     48 NZ         17.9900  -12.7300  -27.7400 N.4       4 LYS4        0.0000 
     49 CZ         11.8400  -12.0500  -27.9300 C.ar      5 PHE5        0.0000 
     50 CZ         12.8200  -13.1900  -27.9700 C.ar      5 PHE5        0.0000 
     51 CZ         14.7700  -15.4700  -28.0500 C.ar      5 PHE5        0.0000 
     52 CZ         13.9200  -16.2300  -27.0700 C.ar      5 PHE5        0.0000 
     53 CZ         13.0800  -16.9900  -26.0800 C.ar      5 PHE5        0.0000 
     54 CZ         15.7400  -16.6100  -28.0900 C.ar      5 PHE5        0.0000 
     55 CZ         13.2100  -18.8800  -25.1400 C.ar      5 PHE5        0.0000 
     56 CZ         12.3500   -7.6500  -28.6800 C.ar      5 PHE5        0.0000 
     57 CZ         11.5000   -8.4000  -27.7000 C.ar      5 PHE5        0.0000 
     58 CZ         14.1700   -8.0300  -29.7000 C.ar      5 PHE5        0.0000 
     59 CZ         13.3200   -8.7900  -28.7200 C.ar      5 PHE5        0.0000 
     60 CZ         12.4800   -9.5400  -27.7400 C.ar      5 PHE5        0.0000 
     61 CZ         11.6300  -10.3000  -26.7600 C.ar      5 PHE5        0.0000 
     62 CZ         14.3000   -9.9300  -28.7600 C.ar      5 PHE5        0.0000 
     63 CZ         13.4500  -10.6800  -27.7800 C.ar      5 PHE5        0.0000 
     64 CZ         11.7600  -12.2000  -25.8100 C.ar      5 PHE5        0.0000 
     65 CZ         14.4300  -11.8200  -27.8200 C.ar      5 PHE5        0.0000 
     66 CZ         13.5800  -12.5800  -26.8300 C.ar      5 PHE5        0.0000 
     67 CZ         12.7400  -13.3400  -25.8500 C.ar      5 PHE5        0.0000 
     68 CZ         15.4000  -12.9600  -27.8600 C.ar      5 PHE5        0.0000 
     69 CZ         14.5600  -13.7200  -26.8700 C.ar      5 PHE5        0.0000 
     70 CZ         13.7100  -14.4700  -25.8900 C.ar      5 PHE5        0.0000 
     71 CZ         15.5300  -14.8600  -26.9100 C.ar      5 PHE5        0.0000 
     72 CZ         14.6900  -15.6100  -25.9300 C.ar      5 PHE5        0.0000 
     73 CZ         13.8400  -16.3700  -24.9500 C.ar      5 PHE5        0.0000 
     74 CZ         13.0000  -17.1300  -23.9700 C.ar      5 PHE5        0.0000 
     75 CZ         16.5100  -16.0000  -26.9500 C.ar      5 PHE5        0.0000 
     76 CZ         13.9700  -18.2700  -24.0100 C.ar      5 PHE5        0.0000 
     77 CZ         13.1300  -19.0200  -23.0300 C.ar      5 PHE5        0.0000 
     78 CZ         13.1100   -7.0300  -27.5500 C.ar      5 PHE5        0.0000 
     79 CZ         14.9300   -7.4100  -28.5700 C.ar      5 PHE5        0.0000 
     80 CZ         14.0900   -8.1700  -27.5900 C.ar      5 PHE5        0.0000 
     81 CZ         15.0600   -9.3100  -27.6200 C.ar      5 PHE5        0.0000 
     82 CZ         16.0400  -10.4500  -27.6600 C.ar      5 PHE5        0.0000 
     83 CZ         16.1700  -12.3500  -26.7200 C.ar      5 PHE5        0.0000 
     84 CZ         13.6300  -14.6200  -23.7800 C.ar      5 PHE5        0.0000 
     85 CZ         17.1400  -13.4900  -26.7600 C.ar      5 PHE5        0.0000 
     86 CZ         16.3000  -14.2400  -25.7800 C.ar      5 PHE5        0.0000 
     87 CZ         15.4500  -15.0000  -24.8000 C.ar      5 PHE5        0.0000 
     88 CZ         14.6100  -15.7600  -23.8200 C.ar      5 PHE5        0.0000 
     89 CZ         17.2700  -15.3800  -25.8200 C.ar      5 PHE5        0.0000 
     90 CZ         16.4300  -16.1400  -24.8400 C.ar      5 PHE5        0.0000 
     91 CZ         15.5800  -16.8900  -23.8600 C.ar      5 PHE5        0.0000 
     92 CZ         14.7400  -17.6500  -22.8700 C.ar      5 PHE5        0.0000 
     93 CZ         14.8700  -19.5500  -21.9300 C.ar      5 PHE5        0.0000 
     94 CZ         16.4800  -18.1800  -21.7800 C.ar      5 PHE5        0.0000 
     95 CA         12.9800  -12.9100  -32.2000 C.3       6 GLY6        0.0000 
     96 CA         12.1300  -13.6700  -31.2200 C.3       6 GLY6        0.0000 
     97 CA         13.9500  -14.0500  -32.2400 C.3       6 GLY6        0.0000 
     98 CA         13.1100  -14.8100  -31.2600 C.3       6 GLY6        0.0000 
     99 CA         14.8500  -15.3300  -30.1600 C.3       6 GLY6        0.0000 
    100 CA         14.9800  -17.2300  -29.2200 C.3       6 GLY6        0.0000 
    101 CA         10.4100  -17.3600  -24.0800 C.3       6 GLY6        0.0000 
    102 CA         16.4600  -13.9600  -30.0100 C.3       6 GLY6        0.0000 
    103 CA         15.6100  -14.7200  -29.0300 C.3       6 GLY6        0.0000 
    104 CA         16.5900  -15.8600  -29.0700 C.3       6 GLY6        0.0000 
    105 CA         11.8900  -14.0900  -24.8700 C.3       6 GLY6        0.0000 
    106 CA         11.0500  -14.8500  -23.8900 C.3       6 GLY6        0.0000 
    107 CA         12.8700  -15.2300  -24.9100 C.3       6 GLY6        0.0000 
    108 CA         12.0200  -15.9900  -23.9300 C.3       6 GLY6        0.0000 
    109 CA         13.7600  -16.5100  -22.8300 C.3       6 GLY6        0.0000 
    110 CA         12.9200  -17.2700  -21.8500 C.3       6 GLY6        0.0000 
    111 CA         12.0700  -18.0300  -20.8700 C.3       6 GLY6        0.0000 
    112 CA         17.9100  -12.8700  -25.6300 C.3       6 GLY6        0.0000 
    113 CA         13.6800  -16.6500  -20.7200 C.3       6 GLY6        0.0000 
    114 CA         18.8800  -14.0100  -25.6700 C.3       6 GLY6        0.0000 
    115 CA         18.0400  -14.7700  -24.6900 C.3       6 GLY6        0.0000 
    116 CA         17.1900  -15.5200  -23.7000 C.3       6 GLY6        0.0000 
    117 CA         15.5000  -17.0400  -21.7400 C.3       6 GLY6        0.0000 
    118 CA         18.8000  -14.1500  -23.5500 C.3       6 GLY6        0.0000 
    119 CA         19.7800  -15.2900  -23.5900 C.3       6 GLY6        0.0000 
    120 CA         19.7000  -15.4300  -21.4800 C.3       6 GLY6        0.0000 
    121 CA         18.8500  -16.1900  -20.4900 C.3       6 GLY6        0.0000 
    122 CA         20.6700  -16.5700  -21.5200 C.3       6 GLY6        0.0000 
    123 DU         12.0500  -13.8100  -29.1000 H         7 CUB7        0.0000 
    124 DU         13.8700  -14.1900  -30.1200 H         7 CUB7        0.0000 
    125 DU         13.0300  -14.9500  -29.1400 H         7 CUB7        0.0000 
    126 DU         14.3800   -9.7800  -30.8700 H         7 CUB7        0.0000 
    127 DU         15.3500  -10.9200  -30.9100 H         7 CUB7        0.0000 
    128 DU         14.5100  -11.6800  -29.9300 H         7 CUB7        0.0000 
    129 DU         13.6600  -12.4400  -28.9500 H         7 CUB7        0.0000 
    130 DU         11.9700  -13.9500  -26.9900 H         7 CUB7        0.0000 
    131 DU         15.4800  -12.8200  -29.9700 H         7 CUB7        0.0000 
    132 DU         14.6400  -13.5800  -28.9900 H         7 CUB7        0.0000 
    133 DU         13.7900  -14.3300  -28.0100 H         7 CUB7        0.0000 
    134 DU         12.9500  -15.0900  -27.0300 H         7 CUB7        0.0000 
    135 DU         15.1400   -9.1700  -29.7400 H         7 CUB7        0.0000 
    136 DU         16.1200  -10.3100  -29.7800 H         7 CUB7        0.0000 
    137 DU         15.2700  -11.0700  -28.8000 H         7 CUB7        0.0000 
    138 DU         16.3800  -14.1000  -27.8900 H         7 CUB7        0.0000 
    139 DU         16.3500  -16.2800  -22.7200 H         7 CUB7        0.0000 
@<TRIPOS>BOND
@<TRIPOS>SUBSTRUCTURE
     1 SER1        1 GROUP   
     2 ALA2        6 GROUP   
     3 ASP3       25 GROUP   
     4 LYS4       30 GROUP   
     5 PHE5       49 GROUP   
     6 GLY6       95 GROUP   
     7 CUB7      123 GROUP   
@<TRIPOS>SET

