#    Name: 6nor_2_NAD
#    Modification time : Fri May 22 19:33:55 2020

@<TRIPOS>MOLECULE
6nor_2_NAD
   44    48     1     0     1
SMALL
NO_CHARGES


@<TRIPOS>ATOM
      1 PA         39.2250  -22.4530  -36.5590 P.3       1 NAD401      0.0000 
      2 O1A        38.1980  -21.5000  -35.9010 O.co2     1 NAD401      0.0000 
      3 O2A        40.5970  -21.9600  -36.2970 O.co2     1 NAD401      0.0000 
      4 O5B        39.0360  -22.4580  -38.1430 O.3       1 NAD401      0.0000 
      5 C5B        37.8400  -22.9500  -38.7250 C.3       1 NAD401      0.0000 
      6 C4B        37.6350  -22.2320  -40.0980 C.3       1 NAD401      0.0000 
      7 O4B        36.5740  -22.6730  -40.7190 O.3       1 NAD401      0.0000 
      8 C3B        37.3890  -20.7600  -39.8720 C.3       1 NAD401      0.0000 
      9 O3B        38.3430  -20.0400  -40.5380 O.3       1 NAD401      0.0000 
     10 C2B        35.9800  -20.4810  -40.4700 C.3       1 NAD401      0.0000 
     11 O2B        36.0050  -19.1300  -41.0860 O.3       1 NAD401      0.0000 
     12 C1B        35.8420  -21.4050  -41.3380 C.3       1 NAD401      0.0000 
     13 N9A        34.4550  -21.7860  -41.5760 N.pl3     1 NAD401      0.0000 
     14 C8A        33.3990  -21.7570  -40.7490 C.2       1 NAD401      0.0000 
     15 N7A        32.3320  -22.2380  -41.4090 N.2       1 NAD401      0.0000 
     16 C5A        32.7180  -22.5710  -42.6470 C.ar      1 NAD401      0.0000 
     17 C6A        32.0300  -23.0870  -43.7210 C.ar      1 NAD401      0.0000 
     18 N6A        30.6900  -23.4310  -43.8120 N.pl3     1 NAD401      0.0000 
     19 N1A        32.6680  -23.3320  -44.8460 N.ar      1 NAD401      0.0000 
     20 C2A        33.9960  -23.0600  -44.9450 C.ar      1 NAD401      0.0000 
     21 N3A        34.6690  -22.5380  -43.9000 N.ar      1 NAD401      0.0000 
     22 C4A        34.0320  -22.2960  -42.7470 C.ar      1 NAD401      0.0000 
     23 O3         39.0400  -23.8910  -35.9810 O.3       1 NAD401      0.0000 
     24 PN         40.0660  -25.1050  -36.0710 P.3       1 NAD401      0.0000 
     25 O1N        40.9640  -25.1570  -34.9110 O.co2     1 NAD401      0.0000 
     26 O2N        40.8940  -24.9900  -37.3670 O.co2     1 NAD401      0.0000 
     27 O5D        39.2720  -26.4310  -36.0700 O.3       1 NAD401      0.0000 
     28 C5D        38.5190  -26.7930  -37.2160 C.3       1 NAD401      0.0000 
     29 C4D        38.3740  -28.3250  -37.2150 C.3       1 NAD401      0.0000 
     30 O4D        39.5130  -28.8730  -36.9370 O.3       1 NAD401      0.0000 
     31 C3D        37.4280  -28.7630  -36.0490 C.3       1 NAD401      0.0000 
     32 O3D        36.7160  -29.8090  -36.4030 O.3       1 NAD401      0.0000 
     33 C2D        38.4160  -29.1310  -34.9270 C.3       1 NAD401      0.0000 
     34 O2D        37.7270  -30.0110  -33.9440 O.3       1 NAD401      0.0000 
     35 C1D        39.3480  -29.7520  -35.5900 C.3       1 NAD401      0.0000 
     36 N1N        40.6080  -29.7500  -34.9080 N.pl3     1 NAD401      0.0000 
     37 C2N        41.3960  -30.8910  -34.9150 C.ar      1 NAD401      0.0000 
     38 C3N        42.6350  -30.8780  -34.2650 C.ar      1 NAD401      0.0000 
     39 C7N        43.5140  -32.1400  -34.2460 C.2       1 NAD401      0.0000 
     40 O7N        44.4380  -32.1730  -33.5160 O.2       1 NAD401      0.0000 
     41 N7N        43.2130  -33.2580  -35.0800 N.am      1 NAD401      0.0000 
     42 C4N        43.0720  -29.7520  -33.6210 C.ar      1 NAD401      0.0000 
     43 C5N        42.2860  -28.6060  -33.6230 C.ar      1 NAD401      0.0000 
     44 C6N        41.0440  -28.6130  -34.2700 C.ar      1 NAD401      0.0000 
@<TRIPOS>BOND
     1    1    2 ar   
     2    1    3 ar   
     3    1    4 1    
     4    1   23 1    
     5    4    5 1    
     6    5    6 1    
     7    6    7 1    
     8    6    8 1    
     9    7   12 1    
    10    8    9 1    
    11    8   10 1    
    12   10   11 1    
    13   10   12 1    
    14   12   13 1    
    15   13   14 1    
    16   13   22 1    
    17   14   15 2    
    18   15   16 1    
    19   16   17 ar   
    20   16   22 ar   
    21   17   18 1    
    22   17   19 ar   
    23   19   20 ar   
    24   20   21 ar   
    25   21   22 ar   
    26   23   24 1    
    27   24   25 ar   
    28   24   26 ar   
    29   24   27 1    
    30   27   28 1    
    31   28   29 1    
    32   29   30 1    
    33   29   31 1    
    34   30   35 1    
    35   31   32 1    
    36   31   33 1    
    37   33   34 1    
    38   33   35 1    
    39   35   36 1    
    40   36   37 ar   
    41   36   44 ar   
    42   37   38 ar   
    43   38   39 1    
    44   38   42 ar   
    45   39   40 2    
    46   39   41 am   
    47   42   43 ar   
    48   43   44 ar   
@<TRIPOS>SUBSTRUCTURE
     1 NAD401      1 GROUP   
@<TRIPOS>SET
ATOM$ORANGE STATIC     ATOMS   COLORGROUP SYSTEM 
42 5 5 6 6 8 8 10 10 12 12 14 14 16 16 17 17 20 \
20 22 22 28 28 29 29 31 31 33 33 35 35 37 37 38 38 39 \
39 42 42 43 43 44 44 

