#    Name: 6nor_1_NAD_CAVITY_N1_4
#    Modification time : Fri May 22 19:33:50 2020

@<TRIPOS>MOLECULE
6nor_1_NAD_CAVITY_N1_4
   79     0     7     0     0
SMALL
NO_CHARGES


@<TRIPOS>ATOM
      1 OG         11.0000  -12.8100  -26.9500 O.3       1 SER1        0.0000 
      2 OG         10.1500  -13.5700  -25.9700 O.3       1 SER1        0.0000 
      3 OG         19.0100  -15.9100  -24.7200 O.3       1 SER1        0.0000 
      4 OG         18.1700  -16.6600  -23.7400 O.3       1 SER1        0.0000 
      5 OG         18.9300  -16.0500  -22.6100 O.3       1 SER1        0.0000 
      6 N          11.3900  -18.5000  -24.1200 N.am      2 ALA2        0.0000 
      7 N          12.3600  -19.6400  -24.1600 N.am      2 ALA2        0.0000 
      8 N          12.1500  -17.8800  -22.9900 N.am      2 ALA2        0.0000 
      9 N          11.3100  -18.6400  -22.0100 N.am      2 ALA2        0.0000 
     10 N          12.2800  -19.7800  -22.0400 N.am      2 ALA2        0.0000 
     11 N          13.8900  -18.4100  -21.8900 N.am      2 ALA2        0.0000 
     12 N          13.0500  -19.1600  -20.9100 N.am      2 ALA2        0.0000 
     13 N          14.6600  -17.7900  -20.7600 N.am      2 ALA2        0.0000 
     14 O          17.3200  -17.4200  -22.7600 O.2       2 ALA2        0.0000 
     15 N          15.6300  -18.9300  -20.8000 N.am      2 ALA2        0.0000 
     16 O          17.9600  -14.9100  -22.5700 O.2       2 ALA2        0.0000 
     17 O          17.1100  -15.6600  -21.5900 O.2       2 ALA2        0.0000 
     18 O          18.0900  -16.8000  -21.6300 O.2       2 ALA2        0.0000 
     19 N          17.2400  -17.5600  -20.6500 N.am      2 ALA2        0.0000 
     20 O          19.0600  -17.9400  -21.6700 O.2       2 ALA2        0.0000 
     21 O          18.2200  -18.7000  -20.6900 O.2       2 ALA2        0.0000 
     22 OD1        11.1300  -14.7100  -26.0000 O.co2     3 ASP3        0.0000 
     23 OD1        10.2800  -15.4600  -25.0200 O.co2     3 ASP3        0.0000 
     24 OD1        12.1000  -15.8500  -26.0400 O.co2     3 ASP3        0.0000 
     25 OD1        11.2600  -16.6000  -25.0600 O.co2     3 ASP3        0.0000 
     26 OD1        12.2300  -17.7400  -25.1000 O.co2     3 ASP3        0.0000 
     27 NZ         11.1800  -16.7400  -22.9500 N.4       4 LYS4        0.0000 
     28 CZ         11.8400  -12.0500  -27.9300 C.ar      5 PHE5        0.0000 
     29 CZ         12.8200  -13.1900  -27.9700 C.ar      5 PHE5        0.0000 
     30 CZ         14.7700  -15.4700  -28.0500 C.ar      5 PHE5        0.0000 
     31 CZ         13.9200  -16.2300  -27.0700 C.ar      5 PHE5        0.0000 
     32 CZ         13.0800  -16.9900  -26.0800 C.ar      5 PHE5        0.0000 
     33 CZ         13.2100  -18.8800  -25.1400 C.ar      5 PHE5        0.0000 
     34 CZ         11.7600  -12.2000  -25.8100 C.ar      5 PHE5        0.0000 
     35 CZ         13.5800  -12.5800  -26.8300 C.ar      5 PHE5        0.0000 
     36 CZ         12.7400  -13.3400  -25.8500 C.ar      5 PHE5        0.0000 
     37 CZ         14.5600  -13.7200  -26.8700 C.ar      5 PHE5        0.0000 
     38 CZ         13.7100  -14.4700  -25.8900 C.ar      5 PHE5        0.0000 
     39 CZ         15.5300  -14.8600  -26.9100 C.ar      5 PHE5        0.0000 
     40 CZ         14.6900  -15.6100  -25.9300 C.ar      5 PHE5        0.0000 
     41 CZ         13.8400  -16.3700  -24.9500 C.ar      5 PHE5        0.0000 
     42 CZ         13.0000  -17.1300  -23.9700 C.ar      5 PHE5        0.0000 
     43 CZ         16.5100  -16.0000  -26.9500 C.ar      5 PHE5        0.0000 
     44 CZ         13.9700  -18.2700  -24.0100 C.ar      5 PHE5        0.0000 
     45 CZ         13.1300  -19.0200  -23.0300 C.ar      5 PHE5        0.0000 
     46 CZ         13.6300  -14.6200  -23.7800 C.ar      5 PHE5        0.0000 
     47 CZ         17.1400  -13.4900  -26.7600 C.ar      5 PHE5        0.0000 
     48 CZ         16.3000  -14.2400  -25.7800 C.ar      5 PHE5        0.0000 
     49 CZ         15.4500  -15.0000  -24.8000 C.ar      5 PHE5        0.0000 
     50 CZ         14.6100  -15.7600  -23.8200 C.ar      5 PHE5        0.0000 
     51 CZ         17.2700  -15.3800  -25.8200 C.ar      5 PHE5        0.0000 
     52 CZ         16.4300  -16.1400  -24.8400 C.ar      5 PHE5        0.0000 
     53 CZ         15.5800  -16.8900  -23.8600 C.ar      5 PHE5        0.0000 
     54 CZ         14.7400  -17.6500  -22.8700 C.ar      5 PHE5        0.0000 
     55 CZ         14.8700  -19.5500  -21.9300 C.ar      5 PHE5        0.0000 
     56 CZ         16.4800  -18.1800  -21.7800 C.ar      5 PHE5        0.0000 
     57 CA         10.4100  -17.3600  -24.0800 C.3       6 GLY6        0.0000 
     58 CA         11.8900  -14.0900  -24.8700 C.3       6 GLY6        0.0000 
     59 CA         11.0500  -14.8500  -23.8900 C.3       6 GLY6        0.0000 
     60 CA         12.8700  -15.2300  -24.9100 C.3       6 GLY6        0.0000 
     61 CA         12.0200  -15.9900  -23.9300 C.3       6 GLY6        0.0000 
     62 CA         13.7600  -16.5100  -22.8300 C.3       6 GLY6        0.0000 
     63 CA         12.9200  -17.2700  -21.8500 C.3       6 GLY6        0.0000 
     64 CA         12.0700  -18.0300  -20.8700 C.3       6 GLY6        0.0000 
     65 CA         17.9100  -12.8700  -25.6300 C.3       6 GLY6        0.0000 
     66 CA         13.6800  -16.6500  -20.7200 C.3       6 GLY6        0.0000 
     67 CA         18.8800  -14.0100  -25.6700 C.3       6 GLY6        0.0000 
     68 CA         18.0400  -14.7700  -24.6900 C.3       6 GLY6        0.0000 
     69 CA         17.1900  -15.5200  -23.7000 C.3       6 GLY6        0.0000 
     70 CA         15.5000  -17.0400  -21.7400 C.3       6 GLY6        0.0000 
     71 CA         18.8000  -14.1500  -23.5500 C.3       6 GLY6        0.0000 
     72 CA         19.7800  -15.2900  -23.5900 C.3       6 GLY6        0.0000 
     73 CA         19.7000  -15.4300  -21.4800 C.3       6 GLY6        0.0000 
     74 CA         18.8500  -16.1900  -20.4900 C.3       6 GLY6        0.0000 
     75 CA         20.6700  -16.5700  -21.5200 C.3       6 GLY6        0.0000 
     76 DU         11.9700  -13.9500  -26.9900 H         7 CUB7        0.0000 
     77 DU         13.7900  -14.3300  -28.0100 H         7 CUB7        0.0000 
     78 DU         12.9500  -15.0900  -27.0300 H         7 CUB7        0.0000 
     79 DU         16.3500  -16.2800  -22.7200 H         7 CUB7        0.0000 
@<TRIPOS>BOND
@<TRIPOS>SUBSTRUCTURE
     1 SER1        1 GROUP   
     2 ALA2        6 GROUP   
     3 ASP3       22 GROUP   
     4 LYS4       27 GROUP   
     5 PHE5       28 GROUP   
     6 GLY6       57 GROUP   
     7 CUB7       76 GROUP   
@<TRIPOS>SET

