#    Name: 6nor_3_NAD
#    Modification time : Fri May 22 19:34:01 2020

@<TRIPOS>MOLECULE
6nor_3_NAD
   44    48     1     0     1
SMALL
NO_CHARGES


@<TRIPOS>ATOM
      1 PA        -19.0430  -19.4010  -67.6930 P.3       1 NAD401      0.0000 
      2 O1A       -20.1890  -20.2480  -67.0750 O.co2     1 NAD401      0.0000 
      3 O2A       -19.3040  -17.9570  -67.4400 O.co2     1 NAD401      0.0000 
      4 O5B       -19.0100  -19.6340  -69.2610 O.3       1 NAD401      0.0000 
      5 C5B       -18.8220  -20.9480  -69.7750 C.3       1 NAD401      0.0000 
      6 C4B       -19.4850  -20.9750  -71.1830 C.3       1 NAD401      0.0000 
      7 O4B       -19.2060  -22.0670  -71.8400 O.3       1 NAD401      0.0000 
      8 C3B       -20.9790  -20.9710  -71.0060 C.3       1 NAD401      0.0000 
      9 O3B       -21.5330  -19.8620  -71.6030 O.3       1 NAD401      0.0000 
     10 C2B       -21.4690  -22.2840  -71.6880 C.3       1 NAD401      0.0000 
     11 O2B       -22.7710  -21.9730  -72.3350 O.3       1 NAD401      0.0000 
     12 C1B       -20.5490  -22.5730  -72.5260 C.3       1 NAD401      0.0000 
     13 N9A       -20.3870  -24.0160  -72.6930 N.pl3     1 NAD401      0.0000 
     14 C8A       -20.5940  -24.9950  -71.7910 C.2       1 NAD401      0.0000 
     15 N7A       -20.2900  -26.1700  -72.3670 N.2       1 NAD401      0.0000 
     16 C5A       -19.8980  -25.9280  -73.6250 C.ar      1 NAD401      0.0000 
     17 C6A       -19.4920  -26.7730  -74.6300 C.ar      1 NAD401      0.0000 
     18 N6A       -19.3850  -28.1500  -74.5760 N.pl3     1 NAD401      0.0000 
     19 N1A       -19.1410  -26.2790  -75.8100 N.ar      1 NAD401      0.0000 
     20 C2A       -19.1900  -24.9320  -76.0180 C.ar      1 NAD401      0.0000 
     21 N3A       -19.5960  -24.1020  -75.0320 N.ar      1 NAD401      0.0000 
     22 C4A       -19.9500  -24.5980  -73.8320 C.ar      1 NAD401      0.0000 
     23 O3        -17.6780  -19.8610  -67.0750 O.3       1 NAD401      0.0000 
     24 PN        -16.2860  -19.0830  -67.0150 P.3       1 NAD401      0.0000 
     25 O1N       -16.1790  -18.2640  -65.7760 O.co2     1 NAD401      0.0000 
     26 O2N       -16.0990  -18.1760  -68.2310 O.co2     1 NAD401      0.0000 
     27 O5D       -15.1560  -20.1680  -67.0010 O.3       1 NAD401      0.0000 
     28 C5D       -14.7800  -20.7990  -68.2220 C.3       1 NAD401      0.0000 
     29 C4D       -13.3170  -21.2810  -68.1210 C.3       1 NAD401      0.0000 
     30 O4D       -12.5280  -20.2760  -67.8880 O.3       1 NAD401      0.0000 
     31 C3D       -13.1700  -22.2350  -66.8890 C.3       1 NAD401      0.0000 
     32 O3D       -12.3300  -23.2200  -67.1350 O.3       1 NAD401      0.0000 
     33 C2D       -12.5960  -21.3190  -65.8000 C.3       1 NAD401      0.0000 
     34 O2D       -11.8280  -22.1470  -64.8270 O.3       1 NAD401      0.0000 
     35 C1D       -11.8090  -20.5230  -66.4690 C.3       1 NAD401      0.0000 
     36 N1N       -11.6370  -19.2870  -65.7780 N.pl3     1 NAD401      0.0000 
     37 C2N       -10.3580  -18.7490  -65.6920 C.ar      1 NAD401      0.0000 
     38 C3N       -10.1500  -17.5420  -65.0150 C.ar      1 NAD401      0.0000 
     39 C7N        -8.7320  -16.9490  -64.9260 C.2       1 NAD401      0.0000 
     40 O7N        -8.5410  -15.9870  -64.2810 O.2       1 NAD401      0.0000 
     41 N7N        -7.6430  -17.5490  -65.6120 N.am      1 NAD401      0.0000 
     42 C4N       -11.2020  -16.8870  -64.4290 C.ar      1 NAD401      0.0000 
     43 C5N       -12.4830  -17.4280  -64.5140 C.ar      1 NAD401      0.0000 
     44 C6N       -12.6970  -18.6430  -65.1910 C.ar      1 NAD401      0.0000 
@<TRIPOS>BOND
     1    1    2 ar   
     2    1    3 ar   
     3    1    4 1    
     4    1   23 1    
     5    4    5 1    
     6    5    6 1    
     7    6    7 1    
     8    6    8 1    
     9    7   12 1    
    10    8    9 1    
    11    8   10 1    
    12   10   11 1    
    13   10   12 1    
    14   12   13 1    
    15   13   14 1    
    16   13   22 1    
    17   14   15 2    
    18   15   16 1    
    19   16   17 ar   
    20   16   22 ar   
    21   17   18 1    
    22   17   19 ar   
    23   19   20 ar   
    24   20   21 ar   
    25   21   22 ar   
    26   23   24 1    
    27   24   25 ar   
    28   24   26 ar   
    29   24   27 1    
    30   27   28 1    
    31   28   29 1    
    32   29   30 1    
    33   29   31 1    
    34   30   35 1    
    35   31   32 1    
    36   31   33 1    
    37   33   34 1    
    38   33   35 1    
    39   35   36 1    
    40   36   37 ar   
    41   36   44 ar   
    42   37   38 ar   
    43   38   39 1    
    44   38   42 ar   
    45   39   40 2    
    46   39   41 am   
    47   42   43 ar   
    48   43   44 ar   
@<TRIPOS>SUBSTRUCTURE
     1 NAD401      1 GROUP   
@<TRIPOS>SET
ATOM$ORANGE STATIC     ATOMS   COLORGROUP SYSTEM 
42 5 5 6 6 8 8 10 10 12 12 14 14 16 16 17 17 20 \
20 22 22 28 28 29 29 31 31 33 33 35 35 37 37 38 38 39 \
39 42 42 43 43 44 44 

