#    Name: 6nor_1_NAD
#    Modification time : Fri May 22 19:33:47 2020

@<TRIPOS>MOLECULE
6nor_1_NAD
   44    48     1     0     1
SMALL
NO_CHARGES


@<TRIPOS>ATOM
      1 PA         19.0450  -16.7040  -21.9370 P.3       1 NAD401      0.0000 
      2 O1A        20.0930  -17.6770  -22.5290 O.co2     1 NAD401      0.0000 
      3 O2A        19.2320  -15.2970  -22.3630 O.co2     1 NAD401      0.0000 
      4 O5B        19.1200  -16.7610  -20.3710 O.3       1 NAD401      0.0000 
      5 C5B        19.1050  -18.0260  -19.7340 C.3       1 NAD401      0.0000 
      6 C4B        19.6580  -17.7820  -18.3050 C.3       1 NAD401      0.0000 
      7 O4B        19.4280  -18.8050  -17.5330 O.3       1 NAD401      0.0000 
      8 C3B        21.1620  -17.6470  -18.3780 C.3       1 NAD401      0.0000 
      9 O3B        21.5240  -16.5480  -17.6550 O.3       1 NAD401      0.0000 
     10 C2B        21.6950  -18.9480  -17.7180 C.3       1 NAD401      0.0000 
     11 O2B        22.9860  -18.6520  -17.0720 O.3       1 NAD401      0.0000 
     12 C1B        20.8090  -19.1750  -16.8350 C.3       1 NAD401      0.0000 
     13 N9A        20.7020  -20.5730  -16.4610 N.pl3     1 NAD401      0.0000 
     14 C8A        20.8980  -21.6870  -17.1940 C.2       1 NAD401      0.0000 
     15 N7A        20.6270  -22.7540  -16.4030 N.2       1 NAD401      0.0000 
     16 C5A        20.2720  -22.3020  -15.1990 C.ar      1 NAD401      0.0000 
     17 C6A        19.9180  -22.9400  -14.0470 C.ar      1 NAD401      0.0000 
     18 N6A        19.8280  -24.2980  -13.8390 N.pl3     1 NAD401      0.0000 
     19 N1A        19.5900  -22.2400  -12.9710 N.ar      1 NAD401      0.0000 
     20 C2A        19.6300  -20.8850  -12.9990 C.ar      1 NAD401      0.0000 
     21 N3A        19.9920  -20.2520  -14.1410 N.ar      1 NAD401      0.0000 
     22 C4A        20.3060  -20.9530  -15.2360 C.ar      1 NAD401      0.0000 
     23 O3         17.6490  -17.2290  -22.3650 O.3       1 NAD401      0.0000 
     24 PN         16.2700  -16.4320  -22.4010 P.3       1 NAD401      0.0000 
     25 O1N        16.0900  -15.4580  -21.2830 O.co2     1 NAD401      0.0000 
     26 O2N        16.1140  -15.7490  -23.7490 O.co2     1 NAD401      0.0000 
     27 O5D        15.1520  -17.5340  -22.2670 O.3       1 NAD401      0.0000 
     28 C5D        14.8260  -18.0890  -21.0070 C.3       1 NAD401      0.0000 
     29 C4D        13.3780  -18.6180  -21.0480 C.3       1 NAD401      0.0000 
     30 O4D        12.5190  -17.6960  -21.3760 O.3       1 NAD401      0.0000 
     31 C3D        13.2350  -19.7140  -22.1460 C.3       1 NAD401      0.0000 
     32 O3D        12.4600  -20.6690  -21.6890 O.3       1 NAD401      0.0000 
     33 C2D        12.6140  -18.9610  -23.3420 C.3       1 NAD401      0.0000 
     34 O2D        11.8660  -19.9230  -24.2000 O.3       1 NAD401      0.0000 
     35 C1D        11.8270  -18.0900  -22.7760 C.3       1 NAD401      0.0000 
     36 N1N        11.6460  -16.9120  -23.5710 N.pl3     1 NAD401      0.0000 
     37 C2N        10.3790  -16.3430  -23.6330 C.ar      1 NAD401      0.0000 
     38 C3N        10.1420  -15.1950  -24.3920 C.ar      1 NAD401      0.0000 
     39 C7N         8.7070  -14.6430  -24.4250 C.2       1 NAD401      0.0000 
     40 O7N         8.4380  -13.7320  -25.1170 O.2       1 NAD401      0.0000 
     41 N7N         7.7030  -15.2670  -23.6340 N.am      1 NAD401      0.0000 
     42 C4N        11.1500  -14.5950  -25.1120 C.ar      1 NAD401      0.0000 
     43 C5N        12.4270  -15.1540  -25.0470 C.ar      1 NAD401      0.0000 
     44 C6N        12.6690  -16.3210  -24.2730 C.ar      1 NAD401      0.0000 
@<TRIPOS>BOND
     1    1    2 ar   
     2    1    3 ar   
     3    1    4 1    
     4    1   23 1    
     5    4    5 1    
     6    5    6 1    
     7    6    7 1    
     8    6    8 1    
     9    7   12 1    
    10    8    9 1    
    11    8   10 1    
    12   10   11 1    
    13   10   12 1    
    14   12   13 1    
    15   13   14 1    
    16   13   22 1    
    17   14   15 2    
    18   15   16 1    
    19   16   17 ar   
    20   16   22 ar   
    21   17   18 1    
    22   17   19 ar   
    23   19   20 ar   
    24   20   21 ar   
    25   21   22 ar   
    26   23   24 1    
    27   24   25 ar   
    28   24   26 ar   
    29   24   27 1    
    30   27   28 1    
    31   28   29 1    
    32   29   30 1    
    33   29   31 1    
    34   30   35 1    
    35   31   32 1    
    36   31   33 1    
    37   33   34 1    
    38   33   35 1    
    39   35   36 1    
    40   36   37 ar   
    41   36   44 ar   
    42   37   38 ar   
    43   38   39 1    
    44   38   42 ar   
    45   39   40 2    
    46   39   41 am   
    47   42   43 ar   
    48   43   44 ar   
@<TRIPOS>SUBSTRUCTURE
     1 NAD401      1 GROUP   
@<TRIPOS>SET
ATOM$ORANGE STATIC     ATOMS   COLORGROUP SYSTEM 
42 5 5 6 6 8 8 10 10 12 12 14 14 16 16 17 17 20 \
20 22 22 28 28 29 29 31 31 33 33 35 35 37 37 38 38 39 \
39 42 42 43 43 44 44 

