#    Name: 5xxr_2_COA
#    Modification time : Fri May 22 19:17:18 2020

@<TRIPOS>MOLECULE
5xxr_2_COA
   48    50     1     0     1
SMALL
NO_CHARGES


@<TRIPOS>ATOM
      1 N1A         0.0430   -5.2300   31.1050 N.ar      1 COA200      0.0000 
      2 C2A        -0.6390   -6.2200   30.5000 C.ar      1 COA200      0.0000 
      3 N3A        -0.0110   -7.3860   30.1850 N.ar      1 COA200      0.0000 
      4 C4A         1.2910   -7.5440   30.4800 C.ar      1 COA200      0.0000 
      5 C5A         1.9730   -6.5560   31.0840 C.ar      1 COA200      0.0000 
      6 C6A         1.3380   -5.3850   31.3990 C.ar      1 COA200      0.0000 
      7 N6A         1.8770   -4.2260   32.0350 N.pl3     1 COA200      0.0000 
      8 N7A         3.2410   -6.9680   31.2620 N.2       1 COA200      0.0000 
      9 C8A         3.3530   -8.2120   30.7720 C.2       1 COA200      0.0000 
     10 N9A         2.1490   -8.5560   30.2910 N.pl3     1 COA200      0.0000 
     11 C1B         1.7090   -9.6940   29.6960 C.3       1 COA200      0.0000 
     12 C2B         2.6650  -10.1520   28.5950 C.3       1 COA200      0.0000 
     13 O2B         1.9070  -10.4530   27.3720 O.3       1 COA200      0.0000 
     14 C3B         3.2340  -11.2600   29.0590 C.3       1 COA200      0.0000 
     15 O3B         3.4740  -12.2040   27.9730 O.3       1 COA200      0.0000 
     16 P3B         5.0000  -12.8740   27.8460 P.3       1 COA200      0.0000 
     17 O7A         5.2730  -13.7510   29.0470 O.co2     1 COA200      0.0000 
     18 O8A         5.0820  -13.6900   26.6100 O.co2     1 COA200      0.0000 
     19 O9A         6.0080  -11.7730   27.7870 O.co2     1 COA200      0.0000 
     20 C4B         2.1680  -11.8860   30.1120 C.3       1 COA200      0.0000 
     21 O4B         1.6830  -10.8680   30.7430 O.3       1 COA200      0.0000 
     22 C5B         2.8690  -12.8250   31.1070 C.3       1 COA200      0.0000 
     23 O5B         1.8710  -13.4580   31.9150 O.3       1 COA200      0.0000 
     24 P1A         2.3300  -14.0930   33.4070 P.3       1 COA200      0.0000 
     25 O1A         3.4570  -15.1000   33.2030 O.co2     1 COA200      0.0000 
     26 O2A         1.1260  -14.7590   34.0630 O.co2     1 COA200      0.0000 
     27 O3A         2.8740  -12.8660   34.3920 O.3       1 COA200      0.0000 
     28 P2A         4.4850  -12.6650   34.8050 P.3       1 COA200      0.0000 
     29 O4A         4.9000  -13.7550   35.7570 O.co2     1 COA200      0.0000 
     30 O5A         5.3480  -12.7160   33.5580 O.co2     1 COA200      0.0000 
     31 O6A         4.6440  -11.1920   35.5290 O.3       1 COA200      0.0000 
     32 CBP         4.1850   -8.8160   35.6500 C.3       1 COA200      0.0000 
     33 CCP         3.6710  -10.2250   35.2270 C.3       1 COA200      0.0000 
     34 CDP         3.6670   -7.7620   34.6440 C.3       1 COA200      0.0000 
     35 CEP         3.6280   -8.4830   37.0890 C.3       1 COA200      0.0000 
     36 CAP         5.7190   -8.8260   35.6470 C.3       1 COA200      0.0000 
     37 OAP         6.1730   -8.5720   34.3560 O.3       1 COA200      0.0000 
     38 C9P         6.2730   -7.7480   36.6140 C.2       1 COA200      0.0000 
     39 O9P         6.7180   -8.0630   37.6600 O.2       1 COA200      0.0000 
     40 N8P         6.2510   -6.3200   36.2210 N.am      1 COA200      0.0000 
     41 C7P         6.7860   -5.2860   37.1610 C.3       1 COA200      0.0000 
     42 C6P         5.6070   -4.6430   37.9030 C.3       1 COA200      0.0000 
     43 C5P         4.4400   -4.4650   36.9300 C.2       1 COA200      0.0000 
     44 O5P         4.6550   -4.1300   35.7940 O.2       1 COA200      0.0000 
     45 N4P         3.0590   -4.7050   37.3820 N.am      1 COA200      0.0000 
     46 C3P         1.9460   -4.5360   36.4520 C.3       1 COA200      0.0000 
     47 C2P         0.9890   -3.4540   36.9780 C.3       1 COA200      0.0000 
     48 S1P         1.8980   -1.8920   37.1980 S.3       1 COA200      0.0000 
@<TRIPOS>BOND
     1    1    2 ar   
     2    1    6 ar   
     3    2    3 ar   
     4    3    4 ar   
     5    4    5 ar   
     6    4   10 1    
     7    5    6 ar   
     8    5    8 1    
     9    6    7 1    
    10    8    9 2    
    11    9   10 1    
    12   10   11 1    
    13   11   12 1    
    14   11   21 1    
    15   12   13 1    
    16   12   14 1    
    17   14   15 1    
    18   14   20 1    
    19   15   16 1    
    20   16   17 ar   
    21   16   18 ar   
    22   16   19 ar   
    23   20   21 1    
    24   20   22 1    
    25   22   23 1    
    26   23   24 1    
    27   24   25 ar   
    28   24   26 ar   
    29   24   27 1    
    30   27   28 1    
    31   28   29 ar   
    32   28   30 ar   
    33   28   31 1    
    34   31   33 1    
    35   32   33 1    
    36   32   34 1    
    37   32   35 1    
    38   32   36 1    
    39   36   37 1    
    40   36   38 1    
    41   38   39 2    
    42   38   40 am   
    43   40   41 1    
    44   41   42 1    
    45   42   43 1    
    46   43   44 2    
    47   43   45 am   
    48   45   46 1    
    49   46   47 1    
    50   47   48 1    
@<TRIPOS>SUBSTRUCTURE
     1 COA200      1 GROUP   
@<TRIPOS>SET
ATOM$ORANGE STATIC     ATOMS   COLORGROUP SYSTEM 
42 2 2 4 4 5 5 6 6 9 9 11 11 12 12 14 14 20 \
20 22 22 32 32 33 33 34 34 35 35 36 36 38 38 41 41 42 \
42 43 43 46 46 47 47 

