#    Name: 5xxr_1_COA
#    Modification time : Fri May 22 19:17:14 2020

@<TRIPOS>MOLECULE
5xxr_1_COA
   48    50     1     0     1
SMALL
NO_CHARGES


@<TRIPOS>ATOM
      1 N1A        -7.7880    8.9720   33.2030 N.ar      1 COA200      0.0000 
      2 C2A        -7.4340    7.6960   32.9660 C.ar      1 COA200      0.0000 
      3 N3A        -7.5260    7.1870   31.7080 N.ar      1 COA200      0.0000 
      4 C4A        -7.9720    7.9620   30.7030 C.ar      1 COA200      0.0000 
      5 C5A        -8.3260    9.2350   30.9370 C.ar      1 COA200      0.0000 
      6 C6A        -8.2320    9.7430   32.2050 C.ar      1 COA200      0.0000 
      7 N6A        -8.5540   11.0570   32.6610 N.pl3     1 COA200      0.0000 
      8 N7A        -8.7310    9.7780   29.7750 N.2       1 COA200      0.0000 
      9 C8A        -8.6300    8.8480   28.8150 C.2       1 COA200      0.0000 
     10 N9A        -8.1620    7.7340   29.3960 N.pl3     1 COA200      0.0000 
     11 C1B        -7.8780    6.5060   28.8920 C.3       1 COA200      0.0000 
     12 C2B        -8.9120    6.0920   27.8550 C.3       1 COA200      0.0000 
     13 O2B       -10.0440    5.4280   28.5150 O.3       1 COA200      0.0000 
     14 C3B        -8.2550    5.2280   27.0910 C.3       1 COA200      0.0000 
     15 O3B        -8.3450    3.8930   27.6740 O.3       1 COA200      0.0000 
     16 P3B        -8.7360    2.6070   26.6800 P.3       1 COA200      0.0000 
     17 O7A        -8.9300    1.3630   27.5170 O.co2     1 COA200      0.0000 
     18 O8A        -9.9890    2.9110   25.9460 O.co2     1 COA200      0.0000 
     19 O9A        -7.6280    2.3830   25.7040 O.co2     1 COA200      0.0000 
     20 C4B        -6.6990    5.7160   27.0840 C.3       1 COA200      0.0000 
     21 O4B        -6.5290    6.5270   28.0840 O.3       1 COA200      0.0000 
     22 C5B        -6.3540    6.4370   25.7680 C.3       1 COA200      0.0000 
     23 O5B        -4.9420    6.3240   25.5500 O.3       1 COA200      0.0000 
     24 P1A        -4.1450    7.4800   24.6140 P.3       1 COA200      0.0000 
     25 O1A        -4.6610    7.4220   23.1790 O.co2     1 COA200      0.0000 
     26 O2A        -2.6500    7.1890   24.6410 O.co2     1 COA200      0.0000 
     27 O3A        -4.4160    9.0020   25.2460 O.3       1 COA200      0.0000 
     28 P2A        -5.4200   10.1340   24.5230 P.3       1 COA200      0.0000 
     29 O4A        -4.8490   10.5340   23.1870 O.co2     1 COA200      0.0000 
     30 O5A        -6.8020    9.5420   24.3200 O.co2     1 COA200      0.0000 
     31 O6A        -5.5330   11.4560   25.5050 O.3       1 COA200      0.0000 
     32 CBP        -6.1460   12.4900   27.5920 C.3       1 COA200      0.0000 
     33 CCP        -5.4910   11.2590   26.8950 C.3       1 COA200      0.0000 
     34 CDP        -6.4850   12.1330   29.0570 C.3       1 COA200      0.0000 
     35 CEP        -5.1210   13.6900   27.5740 C.3       1 COA200      0.0000 
     36 CAP        -7.4280   12.8490   26.8270 C.3       1 COA200      0.0000 
     37 OAP        -8.4160   11.9180   27.1400 O.3       1 COA200      0.0000 
     38 C9P        -7.9310   14.2700   27.1930 C.2       1 COA200      0.0000 
     39 O9P        -7.6720   15.1900   26.5020 O.2       1 COA200      0.0000 
     40 N8P        -8.7580   14.4720   28.4060 N.am      1 COA200      0.0000 
     41 C7P        -9.2500   15.8400   28.7650 C.3       1 COA200      0.0000 
     42 C6P        -9.2610   15.9710   30.2930 C.3       1 COA200      0.0000 
     43 C5P        -7.8620   15.6550   30.8220 C.2       1 COA200      0.0000 
     44 O5P        -6.9260   15.6510   30.0670 O.2       1 COA200      0.0000 
     45 N4P        -7.6580   15.3520   32.2480 N.am      1 COA200      0.0000 
     46 C3P        -6.3170   15.0510   32.7370 C.3       1 COA200      0.0000 
     47 C2P        -6.0230   13.5530   32.5510 C.3       1 COA200      0.0000 
     48 S1P        -5.9840   12.7330   34.1770 S.3       1 COA200      0.0000 
@<TRIPOS>BOND
     1    1    2 ar   
     2    1    6 ar   
     3    2    3 ar   
     4    3    4 ar   
     5    4    5 ar   
     6    4   10 1    
     7    5    6 ar   
     8    5    8 1    
     9    6    7 1    
    10    8    9 2    
    11    9   10 1    
    12   10   11 1    
    13   11   12 1    
    14   11   21 1    
    15   12   13 1    
    16   12   14 1    
    17   14   15 1    
    18   14   20 1    
    19   15   16 1    
    20   16   17 ar   
    21   16   18 ar   
    22   16   19 ar   
    23   20   21 1    
    24   20   22 1    
    25   22   23 1    
    26   23   24 1    
    27   24   25 ar   
    28   24   26 ar   
    29   24   27 1    
    30   27   28 1    
    31   28   29 ar   
    32   28   30 ar   
    33   28   31 1    
    34   31   33 1    
    35   32   33 1    
    36   32   34 1    
    37   32   35 1    
    38   32   36 1    
    39   36   37 1    
    40   36   38 1    
    41   38   39 2    
    42   38   40 am   
    43   40   41 1    
    44   41   42 1    
    45   42   43 1    
    46   43   44 2    
    47   43   45 am   
    48   45   46 1    
    49   46   47 1    
    50   47   48 1    
@<TRIPOS>SUBSTRUCTURE
     1 COA200      1 GROUP   
@<TRIPOS>SET
ATOM$ORANGE STATIC     ATOMS   COLORGROUP SYSTEM 
42 2 2 4 4 5 5 6 6 9 9 11 11 12 12 14 14 20 \
20 22 22 32 32 33 33 34 34 35 35 36 36 38 38 41 41 42 \
42 43 43 46 46 47 47 

