#    Name: 6jdb_1_ADP
#    Modification time : Fri May 22 19:34:45 2020

@<TRIPOS>MOLECULE
6jdb_1_ADP
   27    29     1     0     1
SMALL
NO_CHARGES


@<TRIPOS>ATOM
      1 PB         11.3460   51.5610   82.7530 P.3       1 ADP301      0.0000 
      2 O1B        10.7190   51.5410   81.3800 O.co2     1 ADP301      0.0000 
      3 O2B        10.5570   52.5300   83.6090 O.co2     1 ADP301      0.0000 
      4 O3B        12.7870   52.0020   82.6310 O.co2     1 ADP301      0.0000 
      5 PA         11.2690   49.5530   84.9560 P.3       1 ADP301      0.0000 
      6 O1A        10.2250   48.4600   85.0450 O.co2     1 ADP301      0.0000 
      7 O2A        10.9070   50.6790   85.9150 O.co2     1 ADP301      0.0000 
      8 O3A        11.3480   50.0310   83.3750 O.3       1 ADP301      0.0000 
      9 O5'        12.7580   48.9180   85.3060 O.3       1 ADP301      0.0000 
     10 C5'        13.2790   47.9410   84.4340 C.3       1 ADP301      0.0000 
     11 C4'        14.5770   47.3340   85.0300 C.3       1 ADP301      0.0000 
     12 O4'        14.3570   46.9400   86.2580 O.3       1 ADP301      0.0000 
     13 C3'        15.0180   46.0770   84.2700 C.3       1 ADP301      0.0000 
     14 O3'        16.3620   45.9570   84.3480 O.3       1 ADP301      0.0000 
     15 C2'        14.4220   44.9150   85.0710 C.3       1 ADP301      0.0000 
     16 O2'        15.3360   43.7420   84.9440 O.3       1 ADP301      0.0000 
     17 C1'        14.4260   45.3210   86.3120 C.3       1 ADP301      0.0000 
     18 N9         13.2590   44.8400   87.0030 N.pl3     1 ADP301      0.0000 
     19 C8         12.0090   44.8400   86.5230 C.2       1 ADP301      0.0000 
     20 N7         11.1960   44.3380   87.4560 N.2       1 ADP301      0.0000 
     21 C5         11.9480   44.0320   88.5240 C.ar      1 ADP301      0.0000 
     22 C6         11.6010   43.4910   89.7420 C.ar      1 ADP301      0.0000 
     23 N6         10.2540   43.1150   90.1500 N.pl3     1 ADP301      0.0000 
     24 N1         12.5410   43.2680   90.6540 N.ar      1 ADP301      0.0000 
     25 C2         13.8390   43.5830   90.3870 C.ar      1 ADP301      0.0000 
     26 N3         14.1790   44.1190   89.1860 N.ar      1 ADP301      0.0000 
     27 C4         13.2270   44.3400   88.2530 C.ar      1 ADP301      0.0000 
@<TRIPOS>BOND
     1    1    2 ar   
     2    1    3 ar   
     3    1    4 ar   
     4    1    8 1    
     5    5    6 ar   
     6    5    7 ar   
     7    5    8 1    
     8    5    9 1    
     9    9   10 1    
    10   10   11 1    
    11   11   12 1    
    12   11   13 1    
    13   12   17 1    
    14   13   14 1    
    15   13   15 1    
    16   15   16 1    
    17   15   17 1    
    18   17   18 1    
    19   18   19 1    
    20   18   27 1    
    21   19   20 2    
    22   20   21 1    
    23   21   22 ar   
    24   21   27 ar   
    25   22   23 1    
    26   22   24 ar   
    27   24   25 ar   
    28   25   26 ar   
    29   26   27 ar   
@<TRIPOS>SUBSTRUCTURE
     1 ADP301      1 GROUP   
@<TRIPOS>SET
ATOM$ORANGE STATIC     ATOMS   COLORGROUP SYSTEM 
20 10 10 11 11 13 13 15 15 17 17 19 19 21 21 22 22 25 \
25 27 27 

