#    Name: 6rla_1_ADP
#    Modification time : Fri May 22 19:30:01 2020

@<TRIPOS>MOLECULE
6rla_1_ADP
   27    29     1     0     1
SMALL
NO_CHARGES


@<TRIPOS>ATOM
      1 PB        165.0630  214.3730  183.9420 P.3       1 ADP4404     0.0000 
      2 O1B       165.6130  213.9980  182.5950 O.co2     1 ADP4404     0.0000 
      3 O2B       164.2270  215.6270  183.9450 O.co2     1 ADP4404     0.0000 
      4 O3B       166.0740  214.3070  185.0560 O.co2     1 ADP4404     0.0000 
      5 PA        162.8500  212.8100  183.2390 P.3       1 ADP4404     0.0000 
      6 O1A       163.4360  212.0220  182.1010 O.co2     1 ADP4404     0.0000 
      7 O2A       162.0370  214.0410  182.9340 O.co2     1 ADP4404     0.0000 
      8 O3A       164.0200  213.1920  184.2730 O.3       1 ADP4404     0.0000 
      9 O5'       161.8810  211.8460  184.0720 O.3       1 ADP4404     0.0000 
     10 C5'       160.4950  211.9690  183.7950 C.3       1 ADP4404     0.0000 
     11 C4'       159.6430  211.0830  184.6830 C.3       1 ADP4404     0.0000 
     12 O4'       158.2830  211.5010  184.6190 O.3       1 ADP4404     0.0000 
     13 C3'       159.6850  209.6550  184.2010 C.3       1 ADP4404     0.0000 
     14 O3'       160.4620  208.8830  185.1130 O.3       1 ADP4404     0.0000 
     15 C2'       158.2540  209.1780  184.2140 C.3       1 ADP4404     0.0000 
     16 O2'       158.0480  208.2970  185.3160 O.3       1 ADP4404     0.0000 
     17 C1'       157.3970  210.3980  184.4320 C.3       1 ADP4404     0.0000 
     18 N9        156.6290  210.6320  183.1950 N.pl3     1 ADP4404     0.0000 
     19 C8        156.8160  211.6750  182.3740 C.2       1 ADP4404     0.0000 
     20 N7        155.9750  211.6290  181.3150 N.2       1 ADP4404     0.0000 
     21 C5        155.2270  210.5300  181.4550 C.ar      1 ADP4404     0.0000 
     22 C6        154.1470  209.8960  180.6890 C.ar      1 ADP4404     0.0000 
     23 N6        153.7070  210.4500  179.5440 N.pl3     1 ADP4404     0.0000 
     24 N1        153.6220  208.7580  181.1670 N.ar      1 ADP4404     0.0000 
     25 C2        154.0690  208.2100  182.3000 C.ar      1 ADP4404     0.0000 
     26 N3        155.0390  208.7360  183.0520 N.ar      1 ADP4404     0.0000 
     27 C4        155.6530  209.8770  182.6910 C.ar      1 ADP4404     0.0000 
@<TRIPOS>BOND
     1    1    2 ar   
     2    1    3 ar   
     3    1    4 ar   
     4    1    8 1    
     5    5    6 ar   
     6    5    7 ar   
     7    5    8 1    
     8    5    9 1    
     9    9   10 1    
    10   10   11 1    
    11   11   12 1    
    12   11   13 1    
    13   12   17 1    
    14   13   14 1    
    15   13   15 1    
    16   15   16 1    
    17   15   17 1    
    18   17   18 1    
    19   18   19 1    
    20   18   27 1    
    21   19   20 2    
    22   20   21 1    
    23   21   22 ar   
    24   21   27 ar   
    25   22   23 1    
    26   22   24 ar   
    27   24   25 ar   
    28   25   26 ar   
    29   26   27 ar   
@<TRIPOS>SUBSTRUCTURE
     1 ADP4404     1 GROUP   
@<TRIPOS>SET
ATOM$ORANGE STATIC     ATOMS   COLORGROUP SYSTEM 
20 10 10 11 11 13 13 15 15 17 17 19 19 21 21 22 22 25 \
25 27 27 

