#    Name: 6rla_3_ADP
#    Modification time : Fri May 22 19:31:13 2020

@<TRIPOS>MOLECULE
6rla_3_ADP
   27    29     1     0     1
SMALL
NO_CHARGES


@<TRIPOS>ATOM
      1 PB        224.0910  174.8880  183.9440 P.3       1 ADP4404     0.0000 
      2 O1B       223.5420  175.2620  182.5960 O.co2     1 ADP4404     0.0000 
      3 O2B       224.9280  173.6350  183.9470 O.co2     1 ADP4404     0.0000 
      4 O3B       223.0800  174.9540  185.0570 O.co2     1 ADP4404     0.0000 
      5 PA        226.3040  176.4510  183.2410 P.3       1 ADP4404     0.0000 
      6 O1A       225.7180  177.2380  182.1020 O.co2     1 ADP4404     0.0000 
      7 O2A       227.1170  175.2210  182.9360 O.co2     1 ADP4404     0.0000 
      8 O3A       225.1330  176.0690  184.2740 O.3       1 ADP4404     0.0000 
      9 O5'       227.2720  177.4170  184.0730 O.3       1 ADP4404     0.0000 
     10 C5'       228.6590  177.2940  183.7960 C.3       1 ADP4404     0.0000 
     11 C4'       229.5090  178.1810  184.6840 C.3       1 ADP4404     0.0000 
     12 O4'       230.8700  177.7640  184.6220 O.3       1 ADP4404     0.0000 
     13 C3'       229.4670  179.6090  184.2020 C.3       1 ADP4404     0.0000 
     14 O3'       228.6900  180.3800  185.1130 O.3       1 ADP4404     0.0000 
     15 C2'       230.8980  180.0860  184.2150 C.3       1 ADP4404     0.0000 
     16 O2'       231.1030  180.9680  185.3170 O.3       1 ADP4404     0.0000 
     17 C1'       231.7550  178.8670  184.4340 C.3       1 ADP4404     0.0000 
     18 N9        232.5240  178.6330  183.1970 N.pl3     1 ADP4404     0.0000 
     19 C8        232.3380  177.5890  182.3770 C.2       1 ADP4404     0.0000 
     20 N7        233.1790  177.6350  181.3180 N.2       1 ADP4404     0.0000 
     21 C5        233.9260  178.7340  181.4580 C.ar      1 ADP4404     0.0000 
     22 C6        235.0070  179.3680  180.6920 C.ar      1 ADP4404     0.0000 
     23 N6        235.4470  178.8140  179.5470 N.pl3     1 ADP4404     0.0000 
     24 N1        235.5310  180.5070  181.1700 N.ar      1 ADP4404     0.0000 
     25 C2        235.0830  181.0550  182.3020 C.ar      1 ADP4404     0.0000 
     26 N3        234.1130  180.5290  183.0530 N.ar      1 ADP4404     0.0000 
     27 C4        233.4990  179.3880  182.6930 C.ar      1 ADP4404     0.0000 
@<TRIPOS>BOND
     1    1    2 ar   
     2    1    3 ar   
     3    1    4 ar   
     4    1    8 1    
     5    5    6 ar   
     6    5    7 ar   
     7    5    8 1    
     8    5    9 1    
     9    9   10 1    
    10   10   11 1    
    11   11   12 1    
    12   11   13 1    
    13   12   17 1    
    14   13   14 1    
    15   13   15 1    
    16   15   16 1    
    17   15   17 1    
    18   17   18 1    
    19   18   19 1    
    20   18   27 1    
    21   19   20 2    
    22   20   21 1    
    23   21   22 ar   
    24   21   27 ar   
    25   22   23 1    
    26   22   24 ar   
    27   24   25 ar   
    28   25   26 ar   
    29   26   27 ar   
@<TRIPOS>SUBSTRUCTURE
     1 ADP4404     1 GROUP   
@<TRIPOS>SET
ATOM$ORANGE STATIC     ATOMS   COLORGROUP SYSTEM 
20 10 10 11 11 13 13 15 15 17 17 19 19 21 21 22 22 25 \
25 27 27 

