#    Name: 6rla_2_ADP
#    Modification time : Fri May 22 19:30:25 2020

@<TRIPOS>MOLECULE
6rla_2_ADP
   27    29     1     0     1
SMALL
NO_CHARGES


@<TRIPOS>ATOM
      1 PB        174.8700  212.5050  216.0580 P.3       1 ADP4405     0.0000 
      2 O1B       173.9550  211.5070  215.4050 O.co2     1 ADP4405     0.0000 
      3 O2B       174.3230  213.9050  216.0190 O.co2     1 ADP4405     0.0000 
      4 O3B       176.3270  212.3900  215.7010 O.co2     1 ADP4405     0.0000 
      5 PA        175.2560  210.6180  218.0810 P.3       1 ADP4405     0.0000 
      6 O1A       174.3040  209.5990  217.5100 O.co2     1 ADP4405     0.0000 
      7 O2A       176.7440  210.4850  217.8740 O.co2     1 ADP4405     0.0000 
      8 O3A       174.8050  212.0870  217.6070 O.3       1 ADP4405     0.0000 
      9 O5'       175.0120  210.6330  219.6650 O.3       1 ADP4405     0.0000 
     10 C5'       175.1900  209.4270  220.3930 C.3       1 ADP4405     0.0000 
     11 C4'       174.8510  209.6390  221.8600 C.3       1 ADP4405     0.0000 
     12 O4'       173.5490  210.2000  222.0200 O.3       1 ADP4405     0.0000 
     13 C3'       174.8520  208.3020  222.5660 C.3       1 ADP4405     0.0000 
     14 O3'       175.8680  208.2980  223.5680 O.3       1 ADP4405     0.0000 
     15 C2'       173.4920  208.1820  223.2070 C.3       1 ADP4405     0.0000 
     16 O2'       173.6150  207.8880  224.5950 O.3       1 ADP4405     0.0000 
     17 C1'       172.8460  209.5360  223.0640 C.3       1 ADP4405     0.0000 
     18 N9        171.4500  209.3510  222.6450 N.pl3     1 ADP4405     0.0000 
     19 C8        170.9390  209.8340  221.5090 C.2       1 ADP4405     0.0000 
     20 N7        169.6320  209.5140  221.3900 N.2       1 ADP4405     0.0000 
     21 C5        169.2920  208.8110  222.4760 C.ar      1 ADP4405     0.0000 
     22 C6        168.0600  208.1740  222.9750 C.ar      1 ADP4405     0.0000 
     23 N6        166.9130  208.2300  222.2660 N.pl3     1 ADP4405     0.0000 
     24 N1        168.1130  207.5340  224.1560 N.ar      1 ADP4405     0.0000 
     25 C2        169.2510  207.4750  224.8650 C.ar      1 ADP4405     0.0000 
     26 N3        170.4050  208.0350  224.4710 N.ar      1 ADP4405     0.0000 
     27 C4        170.4930  208.7070  223.3050 C.ar      1 ADP4405     0.0000 
@<TRIPOS>BOND
     1    1    2 ar   
     2    1    3 ar   
     3    1    4 ar   
     4    1    8 1    
     5    5    6 ar   
     6    5    7 ar   
     7    5    8 1    
     8    5    9 1    
     9    9   10 1    
    10   10   11 1    
    11   11   12 1    
    12   11   13 1    
    13   12   17 1    
    14   13   14 1    
    15   13   15 1    
    16   15   16 1    
    17   15   17 1    
    18   17   18 1    
    19   18   19 1    
    20   18   27 1    
    21   19   20 2    
    22   20   21 1    
    23   21   22 ar   
    24   21   27 ar   
    25   22   23 1    
    26   22   24 ar   
    27   24   25 ar   
    28   25   26 ar   
    29   26   27 ar   
@<TRIPOS>SUBSTRUCTURE
     1 ADP4405     1 GROUP   
@<TRIPOS>SET
ATOM$ORANGE STATIC     ATOMS   COLORGROUP SYSTEM 
20 10 10 11 11 13 13 15 15 17 17 19 19 21 21 22 22 25 \
25 27 27 

