#    Name: 6rla_4_ADP
#    Modification time : Fri May 22 19:31:37 2020

@<TRIPOS>MOLECULE
6rla_4_ADP
   27    29     1     0     1
SMALL
NO_CHARGES


@<TRIPOS>ATOM
      1 PB        214.2720  176.7680  216.0550 P.3       1 ADP4405     0.0000 
      2 O1B       215.1870  177.7670  215.4010 O.co2     1 ADP4405     0.0000 
      3 O2B       214.8200  175.3680  216.0170 O.co2     1 ADP4405     0.0000 
      4 O3B       212.8150  176.8820  215.6970 O.co2     1 ADP4405     0.0000 
      5 PA        213.8840  178.6570  218.0770 P.3       1 ADP4405     0.0000 
      6 O1A       214.8360  179.6750  217.5060 O.co2     1 ADP4405     0.0000 
      7 O2A       212.3970  178.7880  217.8690 O.co2     1 ADP4405     0.0000 
      8 O3A       214.3370  177.1880  217.6040 O.3       1 ADP4405     0.0000 
      9 O5'       214.1280  178.6430  219.6600 O.3       1 ADP4405     0.0000 
     10 C5'       213.9490  179.8490  220.3890 C.3       1 ADP4405     0.0000 
     11 C4'       214.2870  179.6370  221.8550 C.3       1 ADP4405     0.0000 
     12 O4'       215.5900  179.0770  222.0160 O.3       1 ADP4405     0.0000 
     13 C3'       214.2860  180.9740  222.5600 C.3       1 ADP4405     0.0000 
     14 O3'       213.2690  180.9790  223.5620 O.3       1 ADP4405     0.0000 
     15 C2'       215.6450  181.0960  223.2020 C.3       1 ADP4405     0.0000 
     16 O2'       215.5220  181.3910  224.5900 O.3       1 ADP4405     0.0000 
     17 C1'       216.2920  179.7420  223.0600 C.3       1 ADP4405     0.0000 
     18 N9        217.6880  179.9280  222.6410 N.pl3     1 ADP4405     0.0000 
     19 C8        218.2000  179.4440  221.5060 C.2       1 ADP4405     0.0000 
     20 N7        219.5070  179.7650  221.3870 N.2       1 ADP4405     0.0000 
     21 C5        219.8460  180.4680  222.4730 C.ar      1 ADP4405     0.0000 
     22 C6        221.0780  181.1060  222.9720 C.ar      1 ADP4405     0.0000 
     23 N6        222.2250  181.0500  222.2640 N.pl3     1 ADP4405     0.0000 
     24 N1        221.0240  181.7470  224.1530 N.ar      1 ADP4405     0.0000 
     25 C2        219.8860  181.8060  224.8610 C.ar      1 ADP4405     0.0000 
     26 N3        218.7320  181.2450  224.4670 N.ar      1 ADP4405     0.0000 
     27 C4        218.6450  180.5720  223.3010 C.ar      1 ADP4405     0.0000 
@<TRIPOS>BOND
     1    1    2 ar   
     2    1    3 ar   
     3    1    4 ar   
     4    1    8 1    
     5    5    6 ar   
     6    5    7 ar   
     7    5    8 1    
     8    5    9 1    
     9    9   10 1    
    10   10   11 1    
    11   11   12 1    
    12   11   13 1    
    13   12   17 1    
    14   13   14 1    
    15   13   15 1    
    16   15   16 1    
    17   15   17 1    
    18   17   18 1    
    19   18   19 1    
    20   18   27 1    
    21   19   20 2    
    22   20   21 1    
    23   21   22 ar   
    24   21   27 ar   
    25   22   23 1    
    26   22   24 ar   
    27   24   25 ar   
    28   25   26 ar   
    29   26   27 ar   
@<TRIPOS>SUBSTRUCTURE
     1 ADP4405     1 GROUP   
@<TRIPOS>SET
ATOM$ORANGE STATIC     ATOMS   COLORGROUP SYSTEM 
20 10 10 11 11 13 13 15 15 17 17 19 19 21 21 22 22 25 \
25 27 27 

