#    Name: 6dec_4_ATP_CAVITY_N1_4
#    Modification time : Fri May 22 19:27:07 2020

@<TRIPOS>MOLECULE
6dec_4_ATP_CAVITY_N1_4
   89     0     4     0     0
SMALL
NO_CHARGES


@<TRIPOS>ATOM
      1 N          28.9700  275.4800  -56.9600 N.am      1 ALA2        0.0000 
      2 N          29.8700  276.4100  -57.7200 N.am      1 ALA2        0.0000 
      3 N          35.9200  276.2200  -59.6800 N.am      1 ALA2        0.0000 
      4 N          37.0400  275.2300  -59.5700 N.am      1 ALA2        0.0000 
      5 N          28.0600  279.0300  -56.6700 N.am      1 ALA2        0.0000 
      6 N          30.3000  277.0400  -56.4400 N.am      1 ALA2        0.0000 
      7 N          31.4200  276.0500  -56.3300 N.am      1 ALA2        0.0000 
      8 N          28.9600  279.9500  -57.4300 N.am      1 ALA2        0.0000 
      9 O          37.4800  275.8700  -58.2800 O.2       1 ALA2        0.0000 
     10 O          38.6000  274.8800  -58.1700 O.2       1 ALA2        0.0000 
     11 O          39.4900  275.8000  -58.9300 O.2       1 ALA2        0.0000 
     12 O          30.9600  275.7700  -54.2800 O.2       1 ALA2        0.0000 
     13 N          29.6200  278.6700  -55.2700 N.am      1 ALA2        0.0000 
     14 O          31.8600  276.6900  -55.0400 O.2       1 ALA2        0.0000 
     15 O          32.9800  275.7000  -54.9300 O.2       1 ALA2        0.0000 
     16 N          30.5100  279.6000  -56.0300 N.am      1 ALA2        0.0000 
     17 O          33.8700  276.6300  -55.6900 O.2       1 ALA2        0.0000 
     18 N          30.2900  281.5200  -56.9100 N.am      1 ALA2        0.0000 
     19 O          35.8900  276.5700  -56.3400 O.2       1 ALA2        0.0000 
     20 O          33.4100  276.3400  -53.6400 O.2       1 ALA2        0.0000 
     21 N          29.8300  281.2300  -54.8600 N.am      1 ALA2        0.0000 
     22 O          30.9500  280.2400  -54.7500 O.2       1 ALA2        0.0000 
     23 N          30.7200  282.1600  -55.6200 N.am      1 ALA2        0.0000 
     24 O          31.8400  281.1700  -55.5100 O.2       1 ALA2        0.0000 
     25 N          33.8600  281.1100  -56.1600 N.am      1 ALA2        0.0000 
     26 N          34.7600  282.0300  -56.9300 N.am      1 ALA2        0.0000 
     27 O          32.2800  281.8100  -54.2300 O.2       1 ALA2        0.0000 
     28 O          33.4000  280.8200  -54.1100 O.2       1 ALA2        0.0000 
     29 N          34.3000  281.7500  -54.8800 N.am      1 ALA2        0.0000 
     30 O          35.4200  280.7600  -54.7600 O.2       1 ALA2        0.0000 
     31 N          35.1900  282.6700  -55.6400 N.am      1 ALA2        0.0000 
     32 O          37.4400  280.6900  -55.4200 O.2       1 ALA2        0.0000 
     33 O          35.8500  281.3900  -53.4800 O.2       1 ALA2        0.0000 
     34 OD1        30.7600  277.3300  -58.4900 O.co2     2 ASP3        0.0000 
     35 OD1        35.7000  278.1300  -60.5600 O.co2     2 ASP3        0.0000 
     36 OD1        30.0800  278.9600  -57.3200 O.co2     2 ASP3        0.0000 
     37 OD1        31.2000  277.9700  -57.2000 O.co2     2 ASP3        0.0000 
     38 OD1        30.9700  279.8900  -58.0800 O.co2     2 ASP3        0.0000 
     39 OD1        36.3500  276.8600  -58.3900 O.co2     2 ASP3        0.0000 
     40 OD1        33.8900  280.7500  -59.5000 O.co2     2 ASP3        0.0000 
     41 OD1        35.0100  279.7600  -59.3900 O.co2     2 ASP3        0.0000 
     42 OD1        36.1300  278.7700  -59.2700 O.co2     2 ASP3        0.0000 
     43 OD1        37.2500  277.7800  -59.1600 O.co2     2 ASP3        0.0000 
     44 OD1        31.6300  278.6100  -55.9200 O.co2     2 ASP3        0.0000 
     45 OD1        32.7500  277.6200  -55.8100 O.co2     2 ASP3        0.0000 
     46 OD1        31.4100  280.5300  -56.8000 O.co2     2 ASP3        0.0000 
     47 OD1        32.5300  279.5400  -56.6800 O.co2     2 ASP3        0.0000 
     48 OD1        34.7700  277.5600  -56.4600 O.co2     2 ASP3        0.0000 
     49 OD1        32.3100  281.4600  -57.5600 O.co2     2 ASP3        0.0000 
     50 OD1        33.4300  280.4700  -57.4500 O.co2     2 ASP3        0.0000 
     51 OD1        35.6700  278.4900  -57.2200 O.co2     2 ASP3        0.0000 
     52 OD1        36.7900  277.5000  -57.1100 O.co2     2 ASP3        0.0000 
     53 OD1        34.3200  281.3900  -58.2100 O.co2     2 ASP3        0.0000 
     54 OD1        35.4400  280.4000  -58.1000 O.co2     2 ASP3        0.0000 
     55 OD1        36.5700  279.4100  -57.9900 O.co2     2 ASP3        0.0000 
     56 OD1        32.9600  280.1800  -55.4000 O.co2     2 ASP3        0.0000 
     57 OD1        34.0900  279.1900  -55.2900 O.co2     2 ASP3        0.0000 
     58 OD1        35.2100  278.2000  -55.1700 O.co2     2 ASP3        0.0000 
     59 OD1        34.9800  280.1200  -56.0500 O.co2     2 ASP3        0.0000 
     60 OD1        36.1000  279.1300  -55.9400 O.co2     2 ASP3        0.0000 
     61 CA         29.4000  276.1200  -55.6700 C.3       3 GLY6        0.0000 
     62 CA         31.1800  282.4500  -57.6800 C.3       3 GLY6        0.0000 
     63 CA         37.9100  276.5100  -57.0000 C.3       3 GLY6        0.0000 
     64 CA         32.5200  275.4200  -52.8800 C.3       3 GLY6        0.0000 
     65 CA         35.4300  276.2800  -54.2900 C.3       3 GLY6        0.0000 
     66 CA         36.3300  277.2100  -55.0600 C.3       3 GLY6        0.0000 
     67 CA         31.6200  283.0900  -56.3900 C.3       3 GLY6        0.0000 
     68 CA         32.7400  282.1000  -56.2800 C.3       3 GLY6        0.0000 
     69 CA         33.1800  282.7400  -54.9900 C.3       3 GLY6        0.0000 
     70 CA         36.3100  281.6800  -55.5300 C.3       3 GLY6        0.0000 
     71 CA         34.7300  282.3900  -53.5900 C.3       3 GLY6        0.0000 
     72 DU         28.2800  277.1100  -55.7900 H         4 CUB7        0.0000 
     73 DU         29.1800  278.0300  -56.5500 H         4 CUB7        0.0000 
     74 DU         38.3700  276.7900  -59.0500 H         4 CUB7        0.0000 
     75 DU         30.7400  277.6800  -55.1500 H         4 CUB7        0.0000 
     76 DU         37.6900  278.4200  -57.8700 H         4 CUB7        0.0000 
     77 DU         39.9300  276.4400  -57.6500 H         4 CUB7        0.0000 
     78 DU         37.4600  280.3400  -58.7500 H         4 CUB7        0.0000 
     79 DU         39.7000  278.3600  -58.5300 H         4 CUB7        0.0000 
     80 DU         31.1700  278.3200  -53.8700 H         4 CUB7        0.0000 
     81 DU         32.2900  277.3300  -53.7600 H         4 CUB7        0.0000 
     82 DU         32.0700  279.2500  -54.6300 H         4 CUB7        0.0000 
     83 DU         33.1900  278.2600  -54.5200 H         4 CUB7        0.0000 
     84 DU         34.3100  277.2700  -54.4100 H         4 CUB7        0.0000 
     85 DU         37.2200  278.1400  -55.8200 H         4 CUB7        0.0000 
     86 DU         37.0000  280.0500  -56.7000 H         4 CUB7        0.0000 
     87 DU         38.1200  279.0600  -56.5900 H         4 CUB7        0.0000 
     88 DU         34.5200  279.8300  -54.0000 H         4 CUB7        0.0000 
     89 DU         35.6400  278.8400  -53.8900 H         4 CUB7        0.0000 
@<TRIPOS>BOND
@<TRIPOS>SUBSTRUCTURE
     1 ALA2        1 GROUP   
     2 ASP3       34 GROUP   
     3 GLY6       61 GROUP   
     4 CUB7       72 GROUP   
@<TRIPOS>SET

