#    Name: 6dec_3_ATP
#    Modification time : Fri May 22 19:26:55 2020

@<TRIPOS>MOLECULE
6dec_3_ATP
   31    33     1     0     1
SMALL
NO_CHARGES


@<TRIPOS>ATOM
      1 PG         69.0330  190.8800   27.3360 P.3       1 ATP502      0.0000 
      2 O1G        69.0570  189.5430   26.6360 O.co2     1 ATP502      0.0000 
      3 O2G        70.3570  191.3080   27.9180 O.co2     1 ATP502      0.0000 
      4 O3G        67.8770  191.0610   28.2920 O.co2     1 ATP502      0.0000 
      5 PB         69.8200  192.6060   25.1900 P.3       1 ATP502      0.0000 
      6 O1B        69.2220  192.6380   23.8060 O.co2     1 ATP502      0.0000 
      7 O2B        71.1640  191.9530   25.4000 O.co2     1 ATP502      0.0000 
      8 O3B        68.7160  191.9480   26.1680 O.3       1 ATP502      0.0000 
      9 PA         70.5400  195.2970   24.8190 P.3       1 ATP502      0.0000 
     10 O1A        71.0770  194.7070   23.5380 O.co2     1 ATP502      0.0000 
     11 O2A        71.4890  196.0680   25.7030 O.co2     1 ATP502      0.0000 
     12 O3A        69.9070  194.1220   25.7180 O.3       1 ATP502      0.0000 
     13 O5'        69.2840  196.2610   24.5060 O.3       1 ATP502      0.0000 
     14 C5'        68.2590  195.9230   23.5730 C.3       1 ATP502      0.0000 
     15 C4'        67.1040  196.9170   23.7000 C.3       1 ATP502      0.0000 
     16 O4'        67.5830  198.2280   24.0140 O.3       1 ATP502      0.0000 
     17 C3'        66.2900  197.0490   22.4160 C.3       1 ATP502      0.0000 
     18 O3'        65.0190  196.4030   22.5530 O.3       1 ATP502      0.0000 
     19 C2'        66.1020  198.5410   22.1910 C.3       1 ATP502      0.0000 
     20 O2'        64.7140  198.8780   22.0910 O.3       1 ATP502      0.0000 
     21 C1'        66.7290  199.2040   23.4080 C.3       1 ATP502      0.0000 
     22 N9         67.4770  200.4310   23.0280 N.pl3     1 ATP502      0.0000 
     23 C8         68.4450  200.5300   22.0950 C.2       1 ATP502      0.0000 
     24 N7         68.9090  201.8040   22.0020 N.2       1 ATP502      0.0000 
     25 C5         68.2260  202.5500   22.8910 C.ar      1 ATP502      0.0000 
     26 C6         68.2100  203.9720   23.3150 C.ar      1 ATP502      0.0000 
     27 N6         69.0410  204.8860   22.7570 N.pl3     1 ATP502      0.0000 
     28 N1         67.3340  204.3290   24.2820 N.ar      1 ATP502      0.0000 
     29 C2         66.4970  203.4400   24.8520 C.ar      1 ATP502      0.0000 
     30 N3         66.4590  202.1380   24.5170 N.ar      1 ATP502      0.0000 
     31 C4         67.2790  201.6410   23.5580 C.ar      1 ATP502      0.0000 
@<TRIPOS>BOND
     1    1    2 ar   
     2    1    3 ar   
     3    1    4 ar   
     4    1    8 1    
     5    5    6 ar   
     6    5    7 ar   
     7    5    8 1    
     8    5   12 1    
     9    9   10 ar   
    10    9   11 ar   
    11    9   12 1    
    12    9   13 1    
    13   13   14 1    
    14   14   15 1    
    15   15   16 1    
    16   15   17 1    
    17   16   21 1    
    18   17   18 1    
    19   17   19 1    
    20   19   20 1    
    21   19   21 1    
    22   21   22 1    
    23   22   23 1    
    24   22   31 1    
    25   23   24 2    
    26   24   25 1    
    27   25   26 ar   
    28   25   31 ar   
    29   26   27 1    
    30   26   28 ar   
    31   28   29 ar   
    32   29   30 ar   
    33   30   31 ar   
@<TRIPOS>SUBSTRUCTURE
     1 ATP502      1 GROUP   
@<TRIPOS>SET
ATOM$ORANGE STATIC     ATOMS   COLORGROUP SYSTEM 
20 14 14 15 15 17 17 19 19 21 21 23 23 25 25 26 26 29 \
29 31 31 

