#    Name: 6dec_5_ATP
#    Modification time : Fri May 22 19:27:12 2020

@<TRIPOS>MOLECULE
6dec_5_ATP
   31    33     1     0     1
SMALL
NO_CHARGES


@<TRIPOS>ATOM
      1 PG         68.6570  299.1540  -83.4530 P.3       1 ATP502      0.0000 
      2 O1G        67.8320  298.0740  -84.1100 O.co2     1 ATP502      0.0000 
      3 O2G        70.1390  299.0370  -83.7160 O.co2     1 ATP502      0.0000 
      4 O3G        68.1060  300.5490  -83.6240 O.co2     1 ATP502      0.0000 
      5 PB         69.3700  297.7490  -81.1130 P.3       1 ATP502      0.0000 
      6 O1B        70.8290  298.1210  -81.2320 O.co2     1 ATP502      0.0000 
      7 O2B        68.7670  297.5450  -79.7440 O.co2     1 ATP502      0.0000 
      8 O3B        68.4850  298.8590  -81.8770 O.3       1 ATP502      0.0000 
      9 PA         69.8520  295.0360  -81.6430 P.3       1 ATP502      0.0000 
     10 O1A        70.7330  294.6970  -82.8220 O.co2     1 ATP502      0.0000 
     11 O2A        70.4850  295.1580  -80.2770 O.co2     1 ATP502      0.0000 
     12 O3A        69.1060  296.4220  -81.9890 O.3       1 ATP502      0.0000 
     13 O5'        68.6740  293.9350  -81.5980 O.3       1 ATP502      0.0000 
     14 C5'        67.7600  293.8210  -80.5070 C.3       1 ATP502      0.0000 
     15 C4'        66.7730  292.6950  -80.8090 C.3       1 ATP502      0.0000 
     16 O4'        67.4760  291.4890  -81.1160 O.3       1 ATP502      0.0000 
     17 C3'        65.8500  292.3800  -79.6390 C.3       1 ATP502      0.0000 
     18 O3'        64.5210  292.8250  -79.9230 O.3       1 ATP502      0.0000 
     19 C2'        65.8550  290.8700  -79.4990 C.3       1 ATP502      0.0000 
     20 O2'        64.5310  290.3610  -79.6820 O.3       1 ATP502      0.0000 
     21 C1'        66.7620  290.3600  -80.6080 C.3       1 ATP502      0.0000 
     22 N9         67.7050  289.3300  -80.1000 N.pl3     1 ATP502      0.0000 
     23 C8         68.6580  289.5140  -79.1670 C.2       1 ATP502      0.0000 
     24 N7         69.3450  288.3650  -78.9360 N.2       1 ATP502      0.0000 
     25 C5         68.8250  287.4160  -79.7360 C.ar      1 ATP502      0.0000 
     26 C6         69.0790  285.9800  -79.9980 C.ar      1 ATP502      0.0000 
     27 N6         70.0550  285.3100  -79.3390 N.pl3     1 ATP502      0.0000 
     28 N1         68.3040  285.3610  -80.9160 N.ar      1 ATP502      0.0000 
     29 C2         67.3310  286.0140  -81.5780 C.ar      1 ATP502      0.0000 
     30 N3         67.0470  287.3140  -81.3900 N.ar      1 ATP502      0.0000 
     31 C4         67.7430  288.0570  -80.4980 C.ar      1 ATP502      0.0000 
@<TRIPOS>BOND
     1    1    2 ar   
     2    1    3 ar   
     3    1    4 ar   
     4    1    8 1    
     5    5    6 ar   
     6    5    7 ar   
     7    5    8 1    
     8    5   12 1    
     9    9   10 ar   
    10    9   11 ar   
    11    9   12 1    
    12    9   13 1    
    13   13   14 1    
    14   14   15 1    
    15   15   16 1    
    16   15   17 1    
    17   16   21 1    
    18   17   18 1    
    19   17   19 1    
    20   19   20 1    
    21   19   21 1    
    22   21   22 1    
    23   22   23 1    
    24   22   31 1    
    25   23   24 2    
    26   24   25 1    
    27   25   26 ar   
    28   25   31 ar   
    29   26   27 1    
    30   26   28 ar   
    31   28   29 ar   
    32   29   30 ar   
    33   30   31 ar   
@<TRIPOS>SUBSTRUCTURE
     1 ATP502      1 GROUP   
@<TRIPOS>SET
ATOM$ORANGE STATIC     ATOMS   COLORGROUP SYSTEM 
20 14 14 15 15 17 17 19 19 21 21 23 23 25 25 26 26 29 \
29 31 31 

