#    Name: 6dec_2_ATP
#    Modification time : Fri May 22 19:26:46 2020

@<TRIPOS>MOLECULE
6dec_2_ATP
   31    33     1     0     1
SMALL
NO_CHARGES


@<TRIPOS>ATOM
      1 PG         37.5400  209.0340   -5.0080 P.3       1 ATP502      0.0000 
      2 O1G        37.7140  207.6420   -5.5620 O.co2     1 ATP502      0.0000 
      3 O2G        36.8710  209.0810   -3.6550 O.co2     1 ATP502      0.0000 
      4 O3G        38.7760  209.8910   -5.1170 O.co2     1 ATP502      0.0000 
      5 PB         35.0110  209.1220   -6.2050 P.3       1 ATP502      0.0000 
      6 O1B        34.1460  210.1710   -6.8590 O.co2     1 ATP502      0.0000 
      7 O2B        34.5590  208.4730   -4.9170 O.co2     1 ATP502      0.0000 
      8 O3B        36.4910  209.7270   -6.0140 O.3       1 ATP502      0.0000 
      9 PA         34.1750  206.8890   -7.6730 P.3       1 ATP502      0.0000 
     10 O1A        32.8190  207.4930   -7.3960 O.co2     1 ATP502      0.0000 
     11 O2A        34.5500  205.6030   -6.9850 O.co2     1 ATP502      0.0000 
     12 O3A        35.3040  207.9620   -7.2790 O.3       1 ATP502      0.0000 
     13 O5'        34.3830  206.6830   -9.2610 O.3       1 ATP502      0.0000 
     14 C5'        34.2700  207.7530  -10.2050 C.3       1 ATP502      0.0000 
     15 C4'        34.7500  207.2870  -11.5810 C.3       1 ATP502      0.0000 
     16 O4'        34.0630  206.0970  -11.9820 O.3       1 ATP502      0.0000 
     17 C3'        34.5200  208.3170  -12.6810 C.3       1 ATP502      0.0000 
     18 O3'        35.7610  208.8860  -13.1020 O.3       1 ATP502      0.0000 
     19 C2'        33.9240  207.5580  -13.8480 C.3       1 ATP502      0.0000 
     20 O2'        34.7920  207.6580  -14.9800 O.3       1 ATP502      0.0000 
     21 C1'        33.8250  206.1120  -13.3910 C.3       1 ATP502      0.0000 
     22 N9         32.4760  205.5790  -13.7110 N.pl3     1 ATP502      0.0000 
     23 C8         31.3290  206.2850  -13.7080 C.2       1 ATP502      0.0000 
     24 N7         30.2710  205.5060  -14.0540 N.2       1 ATP502      0.0000 
     25 C5         30.7420  204.2680  -14.2930 C.ar      1 ATP502      0.0000 
     26 C6         30.1630  202.9630  -14.6990 C.ar      1 ATP502      0.0000 
     27 N6         28.8340  202.8210  -14.9260 N.pl3     1 ATP502      0.0000 
     28 N1         31.0080  201.9170  -14.8370 N.ar      1 ATP502      0.0000 
     29 C2         32.3310  202.0410  -14.6140 C.ar      1 ATP502      0.0000 
     30 N3         32.9220  203.1930  -14.2430 N.ar      1 ATP502      0.0000 
     31 C4         32.1960  204.3240  -14.0720 C.ar      1 ATP502      0.0000 
@<TRIPOS>BOND
     1    1    2 ar   
     2    1    3 ar   
     3    1    4 ar   
     4    1    8 1    
     5    5    6 ar   
     6    5    7 ar   
     7    5    8 1    
     8    5   12 1    
     9    9   10 ar   
    10    9   11 ar   
    11    9   12 1    
    12    9   13 1    
    13   13   14 1    
    14   14   15 1    
    15   15   16 1    
    16   15   17 1    
    17   16   21 1    
    18   17   18 1    
    19   17   19 1    
    20   19   20 1    
    21   19   21 1    
    22   21   22 1    
    23   22   23 1    
    24   22   31 1    
    25   23   24 2    
    26   24   25 1    
    27   25   26 ar   
    28   25   31 ar   
    29   26   27 1    
    30   26   28 ar   
    31   28   29 ar   
    32   29   30 ar   
    33   30   31 ar   
@<TRIPOS>SUBSTRUCTURE
     1 ATP502      1 GROUP   
@<TRIPOS>SET
ATOM$ORANGE STATIC     ATOMS   COLORGROUP SYSTEM 
20 14 14 15 15 17 17 19 19 21 21 23 23 25 25 26 26 29 \
29 31 31 

