#    Name: 6dec_2_ATP_CAVITY_N1_4
#    Modification time : Fri May 22 19:26:47 2020

@<TRIPOS>MOLECULE
6dec_2_ATP_CAVITY_N1_4
   81     0     5     0     0
SMALL
NO_CHARGES


@<TRIPOS>ATOM
      1 N          30.6400  205.8200   -7.1100 N.am      1 ALA2        0.0000 
      2 O          33.5500  206.6900   -8.5300 O.2       1 ALA2        0.0000 
      3 O          34.4500  207.6100   -9.2900 O.2       1 ALA2        0.0000 
      4 N          31.0700  206.4600   -5.8300 N.am      1 ALA2        0.0000 
      5 N          32.1900  205.4700   -5.7100 N.am      1 ALA2        0.0000 
      6 O          33.0900  206.4000   -6.4800 O.2       1 ALA2        0.0000 
      7 O          34.2100  205.4100   -6.3700 O.2       1 ALA2        0.0000 
      8 O          33.9900  207.3300   -7.2400 O.2       1 ALA2        0.0000 
      9 O          33.7600  209.2400   -8.1200 O.2       1 ALA2        0.0000 
     10 O          34.8900  208.2500   -8.0100 O.2       1 ALA2        0.0000 
     11 N          31.2800  209.0200   -5.4200 N.am      1 ALA2        0.0000 
     12 N          32.4100  208.0300   -5.3100 N.am      1 ALA2        0.0000 
     13 N          33.3000  208.9500   -6.0700 N.am      1 ALA2        0.0000 
     14 O          34.2000  209.8800   -6.8400 O.2       1 ALA2        0.0000 
     15 O          35.3200  208.8900   -6.7200 O.2       1 ALA2        0.0000 
     16 O          36.2200  209.8200   -7.4900 O.2       1 ALA2        0.0000 
     17 O          35.7600  209.5300   -5.4400 O.2       1 ALA2        0.0000 
     18 N          39.1200  206.5600   -5.1000 N.am      1 ALA2        0.0000 
     19 O          37.7700  209.4700   -6.0900 O.2       1 ALA2        0.0000 
     20 N          39.5500  207.2000   -3.8100 N.am      1 ALA2        0.0000 
     21 N          40.6700  206.2100   -3.7000 N.am      1 ALA2        0.0000 
     22 O          38.2100  210.1100   -4.8100 O.2       1 ALA2        0.0000 
     23 N          39.3300  209.1200   -4.6900 N.am      1 ALA2        0.0000 
     24 N          40.4500  208.1300   -4.5800 N.am      1 ALA2        0.0000 
     25 O          40.2300  210.0500   -5.4600 O.2       1 ALA2        0.0000 
     26 O          41.3500  209.0600   -5.3400 O.2       1 ALA2        0.0000 
     27 OD1        32.6300  206.1100   -4.4300 O.co2     2 ASP3        0.0000 
     28 OD1        33.7500  205.1200   -4.3200 O.co2     2 ASP3        0.0000 
     29 OD1        33.5300  207.0400   -5.1900 O.co2     2 ASP3        0.0000 
     30 OD1        34.6500  206.0500   -5.0800 O.co2     2 ASP3        0.0000 
     31 OD1        35.7700  205.0600   -4.9700 O.co2     2 ASP3        0.0000 
     32 OD1        34.4200  207.9600   -5.9600 O.co2     2 ASP3        0.0000 
     33 OD1        35.5400  206.9700   -5.8500 O.co2     2 ASP3        0.0000 
     34 OD1        33.0600  206.7500   -3.1400 O.co2     2 ASP3        0.0000 
     35 OD1        38.2200  205.6300   -4.3300 O.co2     2 ASP3        0.0000 
     36 OD1        36.8800  208.5400   -5.3300 O.co2     2 ASP3        0.0000 
     37 OD1        38.0000  207.5500   -5.2100 O.co2     2 ASP3        0.0000 
     38 OD1        38.6600  206.2700   -3.0500 O.co2     2 ASP3        0.0000 
     39 OD1        37.3100  209.1800   -4.0400 O.co2     2 ASP3        0.0000 
     40 OD1        38.4300  208.1900   -3.9300 O.co2     2 ASP3        0.0000 
     41 OD1        36.8500  208.8900   -1.9900 O.co2     2 ASP3        0.0000 
     42 OD1        37.9700  207.9000   -1.8800 O.co2     2 ASP3        0.0000 
     43 OD1        39.0900  206.9100   -1.7600 O.co2     2 ASP3        0.0000 
     44 OD1        38.8700  208.8300   -2.6400 O.co2     2 ASP3        0.0000 
     45 OD1        38.4100  208.5400   -0.5900 O.co2     2 ASP3        0.0000 
     46 NZ         31.9400  207.7400   -3.2600 N.4       3 LYS4        0.0000 
     47 NZ         32.8400  208.6700   -4.0200 N.4       3 LYS4        0.0000 
     48 CA         32.6800  205.4100  -11.1000 C.3       4 GLY6        0.0000 
     49 CA         31.1000  206.1100   -9.1600 C.3       4 GLY6        0.0000 
     50 CA         32.0000  207.0400   -9.9300 C.3       4 GLY6        0.0000 
     51 CA         33.1200  206.0500   -9.8100 C.3       4 GLY6        0.0000 
     52 CA         34.0200  206.9700  -10.5800 C.3       4 GLY6        0.0000 
     53 CA         33.7900  208.8900  -11.4600 C.3       4 GLY6        0.0000 
     54 CA         30.4100  207.7400   -7.9900 C.3       4 GLY6        0.0000 
     55 CA         31.5400  206.7500   -7.8800 C.3       4 GLY6        0.0000 
     56 CA         31.3100  208.6700   -8.7600 C.3       4 GLY6        0.0000 
     57 CA         32.2100  209.5900   -9.5200 C.3       4 GLY6        0.0000 
     58 CA         33.1100  210.5200  -10.2900 C.3       4 GLY6        0.0000 
     59 CA         34.2300  209.5300  -10.1700 C.3       4 GLY6        0.0000 
     60 CA         29.7300  209.3700   -6.8200 C.3       4 GLY6        0.0000 
     61 CA         30.8500  208.3800   -6.7100 C.3       4 GLY6        0.0000 
     62 CA         32.8700  208.3200   -7.3600 C.3       4 GLY6        0.0000 
     63 CA         35.1100  206.3300   -7.1300 C.3       4 GLY6        0.0000 
     64 CA         34.6600  210.1700   -8.8900 C.3       4 GLY6        0.0000 
     65 CA         30.3900  208.0900   -4.6600 C.3       4 GLY6        0.0000 
     66 CA         36.6700  205.9800   -5.7300 C.3       4 GLY6        0.0000 
     67 CA         36.4400  207.9000   -6.6100 C.3       4 GLY6        0.0000 
     68 CA         37.7500  209.8200   -2.7600 C.3       4 GLY6        0.0000 
     69 CA         38.6400  210.7500   -3.5200 C.3       4 GLY6        0.0000 
     70 CA         39.7600  209.7600   -3.4100 C.3       4 GLY6        0.0000 
     71 CA         40.8900  208.7700   -3.2900 C.3       4 GLY6        0.0000 
     72 CA         38.1800  210.4600   -1.4700 C.3       4 GLY6        0.0000 
     73 CA         39.3000  209.4700   -1.3600 C.3       4 GLY6        0.0000 
     74 DU         32.8900  207.9600  -10.6900 H         5 CUB7        0.0000 
     75 DU         29.5200  206.8100   -7.2300 H         5 CUB7        0.0000 
     76 DU         32.4300  207.6800   -8.6400 H         5 CUB7        0.0000 
     77 DU         33.3300  208.6000   -9.4100 H         5 CUB7        0.0000 
     78 DU         29.9500  207.4500   -5.9400 H         5 CUB7        0.0000 
     79 DU         31.9700  207.3900   -6.5900 H         5 CUB7        0.0000 
     80 DU         31.5100  207.1000   -4.5400 H         5 CUB7        0.0000 
     81 DU         39.9900  207.8400   -2.5300 H         5 CUB7        0.0000 
@<TRIPOS>BOND
@<TRIPOS>SUBSTRUCTURE
     1 ALA2        1 GROUP   
     2 ASP3       27 GROUP   
     3 LYS4       46 GROUP   
     4 GLY6       48 GROUP   
     5 CUB7       74 GROUP   
@<TRIPOS>SET

