#    Name: 6s5g_7_ADP
#    Modification time : Fri May 22 19:28:41 2020

@<TRIPOS>MOLECULE
6s5g_7_ADP
   27    29     1     0     1
SMALL
NO_CHARGES


@<TRIPOS>ATOM
      1 PB        -65.9500    5.1700   -0.2060 P.3       1 ADP601      0.0000 
      2 O1B       -66.1190    4.5360   -1.5640 O.co2     1 ADP601      0.0000 
      3 O2B       -66.4350    4.3260    0.9490 O.co2     1 ADP601      0.0000 
      4 O3B       -64.6070    5.8240    0.0010 O.co2     1 ADP601      0.0000 
      5 PA        -67.1980    7.3570    1.0340 P.3       1 ADP601      0.0000 
      6 O1A       -68.6700    7.3690    1.3660 O.co2     1 ADP601      0.0000 
      7 O2A       -66.1890    7.0360    2.1090 O.co2     1 ADP601      0.0000 
      8 O3A       -66.9650    6.4160   -0.2500 O.3       1 ADP601      0.0000 
      9 O5'       -66.8090    8.7890    0.4170 O.3       1 ADP601      0.0000 
     10 C5'       -67.7810    9.5570   -0.2840 C.3       1 ADP601      0.0000 
     11 C4'       -67.1850   10.9210   -0.5940 C.3       1 ADP601      0.0000 
     12 O4'       -67.5620   11.3500   -1.9020 O.3       1 ADP601      0.0000 
     13 C3'       -67.6800   11.9650    0.3920 C.3       1 ADP601      0.0000 
     14 O3'       -66.6060   12.3860    1.2380 O.3       1 ADP601      0.0000 
     15 C2'       -68.1720   13.1240   -0.4520 C.3       1 ADP601      0.0000 
     16 O2'       -67.5020   14.3280   -0.0720 O.3       1 ADP601      0.0000 
     17 C1'       -67.8420   12.7500   -1.8900 C.3       1 ADP601      0.0000 
     18 N9        -68.9910   13.0470   -2.7800 N.pl3     1 ADP601      0.0000 
     19 C8        -70.2140   12.4930   -2.6950 C.2       1 ADP601      0.0000 
     20 N7        -71.0390   12.9810   -3.6570 N.2       1 ADP601      0.0000 
     21 C5        -70.3360   13.8730   -4.3790 C.ar      1 ADP601      0.0000 
     22 C6        -70.6000   14.7540   -5.5420 C.ar      1 ADP601      0.0000 
     23 N6        -71.8140   14.7810   -6.1410 N.pl3     1 ADP601      0.0000 
     24 N1        -69.5880   15.5320   -5.9850 N.ar      1 ADP601      0.0000 
     25 C2        -68.3760   15.5150   -5.4010 C.ar      1 ADP601      0.0000 
     26 N3        -68.0660   14.7420   -4.3440 N.ar      1 ADP601      0.0000 
     27 C4        -68.9870   13.9140   -3.7950 C.ar      1 ADP601      0.0000 
@<TRIPOS>BOND
     1    1    2 ar   
     2    1    3 ar   
     3    1    4 ar   
     4    1    8 1    
     5    5    6 ar   
     6    5    7 ar   
     7    5    8 1    
     8    5    9 1    
     9    9   10 1    
    10   10   11 1    
    11   11   12 1    
    12   11   13 1    
    13   12   17 1    
    14   13   14 1    
    15   13   15 1    
    16   15   16 1    
    17   15   17 1    
    18   17   18 1    
    19   18   19 1    
    20   18   27 1    
    21   19   20 2    
    22   20   21 1    
    23   21   22 ar   
    24   21   27 ar   
    25   22   23 1    
    26   22   24 ar   
    27   24   25 ar   
    28   25   26 ar   
    29   26   27 ar   
@<TRIPOS>SUBSTRUCTURE
     1 ADP601      1 GROUP   
@<TRIPOS>SET
ATOM$ORANGE STATIC     ATOMS   COLORGROUP SYSTEM 
20 10 10 11 11 13 13 15 15 17 17 19 19 21 21 22 22 25 \
25 27 27 

