#    Name: 6s5g_1_ADP
#    Modification time : Fri May 22 19:28:11 2020

@<TRIPOS>MOLECULE
6s5g_1_ADP
   27    29     1     0     1
SMALL
NO_CHARGES


@<TRIPOS>ATOM
      1 PB         -8.8580    2.1320   -6.5300 P.3       1 ADP601      0.0000 
      2 O1B        -8.1640    3.0380   -7.5140 O.co2     1 ADP601      0.0000 
      3 O2B        -8.7010    2.5390   -5.0850 O.co2     1 ADP601      0.0000 
      4 O3B       -10.2580    1.7390   -6.9330 O.co2     1 ADP601      0.0000 
      5 PA         -8.2840   -0.4640   -5.6440 P.3       1 ADP601      0.0000 
      6 O1A        -9.6340   -0.3180   -4.9820 O.co2     1 ADP601      0.0000 
      7 O2A        -7.0510   -0.6570   -4.7950 O.co2     1 ADP601      0.0000 
      8 O3A        -8.0280    0.7620   -6.6520 O.3       1 ADP601      0.0000 
      9 O5'        -8.3820   -1.6850   -6.6860 O.3       1 ADP601      0.0000 
     10 C5'        -7.2020   -2.2910   -7.2000 C.3       1 ADP601      0.0000 
     11 C4'        -7.5910   -3.5410   -7.9720 C.3       1 ADP601      0.0000 
     12 O4'        -6.6590   -3.7810   -9.0280 O.3       1 ADP601      0.0000 
     13 C3'        -7.5870   -4.7590   -7.0630 C.3       1 ADP601      0.0000 
     14 O3'        -8.9100   -5.2860   -6.9400 O.3       1 ADP601      0.0000 
     15 C2'        -6.6900   -5.7720   -7.7430 C.3       1 ADP601      0.0000 
     16 O2'        -7.3810   -7.0140   -7.8820 O.3       1 ADP601      0.0000 
     17 C1'        -6.3510   -5.1730   -9.0990 C.3       1 ADP601      0.0000 
     18 N9         -4.9100   -5.3670   -9.3900 N.pl3     1 ADP601      0.0000 
     19 C8         -3.8870   -4.9300   -8.6310 C.2       1 ADP601      0.0000 
     20 N7         -2.6930   -5.2790   -9.1750 N.2       1 ADP601      0.0000 
     21 C5         -2.9480   -5.9610  -10.3070 C.ar      1 ADP601      0.0000 
     22 C6         -2.1450   -6.6160  -11.3650 C.ar      1 ADP601      0.0000 
     23 N6         -0.7910   -6.6150  -11.3220 N.pl3     1 ADP601      0.0000 
     24 N1         -2.8080   -7.2180  -12.3760 N.ar      1 ADP601      0.0000 
     25 C2         -4.1510   -7.2290  -12.4340 C.ar      1 ADP601      0.0000 
     26 N3         -4.9420   -6.6550  -11.5100 N.ar      1 ADP601      0.0000 
     27 C4         -4.4100   -6.0180  -10.4410 C.ar      1 ADP601      0.0000 
@<TRIPOS>BOND
     1    1    2 ar   
     2    1    3 ar   
     3    1    4 ar   
     4    1    8 1    
     5    5    6 ar   
     6    5    7 ar   
     7    5    8 1    
     8    5    9 1    
     9    9   10 1    
    10   10   11 1    
    11   11   12 1    
    12   11   13 1    
    13   12   17 1    
    14   13   14 1    
    15   13   15 1    
    16   15   16 1    
    17   15   17 1    
    18   17   18 1    
    19   18   19 1    
    20   18   27 1    
    21   19   20 2    
    22   20   21 1    
    23   21   22 ar   
    24   21   27 ar   
    25   22   23 1    
    26   22   24 ar   
    27   24   25 ar   
    28   25   26 ar   
    29   26   27 ar   
@<TRIPOS>SUBSTRUCTURE
     1 ADP601      1 GROUP   
@<TRIPOS>SET
ATOM$ORANGE STATIC     ATOMS   COLORGROUP SYSTEM 
20 10 10 11 11 13 13 15 15 17 17 19 19 21 21 22 22 25 \
25 27 27 

