#    Name: 6s5g_8_ADP
#    Modification time : Fri May 22 19:28:46 2020

@<TRIPOS>MOLECULE
6s5g_8_ADP
   27    29     1     0     1
SMALL
NO_CHARGES


@<TRIPOS>ATOM
      1 PB        -68.9250   -3.3290    3.4740 P.3       1 ADP601      0.0000 
      2 O1B       -69.3300   -4.5270    2.6530 O.co2     1 ADP601      0.0000 
      3 O2B       -67.6410   -3.5180    4.2410 O.co2     1 ADP601      0.0000 
      4 O3B       -69.0480   -1.9990    2.7710 O.co2     1 ADP601      0.0000 
      5 PA        -71.6000   -3.0880    4.2720 P.3       1 ADP601      0.0000 
      6 O1A       -71.8390   -3.4170    2.8180 O.co2     1 ADP601      0.0000 
      7 O2A       -72.0670   -1.7670    4.8350 O.co2     1 ADP601      0.0000 
      8 O3A       -70.0430   -3.2750    4.6270 O.3       1 ADP601      0.0000 
      9 O5'       -72.2470   -4.2640    5.1570 O.3       1 ADP601      0.0000 
     10 C5'       -73.1080   -3.9570    6.2480 C.3       1 ADP601      0.0000 
     11 C4'       -73.7940   -5.2350    6.7050 C.3       1 ADP601      0.0000 
     12 O4'       -73.5620   -5.4620    8.0960 O.3       1 ADP601      0.0000 
     13 C3'       -75.2970   -5.1380    6.5020 C.3       1 ADP601      0.0000 
     14 O3'       -75.7070   -6.0360    5.4670 O.3       1 ADP601      0.0000 
     15 C2'       -75.9160   -5.5390    7.8260 C.3       1 ADP601      0.0000 
     16 O2'       -76.8240   -6.6260    7.6360 O.3       1 ADP601      0.0000 
     17 C1'       -74.7520   -5.9550    8.7120 C.3       1 ADP601      0.0000 
     18 N9        -74.9120   -5.3700   10.0650 N.pl3     1 ADP601      0.0000 
     19 C8        -74.9730   -4.0560   10.3500 C.2       1 ADP601      0.0000 
     20 N7        -75.1270   -3.8520   11.6830 N.2       1 ADP601      0.0000 
     21 C5        -75.1690   -5.0610   12.2740 C.ar      1 ADP601      0.0000 
     22 C6        -75.3140   -5.5690   13.6590 C.ar      1 ADP601      0.0000 
     23 N6        -75.4490   -4.7190   14.7060 N.pl3     1 ADP601      0.0000 
     24 N1        -75.3080   -6.9080   13.8420 N.ar      1 ADP601      0.0000 
     25 C2        -75.1740   -7.7630   12.8100 C.ar      1 ADP601      0.0000 
     26 N3        -75.0390   -7.3730   11.5310 N.ar      1 ADP601      0.0000 
     27 C4        -75.0300   -6.0580   11.2020 C.ar      1 ADP601      0.0000 
@<TRIPOS>BOND
     1    1    2 ar   
     2    1    3 ar   
     3    1    4 ar   
     4    1    8 1    
     5    5    6 ar   
     6    5    7 ar   
     7    5    8 1    
     8    5    9 1    
     9    9   10 1    
    10   10   11 1    
    11   11   12 1    
    12   11   13 1    
    13   12   17 1    
    14   13   14 1    
    15   13   15 1    
    16   15   16 1    
    17   15   17 1    
    18   17   18 1    
    19   18   19 1    
    20   18   27 1    
    21   19   20 2    
    22   20   21 1    
    23   21   22 ar   
    24   21   27 ar   
    25   22   23 1    
    26   22   24 ar   
    27   24   25 ar   
    28   25   26 ar   
    29   26   27 ar   
@<TRIPOS>SUBSTRUCTURE
     1 ADP601      1 GROUP   
@<TRIPOS>SET
ATOM$ORANGE STATIC     ATOMS   COLORGROUP SYSTEM 
20 10 10 11 11 13 13 15 15 17 17 19 19 21 21 22 22 25 \
25 27 27 

