#    Name: 6s5g_4_ADP
#    Modification time : Fri May 22 19:28:26 2020

@<TRIPOS>MOLECULE
6s5g_4_ADP
   27    29     1     0     1
SMALL
NO_CHARGES


@<TRIPOS>ATOM
      1 PB        -23.2160   -4.6800  -63.8550 P.3       1 ADP601      0.0000 
      2 O1B       -23.9120   -4.2270  -65.1160 O.co2     1 ADP601      0.0000 
      3 O2B       -23.3490   -3.7320  -62.6890 O.co2     1 ADP601      0.0000 
      4 O3B       -21.8210   -5.2190  -64.0630 O.co2     1 ADP601      0.0000 
      5 PA        -24.3730   -7.1810  -64.3800 P.3       1 ADP601      0.0000 
      6 O1A       -23.3920   -7.1780  -65.5270 O.co2     1 ADP601      0.0000 
      7 O2A       -25.8540   -7.1960  -64.6650 O.co2     1 ADP601      0.0000 
      8 O3A       -24.0510   -5.9670  -63.3750 O.3       1 ADP601      0.0000 
      9 O5'       -24.0370   -8.4450  -63.4460 O.3       1 ADP601      0.0000 
     10 C5'       -24.9610   -8.8500  -62.4410 C.3       1 ADP601      0.0000 
     11 C4'       -24.5710  -10.2350  -61.9530 C.3       1 ADP601      0.0000 
     12 O4'       -25.0440  -10.4410  -60.6220 O.3       1 ADP601      0.0000 
     13 C3'       -25.1890  -11.3080  -62.8340 C.3       1 ADP601      0.0000 
     14 O3'       -24.1650  -12.0180  -63.5360 O.3       1 ADP601      0.0000 
     15 C2'       -25.9160  -12.2420  -61.8890 C.3       1 ADP601      0.0000 
     16 O2'       -25.5070  -13.5940  -62.1060 O.3       1 ADP601      0.0000 
     17 C1'       -25.5310  -11.7760  -60.4930 C.3       1 ADP601      0.0000 
     18 N9        -26.7140  -11.8260  -59.6050 N.pl3     1 ADP601      0.0000 
     19 C8        -27.8890  -11.2060  -59.8190 C.2       1 ADP601      0.0000 
     20 N7        -28.7660  -11.4660  -58.8170 N.2       1 ADP601      0.0000 
     21 C5        -28.1480  -12.2760  -57.9380 C.ar      1 ADP601      0.0000 
     22 C6        -28.4990  -12.9310  -56.6570 C.ar      1 ADP601      0.0000 
     23 N6        -29.7220  -12.7690  -56.1000 N.pl3     1 ADP601      0.0000 
     24 N1        -27.5580  -13.6980  -56.0650 N.ar      1 ADP601      0.0000 
     25 C2        -26.3390  -13.8660  -56.6080 C.ar      1 ADP601      0.0000 
     26 N3        -25.9520  -13.3040  -57.7660 N.ar      1 ADP601      0.0000 
     27 C4        -26.7970  -12.5130  -58.4660 C.ar      1 ADP601      0.0000 
@<TRIPOS>BOND
     1    1    2 ar   
     2    1    3 ar   
     3    1    4 ar   
     4    1    8 1    
     5    5    6 ar   
     6    5    7 ar   
     7    5    8 1    
     8    5    9 1    
     9    9   10 1    
    10   10   11 1    
    11   11   12 1    
    12   11   13 1    
    13   12   17 1    
    14   13   14 1    
    15   13   15 1    
    16   15   16 1    
    17   15   17 1    
    18   17   18 1    
    19   18   19 1    
    20   18   27 1    
    21   19   20 2    
    22   20   21 1    
    23   21   22 ar   
    24   21   27 ar   
    25   22   23 1    
    26   22   24 ar   
    27   24   25 ar   
    28   25   26 ar   
    29   26   27 ar   
@<TRIPOS>SUBSTRUCTURE
     1 ADP601      1 GROUP   
@<TRIPOS>SET
ATOM$ORANGE STATIC     ATOMS   COLORGROUP SYSTEM 
20 10 10 11 11 13 13 15 15 17 17 19 19 21 21 22 22 25 \
25 27 27 

