#    Name: 6s5g_6_ADP
#    Modification time : Fri May 22 19:28:37 2020

@<TRIPOS>MOLECULE
6s5g_6_ADP
   27    29     1     0     1
SMALL
NO_CHARGES


@<TRIPOS>ATOM
      1 PB        -34.9390   68.4320  -43.2470 P.3       1 ADP601      0.0000 
      2 O1B       -35.7570   67.6660  -44.2550 O.co2     1 ADP601      0.0000 
      3 O2B       -34.9710   67.8590  -41.8500 O.co2     1 ADP601      0.0000 
      4 O3B       -33.5670   68.8400  -43.7310 O.co2     1 ADP601      0.0000 
      5 PA        -35.3550   70.9100  -42.0030 P.3       1 ADP601      0.0000 
      6 O1A       -33.9820   70.6230  -41.4470 O.co2     1 ADP601      0.0000 
      7 O2A       -36.5320   71.0680  -41.0710 O.co2     1 ADP601      0.0000 
      8 O3A       -35.7300   69.8260  -43.1290 O.3       1 ADP601      0.0000 
      9 O5'       -35.2400   72.2350  -42.9020 O.3       1 ADP601      0.0000 
     10 C5'       -36.3910   72.7420  -43.5650 C.3       1 ADP601      0.0000 
     11 C4'       -36.0670   74.1240  -44.1060 C.3       1 ADP601      0.0000 
     12 O4'       -37.0320   74.5080  -45.0850 O.3       1 ADP601      0.0000 
     13 C3'       -36.1010   75.1570  -42.9920 C.3       1 ADP601      0.0000 
     14 O3'       -34.7910   75.6910  -42.7800 O.3       1 ADP601      0.0000 
     15 C2'       -37.0380   76.2460  -43.4730 C.3       1 ADP601      0.0000 
     16 O2'       -36.3880   77.5170  -43.3950 O.3       1 ADP601      0.0000 
     17 C1'       -37.3770   75.8820  -44.9120 C.3       1 ADP601      0.0000 
     18 N9        -38.8250   76.0840  -45.1680 N.pl3     1 ADP601      0.0000 
     19 C8        -39.8320   75.5880  -44.4250 C.2       1 ADP601      0.0000 
     20 N7        -41.0380   75.9620  -44.9240 N.2       1 ADP601      0.0000 
     21 C5        -40.8080   76.7200  -46.0110 C.ar      1 ADP601      0.0000 
     22 C6        -41.6360   77.4380  -47.0090 C.ar      1 ADP601      0.0000 
     23 N6        -42.9890   77.4180  -46.9410 N.pl3     1 ADP601      0.0000 
     24 N1        -40.9970   78.1130  -47.9890 N.ar      1 ADP601      0.0000 
     25 C2        -39.6540   78.1400  -48.0690 C.ar      1 ADP601      0.0000 
     26 N3        -38.8420   77.5140  -47.1990 N.ar      1 ADP601      0.0000 
     27 C4        -39.3480   76.8000  -46.1660 C.ar      1 ADP601      0.0000 
@<TRIPOS>BOND
     1    1    2 ar   
     2    1    3 ar   
     3    1    4 ar   
     4    1    8 1    
     5    5    6 ar   
     6    5    7 ar   
     7    5    8 1    
     8    5    9 1    
     9    9   10 1    
    10   10   11 1    
    11   11   12 1    
    12   11   13 1    
    13   12   17 1    
    14   13   14 1    
    15   13   15 1    
    16   15   16 1    
    17   15   17 1    
    18   17   18 1    
    19   18   19 1    
    20   18   27 1    
    21   19   20 2    
    22   20   21 1    
    23   21   22 ar   
    24   21   27 ar   
    25   22   23 1    
    26   22   24 ar   
    27   24   25 ar   
    28   25   26 ar   
    29   26   27 ar   
@<TRIPOS>SUBSTRUCTURE
     1 ADP601      1 GROUP   
@<TRIPOS>SET
ATOM$ORANGE STATIC     ATOMS   COLORGROUP SYSTEM 
20 10 10 11 11 13 13 15 15 17 17 19 19 21 21 22 22 25 \
25 27 27 

