#    Name: 6s5g_3_ADP
#    Modification time : Fri May 22 19:28:21 2020

@<TRIPOS>MOLECULE
6s5g_3_ADP
   27    29     1     0     1
SMALL
NO_CHARGES


@<TRIPOS>ATOM
      1 PB        -25.7130    2.7200  -69.2880 P.3       1 ADP601      0.0000 
      2 O1B       -24.5910    2.6870  -70.2980 O.co2     1 ADP601      0.0000 
      3 O2B       -25.5490    1.7560  -68.1380 O.co2     1 ADP601      0.0000 
      4 O3B       -26.1470    4.1100  -68.8900 O.co2     1 ADP601      0.0000 
      5 PA        -28.4480    2.1030  -69.4500 P.3       1 ADP601      0.0000 
      6 O1A       -29.0670    0.7590  -69.7530 O.co2     1 ADP601      0.0000 
      7 O2A       -28.4120    2.6160  -68.0300 O.co2     1 ADP601      0.0000 
      8 O3A       -26.9790    2.1580  -70.1050 O.3       1 ADP601      0.0000 
      9 O5'       -29.1990    3.2130  -70.3370 O.3       1 ADP601      0.0000 
     10 C5'       -29.6520    2.8980  -71.6490 C.3       1 ADP601      0.0000 
     11 C4'       -30.3460    4.1190  -72.2320 C.3       1 ADP601      0.0000 
     12 O4'       -30.3010    4.0750  -73.6590 O.3       1 ADP601      0.0000 
     13 C3'       -31.8060    4.1660  -71.8140 C.3       1 ADP601      0.0000 
     14 O3'       -32.0450    5.3280  -71.0170 O.3       1 ADP601      0.0000 
     15 C2'       -32.5990    4.2490  -73.1020 C.3       1 ADP601      0.0000 
     16 O2'       -33.4960    5.3600  -73.0550 O.3       1 ADP601      0.0000 
     17 C1'       -31.5690    4.4370  -74.2040 C.3       1 ADP601      0.0000 
     18 N9        -31.8890    3.5610  -75.3560 N.pl3     1 ADP601      0.0000 
     19 C8        -31.9940    2.2200  -75.3190 C.2       1 ADP601      0.0000 
     20 N7        -32.3010    1.7200  -76.5430 N.2       1 ADP601      0.0000 
     21 C5        -32.3990    2.7600  -77.3920 C.ar      1 ADP601      0.0000 
     22 C6        -32.6970    2.9410  -78.8330 C.ar      1 ADP601      0.0000 
     23 N6        -32.9580    1.8790  -79.6330 N.pl3     1 ADP601      0.0000 
     24 N1        -32.6990    4.2010  -79.3210 N.ar      1 ADP601      0.0000 
     25 C2        -32.4400    5.2640  -78.5380 C.ar      1 ADP601      0.0000 
     26 N3        -32.1640    5.1750  -77.2250 N.ar      1 ADP601      0.0000 
     27 C4        -32.1300    3.9720  -76.6030 C.ar      1 ADP601      0.0000 
@<TRIPOS>BOND
     1    1    2 ar   
     2    1    3 ar   
     3    1    4 ar   
     4    1    8 1    
     5    5    6 ar   
     6    5    7 ar   
     7    5    8 1    
     8    5    9 1    
     9    9   10 1    
    10   10   11 1    
    11   11   12 1    
    12   11   13 1    
    13   12   17 1    
    14   13   14 1    
    15   13   15 1    
    16   15   16 1    
    17   15   17 1    
    18   17   18 1    
    19   18   19 1    
    20   18   27 1    
    21   19   20 2    
    22   20   21 1    
    23   21   22 ar   
    24   21   27 ar   
    25   22   23 1    
    26   22   24 ar   
    27   24   25 ar   
    28   25   26 ar   
    29   26   27 ar   
@<TRIPOS>SUBSTRUCTURE
     1 ADP601      1 GROUP   
@<TRIPOS>SET
ATOM$ORANGE STATIC     ATOMS   COLORGROUP SYSTEM 
20 10 10 11 11 13 13 15 15 17 17 19 19 21 21 22 22 25 \
25 27 27 

