#    Name: 6s5g_5_ADP
#    Modification time : Fri May 22 19:28:32 2020

@<TRIPOS>MOLECULE
6s5g_5_ADP
   27    29     1     0     1
SMALL
NO_CHARGES


@<TRIPOS>ATOM
      1 PB        -35.3920   61.6780  -38.1100 P.3       1 ADP601      0.0000 
      2 O1B       -36.1430   62.3800  -39.2150 O.co2     1 ADP601      0.0000 
      3 O2B       -33.9650   62.1350  -37.9440 O.co2     1 ADP601      0.0000 
      4 O3B       -35.5730   60.1800  -38.0720 O.co2     1 ADP601      0.0000 
      5 PA        -37.6880   62.1520  -36.5520 P.3       1 ADP601      0.0000 
      6 O1A       -38.3770   61.6000  -37.7770 O.co2     1 ADP601      0.0000 
      7 O2A       -38.1190   63.4780  -35.9710 O.co2     1 ADP601      0.0000 
      8 O3A       -36.0930   62.1810  -36.7540 O.3       1 ADP601      0.0000 
      9 O5'       -37.8060   61.0340  -35.4050 O.3       1 ADP601      0.0000 
     10 C5'       -37.9120   61.4070  -34.0370 C.3       1 ADP601      0.0000 
     11 C4'       -38.3710   60.1940  -33.2470 C.3       1 ADP601      0.0000 
     12 O4'       -37.7160   60.1590  -31.9800 O.3       1 ADP601      0.0000 
     13 C3'       -39.8680   60.2570  -33.0000 C.3       1 ADP601      0.0000 
     14 O3'       -40.5090   59.1300  -33.6030 O.3       1 ADP601      0.0000 
     15 C2'       -40.0320   60.2050  -31.4960 C.3       1 ADP601      0.0000 
     16 O2'       -40.9990   59.2180  -31.1370 O.3       1 ADP601      0.0000 
     17 C1'       -38.6580   59.8470  -30.9550 C.3       1 ADP601      0.0000 
     18 N9        -38.3700   60.6440  -29.7410 N.pl3     1 ADP601      0.0000 
     19 C8        -38.3810   61.9870  -29.6590 C.2       1 ADP601      0.0000 
     20 N7        -38.0800   62.4000  -28.4020 N.2       1 ADP601      0.0000 
     21 C5        -37.8740   61.3000  -27.6540 C.ar      1 ADP601      0.0000 
     22 C6        -37.5220   61.0170  -26.2430 C.ar      1 ADP601      0.0000 
     23 N6        -37.3240   62.0220  -25.3560 N.pl3     1 ADP601      0.0000 
     24 N1        -37.4040   59.7220  -25.8720 N.ar      1 ADP601      0.0000 
     25 C2        -37.5970   58.7140  -26.7430 C.ar      1 ADP601      0.0000 
     26 N3        -37.9190   58.8970  -28.0350 N.ar      1 ADP601      0.0000 
     27 C4        -38.0700   60.1440  -28.5420 C.ar      1 ADP601      0.0000 
@<TRIPOS>BOND
     1    1    2 ar   
     2    1    3 ar   
     3    1    4 ar   
     4    1    8 1    
     5    5    6 ar   
     6    5    7 ar   
     7    5    8 1    
     8    5    9 1    
     9    9   10 1    
    10   10   11 1    
    11   11   12 1    
    12   11   13 1    
    13   12   17 1    
    14   13   14 1    
    15   13   15 1    
    16   15   16 1    
    17   15   17 1    
    18   17   18 1    
    19   18   19 1    
    20   18   27 1    
    21   19   20 2    
    22   20   21 1    
    23   21   22 ar   
    24   21   27 ar   
    25   22   23 1    
    26   22   24 ar   
    27   24   25 ar   
    28   25   26 ar   
    29   26   27 ar   
@<TRIPOS>SUBSTRUCTURE
     1 ADP601      1 GROUP   
@<TRIPOS>SET
ATOM$ORANGE STATIC     ATOMS   COLORGROUP SYSTEM 
20 10 10 11 11 13 13 15 15 17 17 19 19 21 21 22 22 25 \
25 27 27 

