#    Name: 6s5g_2_ADP
#    Modification time : Fri May 22 19:28:16 2020

@<TRIPOS>MOLECULE
6s5g_2_ADP
   27    29     1     0     1
SMALL
NO_CHARGES


@<TRIPOS>ATOM
      1 PB         -8.5900    9.2980   -1.1150 P.3       1 ADP601      0.0000 
      2 O1B        -8.1230    8.2440   -2.0900 O.co2     1 ADP601      0.0000 
      3 O2B       -10.0760    9.3000   -0.8580 O.co2     1 ADP601      0.0000 
      4 O3B        -8.0000   10.6690   -1.3320 O.co2     1 ADP601      0.0000 
      5 PA         -6.3780    8.6150    0.4670 P.3       1 ADP601      0.0000 
      6 O1A        -5.6430    9.0970   -0.7610 O.co2     1 ADP601      0.0000 
      7 O2A        -6.1440    7.2170    0.9860 O.co2     1 ADP601      0.0000 
      8 O3A        -7.9610    8.8440    0.2930 O.3       1 ADP601      0.0000 
      9 O5'        -6.0630    9.6530    1.6530 O.3       1 ADP601      0.0000 
     10 C5'        -6.1250    9.2380    3.0130 C.3       1 ADP601      0.0000 
     11 C4'        -5.5830   10.3590    3.8870 C.3       1 ADP601      0.0000 
     12 O4'        -6.2810   10.4030    5.1320 O.3       1 ADP601      0.0000 
     13 C3'        -4.1090   10.1430    4.1900 C.3       1 ADP601      0.0000 
     14 O3'        -3.3340   11.1860    3.5940 O.3       1 ADP601      0.0000 
     15 C2'        -3.9910   10.2010    5.7000 C.3       1 ADP601      0.0000 
     16 O2'        -2.9800   11.1350    6.0840 O.3       1 ADP601      0.0000 
     17 C1'        -5.3580   10.6440    6.1950 C.3       1 ADP601      0.0000 
     18 N9         -5.7420    9.8600    7.3940 N.pl3     1 ADP601      0.0000 
     19 C8         -5.8460    8.5200    7.4570 C.2       1 ADP601      0.0000 
     20 N7         -6.2130    8.1170    8.7000 N.2       1 ADP601      0.0000 
     21 C5         -6.3470    9.2200    9.4600 C.ar      1 ADP601      0.0000 
     22 C6         -6.7120    9.5120   10.8670 C.ar      1 ADP601      0.0000 
     23 N6         -7.0150    8.5150   11.7330 N.pl3     1 ADP601      0.0000 
     24 N1         -6.7320   10.8060   11.2560 N.ar      1 ADP601      0.0000 
     25 C2         -6.4330   11.8070   10.4050 C.ar      1 ADP601      0.0000 
     26 N3         -6.0930   11.6150    9.1170 N.ar      1 ADP601      0.0000 
     27 C4         -6.0320   10.3670    8.5940 C.ar      1 ADP601      0.0000 
@<TRIPOS>BOND
     1    1    2 ar   
     2    1    3 ar   
     3    1    4 ar   
     4    1    8 1    
     5    5    6 ar   
     6    5    7 ar   
     7    5    8 1    
     8    5    9 1    
     9    9   10 1    
    10   10   11 1    
    11   11   12 1    
    12   11   13 1    
    13   12   17 1    
    14   13   14 1    
    15   13   15 1    
    16   15   16 1    
    17   15   17 1    
    18   17   18 1    
    19   18   19 1    
    20   18   27 1    
    21   19   20 2    
    22   20   21 1    
    23   21   22 ar   
    24   21   27 ar   
    25   22   23 1    
    26   22   24 ar   
    27   24   25 ar   
    28   25   26 ar   
    29   26   27 ar   
@<TRIPOS>SUBSTRUCTURE
     1 ADP601      1 GROUP   
@<TRIPOS>SET
ATOM$ORANGE STATIC     ATOMS   COLORGROUP SYSTEM 
20 10 10 11 11 13 13 15 15 17 17 19 19 21 21 22 22 25 \
25 27 27 

