#    Name: 6dmi_1_5T5_CAVITY_N1_ALL
#    Modification time : Fri May 22 19:45:45 2020

@<TRIPOS>MOLECULE
6dmi_1_5T5_CAVITY_N1_ALL
  108     0     7     0     0
SMALL
NO_CHARGES


@<TRIPOS>ATOM
      1 OG        -15.4500   41.8000   93.1200 O.3       1 SER1        0.0000 
      2 OG        -11.1000   40.4100   95.0700 O.3       1 SER1        0.0000 
      3 OG        -10.3000   38.8000   97.9000 O.3       1 SER1        0.0000 
      4 OG        -11.1900   39.6400   97.0500 O.3       1 SER1        0.0000 
      5 OG        -12.0900   40.4900   96.2000 O.3       1 SER1        0.0000 
      6 N         -22.7600   40.3400   88.7900 N.am      2 ALA2        0.0000 
      7 N         -19.2900   39.8000   89.8800 N.am      2 ALA2        0.0000 
      8 N         -20.1900   40.6500   89.0300 N.am      2 ALA2        0.0000 
      9 N         -21.1800   40.7300   90.1500 N.am      2 ALA2        0.0000 
     10 O         -16.8000   35.7300   96.4000 O.2       2 ALA2        0.0000 
     11 N         -22.2700   40.0500   93.2500 N.am      2 ALA2        0.0000 
     12 N         -20.4000   42.7300   88.6900 N.am      2 ALA2        0.0000 
     13 N         -18.7100   40.2700   92.3700 N.am      2 ALA2        0.0000 
     14 N         -19.6000   41.1200   91.5200 N.am      2 ALA2        0.0000 
     15 N         -20.5000   41.9600   90.6600 N.am      2 ALA2        0.0000 
     16 N         -21.3900   42.8100   89.8100 N.am      2 ALA2        0.0000 
     17 N         -22.2900   43.6600   88.9500 N.am      2 ALA2        0.0000 
     18 N         -14.2500   39.6400   92.3400 N.am      2 ALA2        0.0000 
     19 N         -14.3500   38.8700   94.3200 N.am      2 ALA2        0.0000 
     20 N         -16.1400   40.5700   92.6100 N.am      2 ALA2        0.0000 
     21 N         -18.0200   41.5000   92.8800 N.am      2 ALA2        0.0000 
     22 N         -12.6700   40.0200   93.7100 N.am      2 ALA2        0.0000 
     23 N         -13.6600   40.1100   94.8300 N.am      2 ALA2        0.0000 
     24 OD1       -13.5500   37.2600   97.1500 O.co2     3 ASP3        0.0000 
     25 OD1       -14.5400   37.3500   98.2800 O.co2     3 ASP3        0.0000 
     26 OD1       -12.8700   38.4900   97.6600 O.co2     3 ASP3        0.0000 
     27 OD1       -12.1800   39.7300   98.1700 O.co2     3 ASP3        0.0000 
     28 NZ        -18.4000   38.9500   90.7400 N.4       4 LYS4        0.0000 
     29 NZ        -17.6000   37.3400   93.5700 N.4       4 LYS4        0.0000 
     30 NZ        -18.5000   38.1900   92.7200 N.4       4 LYS4        0.0000 
     31 NZ        -15.9300   38.4900   92.9600 N.4       4 LYS4        0.0000 
     32 NZ        -16.8200   39.3300   92.1000 N.4       4 LYS4        0.0000 
     33 NZ        -16.9200   38.5700   94.0800 N.4       4 LYS4        0.0000 
     34 NZ        -17.8100   39.4200   93.2300 N.4       4 LYS4        0.0000 
     35 NZ        -15.2400   39.7200   93.4700 N.4       4 LYS4        0.0000 
     36 NZ        -13.5700   40.8700   92.8500 N.4       4 LYS4        0.0000 
     37 CZ        -21.8600   39.5000   89.6400 C.ar      5 PHE5        0.0000 
     38 CZ        -20.1700   37.0400   93.3300 C.ar      5 PHE5        0.0000 
     39 CZ        -21.0600   37.8800   92.4700 C.ar      5 PHE5        0.0000 
     40 CZ        -21.9600   38.7300   91.6200 C.ar      5 PHE5        0.0000 
     41 CZ        -22.0600   37.9700   93.6000 C.ar      5 PHE5        0.0000 
     42 CZ        -18.5900   37.4200   94.6900 C.ar      5 PHE5        0.0000 
     43 CZ        -19.4900   38.2700   93.8400 C.ar      5 PHE5        0.0000 
     44 CZ        -22.1700   40.8200   91.2800 C.ar      5 PHE5        0.0000 
     45 CZ        -20.4800   38.3600   94.9600 C.ar      5 PHE5        0.0000 
     46 CZ        -21.3700   39.2000   94.1100 C.ar      5 PHE5        0.0000 
     47 CZ        -16.1200   36.9600   96.9100 C.ar      5 PHE5        0.0000 
     48 CZ        -17.0100   37.8100   96.0600 C.ar      5 PHE5        0.0000 
     49 CZ        -18.9000   38.7400   96.3300 C.ar      5 PHE5        0.0000 
     50 CZ        -15.4400   38.1900   97.4200 C.ar      5 PHE5        0.0000 
     51 CZ        -16.3300   39.0400   96.5700 C.ar      5 PHE5        0.0000 
     52 CZ        -11.9900   41.2600   94.2200 C.ar      5 PHE5        0.0000 
     53 CA        -19.1800   36.9500   92.2100 C.3       6 GLY6        0.0000 
     54 CA        -20.0700   37.8000   91.3500 C.3       6 GLY6        0.0000 
     55 CA        -21.0800   41.4900   88.1800 C.3       6 GLY6        0.0000 
     56 CA        -15.8100   35.6400   95.2800 C.3       6 GLY6        0.0000 
     57 CA        -16.7100   36.4900   94.4200 C.3       6 GLY6        0.0000 
     58 CA        -19.3900   39.0300   91.8600 C.3       6 GLY6        0.0000 
     59 CA        -20.2800   39.8800   91.0100 C.3       6 GLY6        0.0000 
     60 CA        -22.0700   41.5800   89.3000 C.3       6 GLY6        0.0000 
     61 CA        -22.9700   42.4300   88.4400 C.3       6 GLY6        0.0000 
     62 CA        -17.7000   36.5700   95.5500 C.3       6 GLY6        0.0000 
     63 CA        -23.0700   41.6600   90.4200 C.3       6 GLY6        0.0000 
     64 CA        -23.9600   42.5100   89.5700 C.3       6 GLY6        0.0000 
     65 CA        -23.1600   40.9000   92.4000 C.3       6 GLY6        0.0000 
     66 CA        -15.0300   37.6400   93.8100 C.3       6 GLY6        0.0000 
     67 CA        -14.2300   36.0300   96.6400 C.3       6 GLY6        0.0000 
     68 CA        -15.1300   36.8700   95.7900 C.3       6 GLY6        0.0000 
     69 CA        -16.0200   37.7200   94.9300 C.3       6 GLY6        0.0000 
     70 CA        -15.2200   36.1100   97.7700 C.3       6 GLY6        0.0000 
     71 CA        -23.3700   42.9800   92.0500 C.3       6 GLY6        0.0000 
     72 CA        -24.3600   43.0700   93.1800 C.3       6 GLY6        0.0000 
     73 CA        -13.8600   38.5800   98.7900 C.3       6 GLY6        0.0000 
     74 CA        -14.7500   39.4300   97.9300 C.3       6 GLY6        0.0000 
     75 CA        -15.6500   40.2800   97.0800 C.3       6 GLY6        0.0000 
     76 CA        -14.0700   40.6600   98.4400 C.3       6 GLY6        0.0000 
     77 DU        -20.3800   39.1200   92.9800 H         7 CUB7        0.0000 
     78 DU        -21.2800   39.9700   92.1300 H         7 CUB7        0.0000 
     79 DU        -17.9100   38.6600   95.2000 H         7 CUB7        0.0000 
     80 DU        -18.8000   39.5000   94.3500 H         7 CUB7        0.0000 
     81 DU        -19.7000   40.3500   93.4900 H         7 CUB7        0.0000 
     82 DU        -20.5900   41.2000   92.6400 H         7 CUB7        0.0000 
     83 DU        -21.4900   42.0500   91.7900 H         7 CUB7        0.0000 
     84 DU        -22.3800   42.9000   90.9300 H         7 CUB7        0.0000 
     85 DU        -22.4800   42.1300   92.9100 H         7 CUB7        0.0000 
     86 DU        -23.4700   42.2200   94.0300 H         7 CUB7        0.0000 
     87 DU        -14.4400   38.1100   96.3000 H         7 CUB7        0.0000 
     88 DU        -15.3400   38.9600   95.4400 H         7 CUB7        0.0000 
     89 DU        -16.2300   39.8100   94.5900 H         7 CUB7        0.0000 
     90 DU        -17.1300   40.6500   93.7400 H         7 CUB7        0.0000 
     91 DU        -17.2200   39.8900   95.7100 H         7 CUB7        0.0000 
     92 DU        -18.1200   40.7400   94.8600 H         7 CUB7        0.0000 
     93 DU        -19.0100   41.5900   94.0000 H         7 CUB7        0.0000 
     94 DU        -19.9100   42.4400   93.1500 H         7 CUB7        0.0000 
     95 DU        -22.6900   44.2200   92.5600 H         7 CUB7        0.0000 
     96 DU        -14.5600   40.9500   93.9800 H         7 CUB7        0.0000 
     97 DU        -13.7600   39.3400   96.8100 H         7 CUB7        0.0000 
     98 DU        -14.6600   40.1900   95.9500 H         7 CUB7        0.0000 
     99 DU        -16.4400   41.8900   94.2500 H         7 CUB7        0.0000 
    100 DU        -16.5400   41.1200   96.2200 H         7 CUB7        0.0000 
    101 DU        -12.9800   41.3400   95.3400 H         7 CUB7        0.0000 
    102 DU        -13.8800   42.1900   94.4900 H         7 CUB7        0.0000 
    103 DU        -13.0800   40.5800   97.3200 H         7 CUB7        0.0000 
    104 DU        -13.9700   41.4300   96.4600 H         7 CUB7        0.0000 
    105 DU        -14.8700   42.2700   95.6100 H         7 CUB7        0.0000 
    106 DU        -12.3000   42.5700   95.8500 H         7 CUB7        0.0000 
    107 DU        -13.1900   43.4200   95.0000 H         7 CUB7        0.0000 
    108 DU        -14.1800   43.5100   96.1200 H         7 CUB7        0.0000 
@<TRIPOS>BOND
@<TRIPOS>SUBSTRUCTURE
     1 SER1        1 GROUP   
     2 ALA2        6 GROUP   
     3 ASP3       24 GROUP   
     4 LYS4       28 GROUP   
     5 PHE5       37 GROUP   
     6 GLY6       53 GROUP   
     7 CUB7       77 GROUP   
@<TRIPOS>SET

