#    Name: 6dmi_1_5T5
#    Modification time : Fri May 22 19:45:44 2020

@<TRIPOS>MOLECULE
6dmi_1_5T5
   28    31     1     0     0
SMALL
NO_CHARGES


@<TRIPOS>ATOM
      1 C4        -19.6510   38.1870   92.2120           1 5T5504      0.0000 
      2 C6        -20.9650   40.4330   91.7650           1 5T5504      0.0000 
      3 C7        -15.8820   40.2090   91.9890           1 5T5504      0.0000 
      4 C8        -21.3150   41.4280   90.6480           1 5T5504      0.0000 
      5 C20       -22.3440   42.3350   90.8210           1 5T5504      0.0000 
      6 C21       -16.6790   35.9110   95.9740           1 5T5504      0.0000 
      7 C22       -20.9130   42.2800   88.5010           1 5T5504      0.0000 
      8 C26       -15.9570   36.0870   94.8110           1 5T5504      0.0000 
      9 C28       -21.9400   43.1950   88.6720           1 5T5504      0.0000 
     10 CL        -20.1080   42.4140   86.9190           1 5T5504      0.0000 
     11 N13       -22.6360   43.2020   89.8290           1 5T5504      0.0000 
     12 C14       -20.6050   41.4090   89.4870           1 5T5504      0.0000 
     13 O15       -21.6470   40.3220   92.7240           1 5T5504      0.0000 
     14 C2        -19.6900   39.5880   91.5990           1 5T5504      0.0000 
     15 C1        -18.9490   39.3580   92.9100           1 5T5504      0.0000 
     16 C3        -17.4820   39.2170   93.3040           1 5T5504      0.0000 
     17 C9        -16.9650   40.5760   93.9390           1 5T5504      0.0000 
     18 O10       -16.0240   41.1650   92.8910           1 5T5504      0.0000 
     19 N17       -14.9570   40.2770   90.8630           1 5T5504      0.0000 
     20 N5        -16.7680   39.0530   92.2360           1 5T5504      0.0000 
     21 C11       -17.2350   38.0490   94.2700           1 5T5504      0.0000 
     22 C19       -16.2310   37.1530   93.9640           1 5T5504      0.0000 
     23 C25       -17.6880   36.8110   96.2980           1 5T5504      0.0000 
     24 C18       -17.9640   37.8830   95.4450           1 5T5504      0.0000 
     25 O16       -16.3220   34.7980   96.7800           1 5T5504      0.0000 
     26 C12       -15.4800   33.8520   96.1550           1 5T5504      0.0000 
     27 F23       -14.3150   33.5990   96.8400           1 5T5504      0.0000 
     28 F24       -16.1730   32.6970   95.9970           1 5T5504      0.0000 
@<TRIPOS>BOND
     1    1   14 du   
     2    1   15 du   
     3    2    4 du   
     4    2   13 du   
     5    2   14 du   
     6    3   18 du   
     7    3   19 du   
     8    3   20 du   
     9    4    5 du   
    10    4   12 du   
    11    5   11 du   
    12    6    8 du   
    13    6   23 du   
    14    6   25 du   
    15    7    9 du   
    16    7   10 du   
    17    7   12 du   
    18    8   22 du   
    19    9   11 du   
    20   14   15 du   
    21   15   16 du   
    22   16   17 du   
    23   16   20 du   
    24   16   21 du   
    25   17   18 du   
    26   21   22 du   
    27   21   24 du   
    28   23   24 du   
    29   25   26 du   
    30   26   27 du   
    31   26   28 du   
@<TRIPOS>SUBSTRUCTURE
     1 5T5504      1 GROUP   
@<TRIPOS>SET

