#    Name: 6erw_1_M77
#    Modification time : Fri May 22 19:24:02 2020

@<TRIPOS>MOLECULE
6erw_1_M77
   20    22     1     0     0
SMALL
NO_CHARGES


@<TRIPOS>ATOM
      1 O1         14.1150  -23.3420  -29.0610 O.2       1 M77401      0.0000 
      2 S1         13.5630  -23.1990  -27.7510 S.o2      1 M77401      0.0000 
      3 O2         13.0200  -24.3370  -27.0790 O.2       1 M77401      0.0000 
      4 N4         12.3620  -22.1030  -27.8670 N.pl3     1 M77401      0.0000 
      5 C22        11.6640  -21.6470  -26.6470 C.3       1 M77401      0.0000 
      6 C21        10.2710  -22.1740  -26.5680 C.3       1 M77401      0.0000 
      7 N17         9.3370  -21.5120  -27.4710 N.4       1 M77401      0.0000 
      8 C16         9.8700  -20.5450  -28.4350 C.3       1 M77401      0.0000 
      9 C20        10.7820  -21.0850  -29.5090 C.3       1 M77401      0.0000 
     10 C15        12.2290  -21.2590  -29.0700 C.3       1 M77401      0.0000 
     11 C5         14.7900  -22.4790  -26.7000 C.ar      1 M77401      0.0000 
     12 C6         14.8530  -21.1110  -26.6680 C.ar      1 M77401      0.0000 
     13 C7         15.6910  -20.4690  -25.7730 C.ar      1 M77401      0.0000 
     14 C8         16.4650  -21.1840  -24.9050 C.ar      1 M77401      0.0000 
     15 C9         16.4460  -22.6010  -24.9160 C.ar      1 M77401      0.0000 
     16 C10        15.6150  -23.2770  -25.8450 C.ar      1 M77401      0.0000 
     17 C11        15.6530  -24.6910  -25.8490 C.ar      1 M77401      0.0000 
     18 C14        17.2180  -23.3960  -24.0380 C.ar      1 M77401      0.0000 
     19 N13        17.2320  -24.7200  -24.0520 N.ar      1 M77401      0.0000 
     20 C12        16.4600  -25.3390  -24.9610 C.ar      1 M77401      0.0000 
@<TRIPOS>BOND
     1    1    2 2    
     2    2    3 2    
     3    2    4 1    
     4    2   11 1    
     5    4    5 1    
     6    4   10 1    
     7    5    6 1    
     8    6    7 1    
     9    7    8 1    
    10    8    9 1    
    11    9   10 1    
    12   11   12 ar   
    13   11   16 ar   
    14   12   13 ar   
    15   13   14 ar   
    16   14   15 ar   
    17   15   16 ar   
    18   15   18 ar   
    19   16   17 ar   
    20   17   20 ar   
    21   18   19 ar   
    22   19   20 ar   
@<TRIPOS>SUBSTRUCTURE
     1 M77401      1 GROUP   
@<TRIPOS>SET

