#    Name: 6erw_1_M77_CAVITY_N1_12
#    Modification time : Fri May 22 19:24:03 2020

@<TRIPOS>MOLECULE
6erw_1_M77_CAVITY_N1_12
   71     0     7     0     0
SMALL
NO_CHARGES


@<TRIPOS>ATOM
      1 OG         12.4400  -21.7700  -26.3700 O.3       1 SER1        0.0000 
      2 OG         13.4900  -21.1800  -25.4700 O.3       1 SER1        0.0000 
      3 N           8.8100  -22.7600  -31.5000 N.am      2 ALA2        0.0000 
      4 O          10.2300  -24.1500  -32.2300 O.2       2 ALA2        0.0000 
      5 N           7.8900  -22.1500  -28.3300 N.am      2 ALA2        0.0000 
      6 N           8.4300  -20.7800  -29.8600 N.am      2 ALA2        0.0000 
      7 N           9.8500  -22.1700  -30.6000 N.am      2 ALA2        0.0000 
      8 N           8.9300  -21.5600  -27.4300 N.am      2 ALA2        0.0000 
      9 N          10.4600  -20.2000  -30.0900 N.am      2 ALA2        0.0000 
     10 N          10.9000  -21.5800  -29.7000 N.am      2 ALA2        0.0000 
     11 N          11.0100  -18.8400  -31.6200 N.am      2 ALA2        0.0000 
     12 N          11.8800  -21.6000  -30.8300 N.am      2 ALA2        0.0000 
     13 N          10.4200  -22.3500  -26.1300 N.am      2 ALA2        0.0000 
     14 N          12.4900  -19.6300  -30.3300 N.am      2 ALA2        0.0000 
     15 N          14.2400  -25.1500  -28.7400 N.am      2 ALA2        0.0000 
     16 O          16.8300  -24.7500  -24.5200 O.2       2 ALA2        0.0000 
     17 N          17.4400  -22.7800  -24.0100 N.am      2 ALA2        0.0000 
     18 OD1        12.0500  -18.2500  -30.7200 O.co2     3 ASP3        0.0000 
     19 NZ          7.8200  -22.7500  -30.3600 N.4       4 LYS4        0.0000 
     20 NZ          9.2400  -24.1400  -31.1000 N.4       4 LYS4        0.0000 
     21 NZ          8.8700  -22.1600  -29.4600 N.4       4 LYS4        0.0000 
     22 NZ         10.2900  -23.5500  -30.2000 N.4       4 LYS4        0.0000 
     23 NZ         10.7300  -24.9300  -29.8100 N.4       4 LYS4        0.0000 
     24 NZ          9.4800  -20.1900  -28.9600 N.4       4 LYS4        0.0000 
     25 NZ          9.9200  -21.5700  -28.5600 N.4       4 LYS4        0.0000 
     26 NZ         10.3500  -22.9500  -28.1700 N.4       4 LYS4        0.0000 
     27 NZ         10.0300  -18.8200  -30.4900 N.4       4 LYS4        0.0000 
     28 NZ         11.3400  -22.9600  -29.3000 N.4       4 LYS4        0.0000 
     29 NZ         11.7700  -24.3400  -28.9100 N.4       4 LYS4        0.0000 
     30 NZ          9.9800  -20.9700  -26.5300 N.4       4 LYS4        0.0000 
     31 NZ         10.9600  -20.9800  -27.6600 N.4       4 LYS4        0.0000 
     32 NZ         11.4000  -22.3600  -27.2700 N.4       4 LYS4        0.0000 
     33 NZ         11.5100  -19.6200  -29.1900 N.4       4 LYS4        0.0000 
     34 NZ         11.9400  -20.9900  -28.8000 N.4       4 LYS4        0.0000 
     35 NZ         12.9900  -20.4100  -27.9000 N.4       4 LYS4        0.0000 
     36 CZ         13.2600  -25.1300  -27.6100 C.ar      5 PHE5        0.0000 
     37 CZ         14.3000  -24.5400  -26.7100 C.ar      5 PHE5        0.0000 
     38 CZ         15.7800  -25.3300  -25.4200 C.ar      5 PHE5        0.0000 
     39 CA         11.2700  -23.5700  -31.3300 C.3       6 GLY6        0.0000 
     40 CA         12.3200  -22.9800  -30.4300 C.3       6 GLY6        0.0000 
     41 CA         11.8400  -23.7400  -26.8700 C.3       6 GLY6        0.0000 
     42 CA         12.9300  -21.0100  -29.9300 C.3       6 GLY6        0.0000 
     43 CA         13.3600  -22.3900  -29.5300 C.3       6 GLY6        0.0000 
     44 CA         13.8000  -23.7700  -29.1400 C.3       6 GLY6        0.0000 
     45 CA         13.4700  -19.6400  -31.4600 C.3       6 GLY6        0.0000 
     46 CA         12.8800  -23.1500  -25.9700 C.3       6 GLY6        0.0000 
     47 CA         13.3200  -24.5300  -25.5800 C.3       6 GLY6        0.0000 
     48 CA         13.5400  -19.0400  -29.4300 C.3       6 GLY6        0.0000 
     49 CA         14.4100  -21.8000  -28.6400 C.3       6 GLY6        0.0000 
     50 CA         14.8500  -23.1800  -28.2400 C.3       6 GLY6        0.0000 
     51 CA         15.2800  -24.5600  -27.8400 C.3       6 GLY6        0.0000 
     52 CA         14.9100  -22.5800  -26.2100 C.3       6 GLY6        0.0000 
     53 CA         15.3500  -23.9600  -25.8100 C.3       6 GLY6        0.0000 
     54 CA         15.4600  -21.2100  -27.7400 C.3       6 GLY6        0.0000 
     55 CA         15.8900  -22.5900  -27.3400 C.3       6 GLY6        0.0000 
     56 CA         14.9700  -21.9700  -24.1700 C.3       6 GLY6        0.0000 
     57 CA         15.5200  -20.6100  -25.7000 C.3       6 GLY6        0.0000 
     58 CA         15.9600  -21.9900  -25.3100 C.3       6 GLY6        0.0000 
     59 CA         16.3900  -23.3700  -24.9100 C.3       6 GLY6        0.0000 
     60 CA         16.5000  -20.6200  -26.8400 C.3       6 GLY6        0.0000 
     61 CA         16.9400  -22.0000  -26.4400 C.3       6 GLY6        0.0000 
     62 CA         16.0200  -21.3800  -23.2700 C.3       6 GLY6        0.0000 
     63 CA         16.4600  -22.7600  -22.8800 C.3       6 GLY6        0.0000 
     64 CA         16.5600  -20.0200  -24.8000 C.3       6 GLY6        0.0000 
     65 CA         17.0000  -21.4000  -24.4100 C.3       6 GLY6        0.0000 
     66 CA         17.9800  -21.4100  -25.5400 C.3       6 GLY6        0.0000 
     67 DU         12.3800  -22.3700  -28.4000 H         7 CUB7        0.0000 
     68 DU         12.8200  -23.7500  -28.0100 H         7 CUB7        0.0000 
     69 DU         13.4300  -21.7900  -27.5000 H         7 CUB7        0.0000 
     70 DU         13.8600  -23.1600  -27.1100 H         7 CUB7        0.0000 
     71 DU         14.4700  -21.2000  -26.6000 H         7 CUB7        0.0000 
@<TRIPOS>BOND
@<TRIPOS>SUBSTRUCTURE
     1 SER1        1 GROUP   
     2 ALA2        3 GROUP   
     3 ASP3       18 GROUP   
     4 LYS4       19 GROUP   
     5 PHE5       36 GROUP   
     6 GLY6       39 GROUP   
     7 CUB7       67 GROUP   
@<TRIPOS>SET

