#    Name: 5yun_2_MYC_CAVITY_N1_4
#    Modification time : Fri May 22 19:27:25 2020

@<TRIPOS>MOLECULE
5yun_2_MYC_CAVITY_N1_4
   60     0     4     0     0
SMALL
NO_CHARGES


@<TRIPOS>ATOM
      1 N         -17.4600    9.1400    3.2500 N.am      1 ALA2        0.0000 
      2 N         -17.5300    7.6400    4.7500 N.am      1 ALA2        0.0000 
      3 N         -17.6100    6.1500    6.2600 N.am      1 ALA2        0.0000 
      4 O         -15.5000   11.3900    1.1000 O.2       1 ALA2        0.0000 
      5 N         -16.8900   11.1200    3.7500 N.am      1 ALA2        0.0000 
      6 N         -16.2800    9.7600    3.9300 N.am      1 ALA2        0.0000 
      7 N         -16.9700    9.6300    5.2500 N.am      1 ALA2        0.0000 
      8 N         -13.5800    8.8200    0.1500 N.am      1 ALA2        0.0000 
      9 N         -14.2700    8.6800    1.4700 N.am      1 ALA2        0.0000 
     10 N         -16.3600    8.2700    5.4400 N.am      1 ALA2        0.0000 
     11 N         -17.0500    8.1300    6.7600 N.am      1 ALA2        0.0000 
     12 N         -16.4400    6.7800    6.9400 N.am      1 ALA2        0.0000 
     13 O         -17.1300    6.6400    8.2600 O.2       1 ALA2        0.0000 
     14 O         -14.2400   13.5100    0.2800 O.2       1 ALA2        0.0000 
     15 O         -14.9400   13.3800    1.6100 O.2       1 ALA2        0.0000 
     16 N         -15.6300   13.2400    2.9300 N.am      1 ALA2        0.0000 
     17 N         -16.3300   13.1000    4.2500 N.am      1 ALA2        0.0000 
     18 O         -14.3200   12.0200    1.7900 O.2       1 ALA2        0.0000 
     19 O         -15.0200   11.8800    3.1100 O.2       1 ALA2        0.0000 
     20 O         -15.7100   11.7500    4.4300 O.2       1 ALA2        0.0000 
     21 N         -16.4100   11.6100    5.7600 N.am      1 ALA2        0.0000 
     22 O         -15.1000   10.3900    4.6200 O.2       1 ALA2        0.0000 
     23 O         -15.7900   10.2500    5.9400 O.2       1 ALA2        0.0000 
     24 N         -15.8700    8.7600    7.4400 N.am      1 ALA2        0.0000 
     25 N         -16.5700    8.6200    8.7600 N.am      1 ALA2        0.0000 
     26 O         -17.2600    8.4800   10.0900 O.2       1 ALA2        0.0000 
     27 N         -15.9500    7.2700    8.9500 N.am      1 ALA2        0.0000 
     28 N         -14.3800   15.3600    2.1100 N.am      1 ALA2        0.0000 
     29 N         -15.0700   15.2200    3.4300 N.am      1 ALA2        0.0000 
     30 O         -13.8400   12.5100    3.7900 O.2       1 ALA2        0.0000 
     31 O         -14.5300   12.3700    5.1200 O.2       1 ALA2        0.0000 
     32 O         -12.5300   11.2900    2.6500 O.2       1 ALA2        0.0000 
     33 O         -14.6900    9.3900    8.1300 O.2       1 ALA2        0.0000 
     34 NZ        -16.7600    9.2700    1.9200 N.4       2 LYS4        0.0000 
     35 NZ        -12.4500   12.7800    1.1500 N.4       2 LYS4        0.0000 
     36 NZ        -11.8400   11.4300    1.3300 N.4       2 LYS4        0.0000 
     37 NZ        -12.5800   14.6300    2.9700 N.4       2 LYS4        0.0000 
     38 NZ        -11.9700   13.2700    3.1600 N.4       2 LYS4        0.0000 
     39 NZ        -11.3500   11.9200    3.3400 N.4       2 LYS4        0.0000 
     40 CA        -17.3800   10.6300    1.7400 C.3       3 GLY6        0.0000 
     41 CA        -16.0700    9.4100    0.6000 C.3       3 GLY6        0.0000 
     42 CA        -16.2000   11.2600    2.4300 C.3       3 GLY6        0.0000 
     43 CA        -15.5800    9.9000    2.6100 C.3       3 GLY6        0.0000 
     44 CA        -17.7500    8.0000    8.0800 C.3       3 GLY6        0.0000 
     45 CA        -13.7100   10.6600    1.9700 C.3       3 GLY6        0.0000 
     46 CA        -14.4000   10.5300    3.2900 C.3       3 GLY6        0.0000 
     47 CA        -12.4000    9.4500    0.8300 C.3       3 GLY6        0.0000 
     48 CA        -13.0900    9.3100    2.1500 C.3       3 GLY6        0.0000 
     49 CA        -15.1800    8.9000    6.1200 C.3       3 GLY6        0.0000 
     50 DU        -14.8900   10.0400    1.2900 H         4 CUB7        0.0000 
     51 DU        -13.6300   12.1600    0.4700 H         4 CUB7        0.0000 
     52 DU        -13.0100   10.8000    0.6500 H         4 CUB7        0.0000 
     53 DU        -15.7600   15.0800    4.7500 H         4 CUB7        0.0000 
     54 DU        -13.0700   14.1400    0.9700 H         4 CUB7        0.0000 
     55 DU        -13.7600   14.0000    2.2900 H         4 CUB7        0.0000 
     56 DU        -14.4500   13.8700    3.6100 H         4 CUB7        0.0000 
     57 DU        -15.1500   13.7300    4.9400 H         4 CUB7        0.0000 
     58 DU        -13.1500   12.6500    2.4700 H         4 CUB7        0.0000 
     59 DU        -13.2000   15.9900    2.7900 H         4 CUB7        0.0000 
     60 DU        -13.2800   14.4900    4.3000 H         4 CUB7        0.0000 
@<TRIPOS>BOND
@<TRIPOS>SUBSTRUCTURE
     1 ALA2        1 GROUP   
     2 LYS4       34 GROUP   
     3 GLY6       40 GROUP   
     4 CUB7       50 GROUP   
@<TRIPOS>SET

