#    Name: 5yun_2_MYC
#    Modification time : Fri May 22 19:27:24 2020

@<TRIPOS>MOLECULE
5yun_2_MYC
   23    25     1     0     0
SMALL
NO_CHARGES


@<TRIPOS>ATOM
      1 C1        -18.6960    3.5480    8.2660 C.ar      1 MYC201      0.0000 
      2 C2        -18.6900    3.7820    6.9090 C.ar      1 MYC201      0.0000 
      3 C3        -18.1470    5.0620    6.3870 C.ar      1 MYC201      0.0000 
      4 C4        -17.6390    6.0600    7.3400 C.ar      1 MYC201      0.0000 
      5 C5        -17.7000    5.7300    8.6900 C.ar      1 MYC201      0.0000 
      6 C6        -18.2080    4.5060    9.1400 C.ar      1 MYC201      0.0000 
      7 C9        -18.1160    5.3870    4.9590 C.2       1 MYC201      0.0000 
      8 C10       -17.5710    6.6980    4.5680 C.2       1 MYC201      0.0000 
      9 C11       -17.0740    7.6450    5.6030 C.2       1 MYC201      0.0000 
     10 C14       -16.5210    8.9930    5.2360 C.ar      1 MYC201      0.0000 
     11 C15       -16.2630    9.9270    6.2380 C.ar      1 MYC201      0.0000 
     12 C16       -15.7550   11.2010    5.9550 C.ar      1 MYC201      0.0000 
     13 C17       -15.4810   11.5710    4.5320 C.ar      1 MYC201      0.0000 
     14 C18       -15.7750   10.5480    3.5050 C.ar      1 MYC201      0.0000 
     15 C19       -16.2820    9.3230    3.9040 C.ar      1 MYC201      0.0000 
     16 O12       -17.1370    7.2680    6.9210 O.3       1 MYC201      0.0000 
     17 O13       -18.5410    4.5760    4.1360 O.2       1 MYC201      0.0000 
     18 O23       -15.5530   10.7840    2.1910 O.3       1 MYC201      0.0000 
     19 O24       -14.9920   12.7870    4.1730 O.3       1 MYC201      0.0000 
     20 O25       -15.5230   12.0850    6.9710 O.3       1 MYC201      0.0000 
     21 O27       -17.5330    7.0190    3.2660 O.co2     1 MYC201      0.0000 
     22 O29       -18.2250    4.2470   10.4740 O.3       1 MYC201      0.0000 
     23 O30       -19.1770    2.8460    6.0770 O.co2     1 MYC201      0.0000 
@<TRIPOS>BOND
     1    1    2 ar   
     2    1    6 ar   
     3    2    3 ar   
     4    2   23 ar   
     5    3    4 ar   
     6    3    7 1    
     7    4    5 ar   
     8    4   16 1    
     9    5    6 ar   
    10    6   22 1    
    11    7    8 1    
    12    7   17 2    
    13    8    9 2    
    14    8   21 ar   
    15    9   10 1    
    16    9   16 1    
    17   10   11 ar   
    18   10   15 ar   
    19   11   12 ar   
    20   12   13 ar   
    21   12   20 1    
    22   13   14 ar   
    23   13   19 1    
    24   14   15 ar   
    25   14   18 1    
@<TRIPOS>SUBSTRUCTURE
     1 MYC201      1 GROUP   
@<TRIPOS>SET

