#    Name: 5zz7_2_NAI
#    Modification time : Fri May 22 19:33:03 2020

@<TRIPOS>MOLECULE
5zz7_2_NAI
   44    48     1     0     1
SMALL
NO_CHARGES


@<TRIPOS>ATOM
      1 PA        -15.0200   11.9530  -26.5810 P.3       1 NAI301      0.0000 
      2 O1A       -16.1620   11.0150  -26.8890 O.co2     1 NAI301      0.0000 
      3 O2A       -14.5960   12.6830  -27.8310 O.co2     1 NAI301      0.0000 
      4 O5B       -13.7420   11.1010  -25.9820 O.3       1 NAI301      0.0000 
      5 C5B       -13.9960    9.8740  -25.3570 C.3       1 NAI301      0.0000 
      6 C4B       -12.8810    8.8670  -25.7410 C.3       1 NAI301      0.0000 
      7 O4B       -12.6490    8.0550  -24.7430 O.3       1 NAI301      0.0000 
      8 C3B       -13.3680    7.9950  -26.9180 C.3       1 NAI301      0.0000 
      9 O3B       -12.4410    7.9920  -27.9080 O.3       1 NAI301      0.0000 
     10 C2B       -13.5290    6.5800  -26.3300 C.3       1 NAI301      0.0000 
     11 O2B       -13.1480    5.5620  -27.3560 O.3       1 NAI301      0.0000 
     12 C1B       -12.6900    6.5490  -25.3330 C.3       1 NAI301      0.0000 
     13 N9A       -13.1350    5.6410  -24.3070 N.pl3     1 NAI301      0.0000 
     14 C8A       -14.3810    5.3660  -23.9100 C.2       1 NAI301      0.0000 
     15 N7A       -14.3120    4.4650  -22.9260 N.2       1 NAI301      0.0000 
     16 C5A       -13.0200    4.1800  -22.7140 C.ar      1 NAI301      0.0000 
     17 C6A       -12.3900    3.3290  -21.8290 C.ar      1 NAI301      0.0000 
     18 N6A       -12.8760    2.4270  -20.8020 N.pl3     1 NAI301      0.0000 
     19 N1A       -11.0690    3.2350  -21.8290 N.ar      1 NAI301      0.0000 
     20 C2A       -10.3360    3.9750  -22.6960 C.ar      1 NAI301      0.0000 
     21 N3A       -10.9520    4.8100  -23.5640 N.ar      1 NAI301      0.0000 
     22 C4A       -12.2930    4.9080  -23.5670 C.ar      1 NAI301      0.0000 
     23 O3        -15.5040   13.0540  -25.4530 O.3       1 NAI301      0.0000 
     24 PN        -14.5860   14.3420  -24.9840 P.3       1 NAI301      0.0000 
     25 O1N       -15.2300   15.6150  -25.4750 O.co2     1 NAI301      0.0000 
     26 O2N       -13.1910   14.2130  -25.5450 O.co2     1 NAI301      0.0000 
     27 O5D       -14.4950   14.3680  -23.3420 O.3       1 NAI301      0.0000 
     28 C5D       -14.0520   13.2180  -22.6790 C.3       1 NAI301      0.0000 
     29 C4D       -14.2740   13.4230  -21.1600 C.3       1 NAI301      0.0000 
     30 O4D       -13.9600   14.6530  -20.8450 O.3       1 NAI301      0.0000 
     31 C3D       -15.7740   13.2650  -20.8320 C.3       1 NAI301      0.0000 
     32 O3D       -15.9300   12.6770  -19.6190 O.3       1 NAI301      0.0000 
     33 C2D       -16.2810   14.7140  -20.7770 C.3       1 NAI301      0.0000 
     34 O2D       -17.5220   14.8050  -19.9480 O.3       1 NAI301      0.0000 
     35 C1D       -15.2840   15.3020  -20.1830 C.3       1 NAI301      0.0000 
     36 N1N       -15.3080   16.7250  -20.3820 N.pl3     1 NAI301      0.0000 
     37 C2N       -15.1390   17.5780  -19.2300 C.2       1 NAI301      0.0000 
     38 C3N       -14.8790   19.0660  -19.3770 C.2       1 NAI301      0.0000 
     39 C7N       -14.2770   19.7760  -18.1680 C.2       1 NAI301      0.0000 
     40 O7N       -14.2990   20.9550  -18.0930 O.2       1 NAI301      0.0000 
     41 N7N       -13.6790   18.9890  -17.1060 N.am      1 NAI301      0.0000 
     42 C4N       -14.7300   19.6800  -20.7680 C.3       1 NAI301      0.0000 
     43 C5N       -15.3270   18.8190  -21.8860 C.2       1 NAI301      0.0000 
     44 C6N       -15.4960   17.3100  -21.6970 C.2       1 NAI301      0.0000 
@<TRIPOS>BOND
     1    1    2 ar   
     2    1    3 ar   
     3    1    4 1    
     4    1   23 1    
     5    4    5 1    
     6    5    6 1    
     7    6    7 1    
     8    6    8 1    
     9    7   12 1    
    10    8    9 1    
    11    8   10 1    
    12   10   11 1    
    13   10   12 1    
    14   12   13 1    
    15   13   14 1    
    16   13   22 1    
    17   14   15 2    
    18   15   16 1    
    19   16   17 ar   
    20   16   22 ar   
    21   17   18 1    
    22   17   19 ar   
    23   19   20 ar   
    24   20   21 ar   
    25   21   22 ar   
    26   23   24 1    
    27   24   25 ar   
    28   24   26 ar   
    29   24   27 1    
    30   27   28 1    
    31   28   29 1    
    32   29   30 1    
    33   29   31 1    
    34   30   35 1    
    35   31   32 1    
    36   31   33 1    
    37   33   34 1    
    38   33   35 1    
    39   35   36 1    
    40   36   37 1    
    41   36   44 1    
    42   37   38 2    
    43   38   39 1    
    44   38   42 1    
    45   39   40 2    
    46   39   41 am   
    47   42   43 1    
    48   43   44 2    
@<TRIPOS>SUBSTRUCTURE
     1 NAI301      1 GROUP   
@<TRIPOS>SET
ATOM$ORANGE STATIC     ATOMS   COLORGROUP SYSTEM 
42 5 5 6 6 8 8 10 10 12 12 14 14 16 16 17 17 20 \
20 22 22 28 28 29 29 31 31 33 33 35 35 37 37 38 38 39 \
39 42 42 43 43 44 44 

