#    Name: 5zz7_1_NAI
#    Modification time : Fri May 22 19:32:57 2020

@<TRIPOS>MOLECULE
5zz7_1_NAI
   44    48     1     0     1
SMALL
NO_CHARGES


@<TRIPOS>ATOM
      1 PA         -7.2380   22.6780  -32.8870 P.3       1 NAI301      0.0000 
      2 O1A        -8.0740   21.4380  -33.0930 O.co2     1 NAI301      0.0000 
      3 O2A        -6.2240   22.8060  -33.9990 O.co2     1 NAI301      0.0000 
      4 O5B        -8.2170   24.0050  -32.8590 O.3       1 NAI301      0.0000 
      5 C5B        -8.0300   24.9860  -33.8400 C.3       1 NAI301      0.0000 
      6 C4B        -9.4050   25.3910  -34.4330 C.3       1 NAI301      0.0000 
      7 O4B        -9.5430   26.6910  -34.3980 O.3       1 NAI301      0.0000 
      8 C3B        -9.4620   24.9900  -35.9210 C.3       1 NAI301      0.0000 
      9 O3B       -10.6850   24.4800  -36.2040 O.3       1 NAI301      0.0000 
     10 C2B        -9.2530   26.3130  -36.6770 C.3       1 NAI301      0.0000 
     11 O2B        -9.9220   26.2550  -38.0120 O.3       1 NAI301      0.0000 
     12 C1B        -9.8550   27.1740  -35.9100 C.3       1 NAI301      0.0000 
     13 N9A        -9.3390   28.5020  -36.1050 N.pl3     1 NAI301      0.0000 
     14 C8A        -8.0990   28.8930  -36.4110 C.2       1 NAI301      0.0000 
     15 N7A        -8.0940   30.2280  -36.4820 N.2       1 NAI301      0.0000 
     16 C5A        -9.3350   30.6620  -36.2170 C.ar      1 NAI301      0.0000 
     17 C6A        -9.8860   31.9250  -36.1550 C.ar      1 NAI301      0.0000 
     18 N6A        -9.3450   33.2570  -36.3510 N.pl3     1 NAI301      0.0000 
     19 N1A       -11.1690   32.0720  -35.8660 N.ar      1 NAI301      0.0000 
     20 C2A       -11.9400   30.9850  -35.6310 C.ar      1 NAI301      0.0000 
     21 N3A       -11.4030   29.7460  -35.6910 N.ar      1 NAI301      0.0000 
     22 C4A       -10.1010   29.5940  -35.9840 C.ar      1 NAI301      0.0000 
     23 O3         -6.4670   22.5710  -31.4370 O.3       1 NAI301      0.0000 
     24 PN         -7.2790   22.5470  -30.0030 P.3       1 NAI301      0.0000 
     25 O1N        -6.9650   21.2560  -29.2890 O.co2     1 NAI301      0.0000 
     26 O2N        -8.7640   22.6450  -30.2590 O.co2     1 NAI301      0.0000 
     27 O5D        -6.8060   23.8280  -29.0820 O.3       1 NAI301      0.0000 
     28 C5D        -7.4040   25.0730  -29.3170 C.3       1 NAI301      0.0000 
     29 C4D        -6.8210   26.1170  -28.3270 C.3       1 NAI301      0.0000 
     30 O4D        -6.9550   25.6890  -27.0980 O.3       1 NAI301      0.0000 
     31 C3D        -5.3030   26.2770  -28.5650 C.3       1 NAI301      0.0000 
     32 O3D        -4.9510   27.5810  -28.4350 O.3       1 NAI301      0.0000 
     33 C2D        -4.6650   25.4490  -27.4380 C.3       1 NAI301      0.0000 
     34 O2D        -3.2910   25.9500  -27.1290 O.3       1 NAI301      0.0000 
     35 C1D        -5.4750   25.6770  -26.4450 C.3       1 NAI301      0.0000 
     36 N1N        -5.3690   24.6590  -25.4320 N.pl3     1 NAI301      0.0000 
     37 C2N        -5.3220   25.0640  -24.0470 C.2       1 NAI301      0.0000 
     38 C3N        -5.2260   24.0470  -22.9230 C.2       1 NAI301      0.0000 
     39 C7N        -5.3310   24.5810  -21.4990 C.2       1 NAI301      0.0000 
     40 O7N        -5.1520   23.8670  -20.5730 O.2       1 NAI301      0.0000 
     41 N7N        -5.6560   25.9780  -21.2920 N.am      1 NAI301      0.0000 
     42 C4N        -5.5040   22.5750  -23.2100 C.3       1 NAI301      0.0000 
     43 C5N        -5.2850   22.1880  -24.6760 C.2       1 NAI301      0.0000 
     44 C6N        -5.3120   23.2500  -25.7770 C.2       1 NAI301      0.0000 
@<TRIPOS>BOND
     1    1    2 ar   
     2    1    3 ar   
     3    1    4 1    
     4    1   23 1    
     5    4    5 1    
     6    5    6 1    
     7    6    7 1    
     8    6    8 1    
     9    7   12 1    
    10    8    9 1    
    11    8   10 1    
    12   10   11 1    
    13   10   12 1    
    14   12   13 1    
    15   13   14 1    
    16   13   22 1    
    17   14   15 2    
    18   15   16 1    
    19   16   17 ar   
    20   16   22 ar   
    21   17   18 1    
    22   17   19 ar   
    23   19   20 ar   
    24   20   21 ar   
    25   21   22 ar   
    26   23   24 1    
    27   24   25 ar   
    28   24   26 ar   
    29   24   27 1    
    30   27   28 1    
    31   28   29 1    
    32   29   30 1    
    33   29   31 1    
    34   30   35 1    
    35   31   32 1    
    36   31   33 1    
    37   33   34 1    
    38   33   35 1    
    39   35   36 1    
    40   36   37 1    
    41   36   44 1    
    42   37   38 2    
    43   38   39 1    
    44   38   42 1    
    45   39   40 2    
    46   39   41 am   
    47   42   43 1    
    48   43   44 2    
@<TRIPOS>SUBSTRUCTURE
     1 NAI301      1 GROUP   
@<TRIPOS>SET
ATOM$ORANGE STATIC     ATOMS   COLORGROUP SYSTEM 
42 5 5 6 6 8 8 10 10 12 12 14 14 16 16 17 17 20 \
20 22 22 28 28 29 29 31 31 33 33 35 35 37 37 38 38 39 \
39 42 42 43 43 44 44 

