#    Name: 5yu4_3_NAD
#    Modification time : Fri May 22 19:25:56 2020

@<TRIPOS>MOLECULE
5yu4_3_NAD
   44    48     1     0     1
SMALL
NO_CHARGES


@<TRIPOS>ATOM
      1 PA        -56.9410   -1.8080    7.1640 P.3       1 NAD402      0.0000 
      2 O1A       -56.9850   -2.8300    6.0480 O.co2     1 NAD402      0.0000 
      3 O2A       -55.7320   -1.6410    8.0350 O.co2     1 NAD402      0.0000 
      4 O5B       -58.1960   -2.0610    8.1080 O.3       1 NAD402      0.0000 
      5 C5B       -59.5130   -2.2540    7.5920 C.3       1 NAD402      0.0000 
      6 C4B       -60.1840   -3.2750    8.4960 C.3       1 NAD402      0.0000 
      7 O4B       -61.5830   -3.3030    8.2480 O.3       1 NAD402      0.0000 
      8 C3B       -59.6580   -4.7010    8.3020 C.3       1 NAD402      0.0000 
      9 O3B       -59.2220   -5.1350    9.5960 O.3       1 NAD402      0.0000 
     10 C2B       -60.8810   -5.4770    7.8320 C.3       1 NAD402      0.0000 
     11 O2B       -60.9580   -6.7930    8.3720 O.3       1 NAD402      0.0000 
     12 C1B       -61.9980   -4.6410    8.4380 C.3       1 NAD402      0.0000 
     13 N9A       -63.3180   -4.8190    7.8170 N.pl3     1 NAD402      0.0000 
     14 C8A       -63.5820   -5.0320    6.5140 C.2       1 NAD402      0.0000 
     15 N7A       -64.9200   -5.1240    6.3230 N.2       1 NAD402      0.0000 
     16 C5A       -65.5180   -4.9790    7.5350 C.ar      1 NAD402      0.0000 
     17 C6A       -66.9040   -4.9860    8.0520 C.ar      1 NAD402      0.0000 
     18 N6A       -67.9710   -5.1650    7.2190 N.pl3     1 NAD402      0.0000 
     19 N1A       -67.0750   -4.7800    9.3850 N.ar      1 NAD402      0.0000 
     20 C2A       -66.0350   -4.6030   10.2370 C.ar      1 NAD402      0.0000 
     21 N3A       -64.7530   -4.5910    9.8410 N.ar      1 NAD402      0.0000 
     22 C4A       -64.4530   -4.7730    8.5180 C.ar      1 NAD402      0.0000 
     23 O3        -57.2800   -0.3950    6.4500 O.3       1 NAD402      0.0000 
     24 PN        -57.1980    1.0540    7.1390 P.3       1 NAD402      0.0000 
     25 O1N       -57.6570    1.0130    8.5730 O.co2     1 NAD402      0.0000 
     26 O2N       -55.8510    1.6670    6.8100 O.co2     1 NAD402      0.0000 
     27 O5D       -58.3240    1.7770    6.2430 O.3       1 NAD402      0.0000 
     28 C5D       -59.6990    1.7430    6.6160 C.3       1 NAD402      0.0000 
     29 C4D       -60.5110    2.6270    5.6770 C.3       1 NAD402      0.0000 
     30 O4D       -60.3000    4.0210    5.9660 O.3       1 NAD402      0.0000 
     31 C3D       -60.1330    2.4150    4.2200 C.3       1 NAD402      0.0000 
     32 O3D       -61.3530    2.4510    3.4590 O.3       1 NAD402      0.0000 
     33 C2D       -59.2910    3.6230    3.8710 C.3       1 NAD402      0.0000 
     34 O2D       -59.3780    3.9190    2.4750 O.3       1 NAD402      0.0000 
     35 C1D       -59.9440    4.6850    4.7420 C.3       1 NAD402      0.0000 
     36 N1N       -59.1210    5.8660    5.0290 N.pl3     1 NAD402      0.0000 
     37 C2N       -59.7740    7.0400    5.1540 C.ar      1 NAD402      0.0000 
     38 C3N       -59.0630    8.2040    5.4380 C.ar      1 NAD402      0.0000 
     39 C7N       -59.8110    9.4910    5.6190 C.2       1 NAD402      0.0000 
     40 O7N       -59.1710   10.5200    5.6350 O.2       1 NAD402      0.0000 
     41 N7N       -61.1350    9.4560    5.8330 N.am      1 NAD402      0.0000 
     42 C4N       -57.6700    8.1560    5.6090 C.ar      1 NAD402      0.0000 
     43 C5N       -57.0260    6.9160    5.4950 C.ar      1 NAD402      0.0000 
     44 C6N       -57.7870    5.7780    5.2140 C.ar      1 NAD402      0.0000 
@<TRIPOS>BOND
     1    1    2 ar   
     2    1    3 ar   
     3    1    4 1    
     4    1   23 1    
     5    4    5 1    
     6    5    6 1    
     7    6    7 1    
     8    6    8 1    
     9    7   12 1    
    10    8    9 1    
    11    8   10 1    
    12   10   11 1    
    13   10   12 1    
    14   12   13 1    
    15   13   14 1    
    16   13   22 1    
    17   14   15 2    
    18   15   16 1    
    19   16   17 ar   
    20   16   22 ar   
    21   17   18 1    
    22   17   19 ar   
    23   19   20 ar   
    24   20   21 ar   
    25   21   22 ar   
    26   23   24 1    
    27   24   25 ar   
    28   24   26 ar   
    29   24   27 1    
    30   27   28 1    
    31   28   29 1    
    32   29   30 1    
    33   29   31 1    
    34   30   35 1    
    35   31   32 1    
    36   31   33 1    
    37   33   34 1    
    38   33   35 1    
    39   35   36 1    
    40   36   37 ar   
    41   36   44 ar   
    42   37   38 ar   
    43   38   39 1    
    44   38   42 ar   
    45   39   40 2    
    46   39   41 am   
    47   42   43 ar   
    48   43   44 ar   
@<TRIPOS>SUBSTRUCTURE
     1 NAD402      1 GROUP   
@<TRIPOS>SET
ATOM$ORANGE STATIC     ATOMS   COLORGROUP SYSTEM 
42 5 5 6 6 8 8 10 10 12 12 14 14 16 16 17 17 20 \
20 22 22 28 28 29 29 31 31 33 33 35 35 37 37 38 38 39 \
39 42 42 43 43 44 44 

