#    Name: 5w7s_1_SFG
#    Modification time : Fri May 22 19:16:04 2020

@<TRIPOS>MOLECULE
5w7s_1_SFG
   27    29     1     0     0
SMALL
NO_CHARGES


@<TRIPOS>ATOM
      1 N          15.4180  131.9930   20.4250 N.4       1 SFG502      0.0000 
      2 CA         16.4550  132.9640   20.7530 C.3       1 SFG502      0.0000 
      3 C          17.5820  132.2700   21.5010 C.2       1 SFG502      0.0000 
      4 O          17.5360  131.0310   21.6950 O.co2     1 SFG502      0.0000 
      5 OXT        18.5530  132.9410   21.9290 O.co2     1 SFG502      0.0000 
      6 CB         15.9220  134.1270   21.6070 C.3       1 SFG502      0.0000 
      7 CG         15.4880  133.6930   23.0120 C.3       1 SFG502      0.0000 
      8 CD         15.3090  134.9130   23.9210 C.3       1 SFG502      0.0000 
      9 NE         16.0140  134.7130   25.1660 N.4       1 SFG502      0.0000 
     10 C5'        13.8420  135.1200   24.2690 C.3       1 SFG502      0.0000 
     11 C4'        13.1270  135.7720   23.0560 C.3       1 SFG502      0.0000 
     12 O4'        11.8240  135.7590   23.2080 O.3       1 SFG502      0.0000 
     13 C3'        13.5580  137.2490   22.9460 C.3       1 SFG502      0.0000 
     14 O3'        14.1700  137.4670   21.7470 O.3       1 SFG502      0.0000 
     15 C2'        12.2300  138.0230   23.1050 C.3       1 SFG502      0.0000 
     16 O2'        12.2560  139.3250   22.3570 O.3       1 SFG502      0.0000 
     17 C1'        11.3210  137.1830   22.6620 C.3       1 SFG502      0.0000 
     18 N9         10.0370  137.5300   23.2080 N.pl3     1 SFG502      0.0000 
     19 C8          9.7510  138.0210   24.4190 C.2       1 SFG502      0.0000 
     20 N7          8.4280  138.2210   24.4990 N.2       1 SFG502      0.0000 
     21 C5          7.8940  137.8650   23.3250 C.ar      1 SFG502      0.0000 
     22 C6          6.5900  137.8850   22.8750 C.ar      1 SFG502      0.0000 
     23 N6          5.3250  138.2780   23.4750 N.pl3     1 SFG502      0.0000 
     24 N1          6.3220  137.4650   21.6470 N.ar      1 SFG502      0.0000 
     25 C2          7.3290  137.0280   20.8440 C.ar      1 SFG502      0.0000 
     26 N3          8.6120  137.0150   21.2810 N.ar      1 SFG502      0.0000 
     27 C4          8.8870  137.4370   22.5260 C.ar      1 SFG502      0.0000 
@<TRIPOS>BOND
     1    1    2 1    
     2    2    3 1    
     3    2    6 1    
     4    3    4 ar   
     5    3    5 ar   
     6    6    7 1    
     7    7    8 1    
     8    8    9 1    
     9    8   10 1    
    10   10   11 1    
    11   11   12 1    
    12   11   13 1    
    13   12   17 1    
    14   13   14 1    
    15   13   15 1    
    16   15   16 1    
    17   15   17 1    
    18   17   18 1    
    19   18   19 1    
    20   18   27 1    
    21   19   20 2    
    22   20   21 1    
    23   21   22 ar   
    24   21   27 ar   
    25   22   23 1    
    26   22   24 ar   
    27   24   25 ar   
    28   25   26 ar   
    29   26   27 ar   
@<TRIPOS>SUBSTRUCTURE
     1 SFG502      1 GROUP   
@<TRIPOS>SET

