#    Name: 5w7s_1_SFG_CAVITY_N1_6
#    Modification time : Fri May 22 19:16:06 2020

@<TRIPOS>MOLECULE
5w7s_1_SFG_CAVITY_N1_6
   76     0     5     0     0
SMALL
NO_CHARGES


@<TRIPOS>ATOM
      1 OG          6.5900  139.9300   26.6100 O.3       1 SER1        0.0000 
      2 OG         12.1000  139.0200   23.9600 O.3       1 SER1        0.0000 
      3 OG         13.2400  138.6300   23.0600 O.3       1 SER1        0.0000 
      4 N          13.8000  133.7000   23.3800 N.am      2 ALA2        0.0000 
      5 N          14.9300  133.3100   22.4800 N.am      2 ALA2        0.0000 
      6 N          16.0700  132.9300   21.5700 N.am      2 ALA2        0.0000 
      7 N          17.2000  132.5400   20.6700 N.am      2 ALA2        0.0000 
      8 N          13.6700  135.0100   22.6500 N.am      2 ALA2        0.0000 
      9 N          14.8000  134.6200   21.7500 N.am      2 ALA2        0.0000 
     10 N          15.9400  134.2300   20.8500 N.am      2 ALA2        0.0000 
     11 N          14.6700  135.9300   21.0300 N.am      2 ALA2        0.0000 
     12 N          14.7700  134.3300   24.3300 N.am      2 ALA2        0.0000 
     13 N          15.9000  133.9400   23.4300 N.am      2 ALA2        0.0000 
     14 N          17.0400  133.5500   22.5300 N.am      2 ALA2        0.0000 
     15 N          17.0000  133.2600   25.1100 N.am      2 ALA2        0.0000 
     16 N          15.7400  134.9500   25.2900 N.am      2 ALA2        0.0000 
     17 N          18.0100  134.1800   23.4900 N.am      2 ALA2        0.0000 
     18 N          17.8800  135.4900   22.7600 N.am      2 ALA2        0.0000 
     19 NZ          5.7800  138.2900   23.7900 N.4       3 LYS4        0.0000 
     20 NZ          4.5200  139.9900   23.9700 N.4       3 LYS4        0.0000 
     21 NZ          3.2500  141.6800   24.1400 N.4       3 LYS4        0.0000 
     22 NZ         10.1600  137.7600   22.0500 N.4       3 LYS4        0.0000 
     23 NZ          4.3500  141.0000   25.8300 N.4       3 LYS4        0.0000 
     24 NZ          4.2200  142.3100   25.1000 N.4       3 LYS4        0.0000 
     25 NZ          4.0900  143.6100   24.3800 N.4       3 LYS4        0.0000 
     26 NZ         11.3900  135.7800   24.4500 N.4       3 LYS4        0.0000 
     27 NZ         12.4000  136.7000   22.8300 N.4       3 LYS4        0.0000 
     28 NZ         13.5300  136.3100   21.9300 N.4       3 LYS4        0.0000 
     29 NZ         11.1300  138.3900   23.0000 N.4       3 LYS4        0.0000 
     30 NZ         12.2700  138.0000   22.1000 N.4       3 LYS4        0.0000 
     31 NZ          5.3200  141.6300   26.7800 N.4       3 LYS4        0.0000 
     32 NZ         13.5000  136.0200   24.5100 N.4       3 LYS4        0.0000 
     33 NZ         14.6400  135.6300   23.6100 N.4       3 LYS4        0.0000 
     34 NZ         15.7700  135.2500   22.7100 N.4       3 LYS4        0.0000 
     35 NZ         13.3700  137.3200   23.7800 N.4       3 LYS4        0.0000 
     36 NZ         14.5100  136.9400   22.8800 N.4       3 LYS4        0.0000 
     37 NZ         15.6400  136.5500   21.9800 N.4       3 LYS4        0.0000 
     38 NZ         14.3400  137.9500   24.7400 N.4       3 LYS4        0.0000 
     39 CZ          9.3200  135.8300   21.8200 C.ar      4 PHE5        0.0000 
     40 CZ          9.2900  135.5400   24.4000 C.ar      4 PHE5        0.0000 
     41 CZ          6.8800  137.6100   25.4700 C.ar      4 PHE5        0.0000 
     42 CZ          8.0200  137.2300   24.5700 C.ar      4 PHE5        0.0000 
     43 CZ          9.1600  136.8400   23.6700 C.ar      4 PHE5        0.0000 
     44 CZ         10.2600  136.1600   25.3500 C.ar      4 PHE5        0.0000 
     45 CZ          7.8600  138.2400   26.4300 C.ar      4 PHE5        0.0000 
     46 CZ          8.9900  137.8600   25.5300 C.ar      4 PHE5        0.0000 
     47 CZ         10.1300  137.4700   24.6300 C.ar      4 PHE5        0.0000 
     48 CZ         11.2600  137.0800   23.7300 C.ar      4 PHE5        0.0000 
     49 CZ          7.7200  139.5500   25.7000 C.ar      4 PHE5        0.0000 
     50 CZ          8.8600  139.1600   24.8000 C.ar      4 PHE5        0.0000 
     51 CZ         12.2300  137.7100   24.6800 C.ar      4 PHE5        0.0000 
     52 CZ         10.9700  139.4000   24.8600 C.ar      4 PHE5        0.0000 
     53 CZ         14.4700  136.6500   25.4600 C.ar      4 PHE5        0.0000 
     54 CA          4.6500  138.6800   24.6900 C.3       5 GLY6        0.0000 
     55 CA          8.0500  137.5200   21.9900 C.3       5 GLY6        0.0000 
     56 CA          3.3800  140.3700   24.8700 C.3       5 GLY6        0.0000 
     57 CA          5.6500  139.6000   23.0700 C.3       5 GLY6        0.0000 
     58 CA         10.4200  135.1500   23.5000 C.3       5 GLY6        0.0000 
     59 CA         10.2900  136.4600   22.7700 C.3       5 GLY6        0.0000 
     60 CA          4.4800  139.6900   26.5500 C.3       5 GLY6        0.0000 
     61 CA          5.6200  139.3100   25.6500 C.3       5 GLY6        0.0000 
     62 CA          6.7500  138.9200   24.7500 C.3       5 GLY6        0.0000 
     63 CA          7.8900  138.5300   23.8500 C.3       5 GLY6        0.0000 
     64 CA          9.0300  138.1500   22.9500 C.3       5 GLY6        0.0000 
     65 CA          5.4900  140.6100   24.9200 C.3       5 GLY6        0.0000 
     66 CA          5.3600  141.9200   24.2000 C.3       5 GLY6        0.0000 
     67 CA         12.5300  135.3900   23.5500 C.3       5 GLY6        0.0000 
     68 CA         10.0000  138.7800   23.9000 C.3       5 GLY6        0.0000 
     69 CA          6.4600  141.2400   25.8800 C.3       5 GLY6        0.0000 
     70 CA          7.5900  140.8500   24.9800 C.3       5 GLY6        0.0000 
     71 CA          9.8700  140.0800   23.1800 C.3       5 GLY6        0.0000 
     72 CA          6.3300  142.5500   25.1600 C.3       5 GLY6        0.0000 
     73 CA         16.9100  134.8600   21.8100 C.3       5 GLY6        0.0000 
     74 CA         16.8700  134.5700   24.3900 C.3       5 GLY6        0.0000 
     75 CA         15.6100  136.2600   24.5600 C.3       5 GLY6        0.0000 
     76 CA         16.7400  135.8700   23.6600 C.3       5 GLY6        0.0000 
@<TRIPOS>BOND
@<TRIPOS>SUBSTRUCTURE
     1 SER1        1 GROUP   
     2 ALA2        4 GROUP   
     3 LYS4       19 GROUP   
     4 PHE5       39 GROUP   
     5 GLY6       54 GROUP   
@<TRIPOS>SET

