#    Name: 5w7t_1_ANP_CAVITY_N1_6
#    Modification time : Fri May 22 19:16:12 2020

@<TRIPOS>MOLECULE
5w7t_1_ANP_CAVITY_N1_6
   77     0     6     0     0
SMALL
NO_CHARGES


@<TRIPOS>ATOM
      1 OG          6.7200    8.5200   53.5500 O.3       1 SER1        0.0000 
      2 OG          6.8000   10.5100   54.3000 O.3       1 SER1        0.0000 
      3 OG          7.3500    9.1800   54.7400 O.3       1 SER1        0.0000 
      4 N          14.7600    9.7500   52.4000 N.am      2 ALA2        0.0000 
      5 O           8.6100   10.5000   57.1300 O.2       2 ALA2        0.0000 
      6 O          13.7500   14.3800   52.2500 O.2       2 ALA2        0.0000 
      7 N           9.2400   11.1600   58.3200 N.am      2 ALA2        0.0000 
      8 N          10.4800   11.4100   57.5200 N.am      2 ALA2        0.0000 
      9 N          11.0300   10.0900   57.9700 N.am      2 ALA2        0.0000 
     10 O          14.3800   15.0400   53.4500 O.2       2 ALA2        0.0000 
     11 N          11.1100   12.0700   58.7100 N.am      2 ALA2        0.0000 
     12 N          11.8100   13.6400   57.4700 N.am      2 ALA2        0.0000 
     13 N          13.6100   12.5600   57.1200 N.am      2 ALA2        0.0000 
     14 N          12.9900   12.9800   59.1100 N.am      2 ALA2        0.0000 
     15 N          13.5400   11.6500   59.5500 N.am      2 ALA2        0.0000 
     16 OD1         7.9700    8.7700   52.7600 O.co2     3 ASP3        0.0000 
     17 OD1        11.7900   11.4900   51.1200 O.co2     3 ASP3        0.0000 
     18 CZ          8.5100    7.4400   53.2100 C.ar      4 PHE5        0.0000 
     19 CZ          7.9000    7.8600   55.1900 C.ar      4 PHE5        0.0000 
     20 CZ          8.6000    9.4300   53.9500 C.ar      4 PHE5        0.0000 
     21 CZ          9.8400    9.6700   53.1500 C.ar      4 PHE5        0.0000 
     22 CZ          9.2300   10.0900   55.1400 C.ar      4 PHE5        0.0000 
     23 CZ          9.7700    8.7600   55.5900 C.ar      4 PHE5        0.0000 
     24 CZ         10.4700   10.3300   54.3400 C.ar      4 PHE5        0.0000 
     25 CZ         11.7200   10.5800   53.5500 C.ar      4 PHE5        0.0000 
     26 CZ         13.5100    9.5000   53.2000 C.ar      4 PHE5        0.0000 
     27 CZ         10.4000    9.4300   56.7800 C.ar      4 PHE5        0.0000 
     28 CZ         11.1000   10.9900   55.5300 C.ar      4 PHE5        0.0000 
     29 CZ         12.9000    9.9200   55.1900 C.ar      4 PHE5        0.0000 
     30 CZ         14.1400   10.1600   54.3900 C.ar      4 PHE5        0.0000 
     31 CZ         12.2800   10.3300   57.1700 C.ar      4 PHE5        0.0000 
     32 CZ         13.5200   10.5800   56.3800 C.ar      4 PHE5        0.0000 
     33 CZ         14.0700    9.2500   56.8200 C.ar      4 PHE5        0.0000 
     34 CA          7.2700    7.2000   54.0000 C.3       5 GLY6        0.0000 
     35 CA          7.4200   10.0900   52.3100 C.3       5 GLY6        0.0000 
     36 CA          8.0500   10.7500   53.5000 C.3       5 GLY6        0.0000 
     37 CA          9.3000   11.0000   52.7100 C.3       5 GLY6        0.0000 
     38 CA         10.5500   11.2400   51.9100 C.3       5 GLY6        0.0000 
     39 CA          7.4300   11.1700   55.4900 C.3       5 GLY6        0.0000 
     40 CA          7.9800    9.8400   55.9400 C.3       5 GLY6        0.0000 
     41 CA          8.5200    8.5200   56.3800 C.3       5 GLY6        0.0000 
     42 CA          8.6800   11.4100   54.6900 C.3       5 GLY6        0.0000 
     43 CA          9.9300   11.6600   53.9000 C.3       5 GLY6        0.0000 
     44 CA         11.1800   11.9000   53.1000 C.3       5 GLY6        0.0000 
     45 CA          8.0600   11.8300   56.6800 C.3       5 GLY6        0.0000 
     46 CA          9.1500    9.1800   57.5700 C.3       5 GLY6        0.0000 
     47 CA          9.3100   12.0700   55.8800 C.3       5 GLY6        0.0000 
     48 CA         10.5600   12.3200   55.0900 C.3       5 GLY6        0.0000 
     49 CA         11.2600   13.8900   53.8500 C.3       5 GLY6        0.0000 
     50 CA         11.8000   12.5600   54.2900 C.3       5 GLY6        0.0000 
     51 CA         12.5100   14.1300   53.0500 C.3       5 GLY6        0.0000 
     52 CA         14.6900    8.8400   54.8400 C.3       5 GLY6        0.0000 
     53 CA         15.9400    9.0800   54.0400 C.3       5 GLY6        0.0000 
     54 CA          8.6900   12.4900   57.8700 C.3       5 GLY6        0.0000 
     55 CA          9.9400   12.7300   57.0700 C.3       5 GLY6        0.0000 
     56 CA         11.1900   12.9800   56.2800 C.3       5 GLY6        0.0000 
     57 CA         11.8900   14.5500   55.0400 C.3       5 GLY6        0.0000 
     58 CA         12.4300   13.2300   55.4800 C.3       5 GLY6        0.0000 
     59 CA         13.6800   13.4700   54.6900 C.3       5 GLY6        0.0000 
     60 CA         15.3200    9.5000   56.0300 C.3       5 GLY6        0.0000 
     61 CA         10.5700   13.3900   58.2600 C.3       5 GLY6        0.0000 
     62 DU         13.5900   10.4100   50.7700 H         6 CUB7        0.0000 
     63 DU         12.4200   12.1500   52.3100 H         6 CUB7        0.0000 
     64 DU         12.9700   10.8300   52.7500 H         6 CUB7        0.0000 
     65 DU         13.6700   12.4000   51.5100 H         6 CUB7        0.0000 
     66 DU         16.0100    9.9900   51.6100 H         6 CUB7        0.0000 
     67 DU          9.8500   10.7500   56.3300 H         6 CUB7        0.0000 
     68 DU         12.3500   11.2400   54.7400 H         6 CUB7        0.0000 
     69 DU         13.0500   12.8100   53.5000 H         6 CUB7        0.0000 
     70 DU         13.6000   11.4900   53.9400 H         6 CUB7        0.0000 
     71 DU         14.3000   13.0600   52.7000 H         6 CUB7        0.0000 
     72 DU         15.3900   10.4100   53.5900 H         6 CUB7        0.0000 
     73 DU         11.7300   11.6600   56.7300 H         6 CUB7        0.0000 
     74 DU         12.9800   11.9000   55.9300 H         6 CUB7        0.0000 
     75 DU         14.2300   12.1500   55.1300 H         6 CUB7        0.0000 
     76 DU         14.7700   10.8200   55.5800 H         6 CUB7        0.0000 
     77 DU         12.3600   12.3200   57.9200 H         6 CUB7        0.0000 
@<TRIPOS>BOND
@<TRIPOS>SUBSTRUCTURE
     1 SER1        1 GROUP   
     2 ALA2        4 GROUP   
     3 ASP3       16 GROUP   
     4 PHE5       18 GROUP   
     5 GLY6       34 GROUP   
     6 CUB7       62 GROUP   
@<TRIPOS>SET

