#    Name: 5w7t_1_ANP
#    Modification time : Fri May 22 19:16:10 2020

@<TRIPOS>MOLECULE
5w7t_1_ANP
   31    33     1     0     1
SMALL
NO_CHARGES


@<TRIPOS>ATOM
      1 PG         14.2810   12.1990   45.9260 P.3       1 ANP501      0.0000 
      2 O1G        13.9150   13.2670   44.9690 O.co2     1 ANP501      0.0000 
      3 O2G        14.7100   10.8920   45.2650 O.co2     1 ANP501      0.0000 
      4 O3G        14.9870   12.6190   47.1910 O.co2     1 ANP501      0.0000 
      5 PB         11.7810   12.5690   47.5280 P.3       1 ANP501      0.0000 
      6 O1B        11.6480   13.9970   46.9600 O.co2     1 ANP501      0.0000 
      7 O2B        10.5840   11.6700   47.4230 O.co2     1 ANP501      0.0000 
      8 N3B        12.8150   11.5620   46.5790 N.3       1 ANP501      0.0000 
      9 PA         12.8070   11.6910   50.0760 P.3       1 ANP501      0.0000 
     10 O1A        11.9260   10.4730   49.8800 O.co2     1 ANP501      0.0000 
     11 O2A        14.3220   11.7400   50.0110 O.co2     1 ANP501      0.0000 
     12 O3A        12.2740   12.8350   49.0400 O.3       1 ANP501      0.0000 
     13 O5'        12.3270   12.4220   51.4350 O.3       1 ANP501      0.0000 
     14 C5'        12.9610   13.6290   51.7910 C.3       1 ANP501      0.0000 
     15 C4'        13.2950   13.4680   53.2520 C.3       1 ANP501      0.0000 
     16 O4'        12.0770   13.2510   53.9840 O.3       1 ANP501      0.0000 
     17 C3'        14.1930   12.2660   53.4310 C.3       1 ANP501      0.0000 
     18 O3'        15.1440   12.5600   54.4110 O.3       1 ANP501      0.0000 
     19 C2'        13.3050   11.1910   53.9650 C.3       1 ANP501      0.0000 
     20 O2'        13.9730   10.3290   54.8640 O.3       1 ANP501      0.0000 
     21 C1'        12.2300   12.0260   54.6960 C.3       1 ANP501      0.0000 
     22 N9         10.9840   11.2400   54.7450 N.pl3     1 ANP501      0.0000 
     23 C8         10.3620   10.6470   53.7020 C.2       1 ANP501      0.0000 
     24 N7          9.2430   10.0120   54.1250 N.2       1 ANP501      0.0000 
     25 C5          9.1820   10.1800   55.4620 C.ar      1 ANP501      0.0000 
     26 C6          8.2900    9.7760   56.5390 C.ar      1 ANP501      0.0000 
     27 N6          7.2170    9.0180   56.2840 N.pl3     1 ANP501      0.0000 
     28 N1          8.5690   10.2130   57.8120 N.ar      1 ANP501      0.0000 
     29 C2          9.6580   10.9750   58.0840 C.ar      1 ANP501      0.0000 
     30 N3         10.4940   11.3650   57.1320 N.ar      1 ANP501      0.0000 
     31 C4         10.3320   10.9890   55.8540 C.ar      1 ANP501      0.0000 
@<TRIPOS>BOND
     1    1    2 ar   
     2    1    3 ar   
     3    1    4 ar   
     4    1    8 1    
     5    5    6 ar   
     6    5    7 ar   
     7    5    8 1    
     8    5   12 1    
     9    9   10 ar   
    10    9   11 ar   
    11    9   12 1    
    12    9   13 1    
    13   13   14 1    
    14   14   15 1    
    15   15   16 1    
    16   15   17 1    
    17   16   21 1    
    18   17   18 1    
    19   17   19 1    
    20   19   20 1    
    21   19   21 1    
    22   21   22 1    
    23   22   23 1    
    24   22   31 1    
    25   23   24 2    
    26   24   25 1    
    27   25   26 ar   
    28   25   31 ar   
    29   26   27 1    
    30   26   28 ar   
    31   28   29 ar   
    32   29   30 ar   
    33   30   31 ar   
@<TRIPOS>SUBSTRUCTURE
     1 ANP501      1 GROUP   
@<TRIPOS>SET
ATOM$ORANGE STATIC     ATOMS   COLORGROUP SYSTEM 
20 14 14 15 15 17 17 19 19 21 21 23 23 25 25 26 26 29 \
29 31 31 

