#    Name: 6jqo_3_COO
#    Modification time : Fri May 22 19:30:17 2020

@<TRIPOS>MOLECULE
6jqo_3_COO
   53    55     1     0     0
SMALL
NO_CHARGES


@<TRIPOS>ATOM
      1 C13       244.6230  182.0340  195.1680 C.3       1 COO802      0.0000 
      2 C11       245.6090  183.1940  194.9880 C.3       1 COO802      0.0000 
      3 C14       247.0540  182.7600  195.1920 C.3       1 COO802      0.0000 
      4 C12       245.2930  184.2810  196.0130 C.3       1 COO802      0.0000 
      5 O6A       244.8170  185.4860  195.4150 O.3       1 COO802      0.0000 
      6 P2A       245.7070  186.8270  195.4710 P.3       1 COO802      0.0000 
      7 O4A       245.0650  187.8600  194.5760 O.co2     1 COO802      0.0000 
      8 O5A       245.7910  187.3200  196.8950 O.co2     1 COO802      0.0000 
      9 O3A       247.1840  186.4710  194.9330 O.3       1 COO802      0.0000 
     10 P1A       248.3240  187.5970  194.7760 P.3       1 COO802      0.0000 
     11 O2A       248.5210  188.2870  196.1020 O.co2     1 COO802      0.0000 
     12 O1A       249.6040  186.9420  194.3210 O.co2     1 COO802      0.0000 
     13 O5X       247.8660  188.6760  193.6720 O.3       1 COO802      0.0000 
     14 C5X       247.5160  190.0080  194.0430 C.3       1 COO802      0.0000 
     15 C4X       248.7470  190.8920  193.9310 C.3       1 COO802      0.0000 
     16 O4X       249.7320  190.2060  193.1570 O.3       1 COO802      0.0000 
     17 C3X       248.4210  192.1930  193.2140 C.3       1 COO802      0.0000 
     18 O3X       248.6740  193.3200  194.0490 O.3       1 COO802      0.0000 
     19 P3X       247.8250  193.6130  195.3870 P.3       1 COO802      0.0000 
     20 O9A       246.4810  192.9340  195.3030 O.co2     1 COO802      0.0000 
     21 O7A       247.6260  195.1040  195.5000 O.co2     1 COO802      0.0000 
     22 O8A       248.6030  193.1120  196.5790 O.co2     1 COO802      0.0000 
     23 C2X       249.3410  192.2400  192.0100 C.3       1 COO802      0.0000 
     24 O2X       250.0690  193.4700  191.9880 O.3       1 COO802      0.0000 
     25 C1X       250.2990  191.0710  192.1720 C.3       1 COO802      0.0000 
     26 N9A       250.4820  190.3920  190.8610 N.pl3     1 COO802      0.0000 
     27 C8A       250.6760  191.0380  189.6970 C.2       1 COO802      0.0000 
     28 N7A       250.8140  190.1700  188.6650 N.2       1 COO802      0.0000 
     29 C5A       250.7060  188.9290  189.1690 C.ar      1 COO802      0.0000 
     30 C4A       250.4880  189.0760  190.6160 C.ar      1 COO802      0.0000 
     31 N3A       250.3440  187.9510  191.3570 N.ar      1 COO802      0.0000 
     32 C2A       250.4040  186.7300  190.7960 C.ar      1 COO802      0.0000 
     33 N1A       250.6000  186.5250  189.4810 N.ar      1 COO802      0.0000 
     34 C6A       250.7560  187.5540  188.6200 C.ar      1 COO802      0.0000 
     35 N6A       250.9540  187.3380  187.2980 N.pl3     1 COO802      0.0000 
     36 O1        244.2150  181.9660  196.5400 O.3       1 COO802      0.0000 
     37 C1        245.1780  180.6890  194.7690 C.2       1 COO802      0.0000 
     38 O2        245.5030  179.8820  195.6250 O.2       1 COO802      0.0000 
     39 N1        245.2720  180.4130  193.4710 N.am      1 COO802      0.0000 
     40 C2        245.9670  179.2330  192.9990 C.3       1 COO802      0.0000 
     41 C3        247.1350  179.5950  192.0900 C.3       1 COO802      0.0000 
     42 C4        247.8110  178.3270  191.6300 C.2       1 COO802      0.0000 
     43 O3        247.7760  177.9980  190.4570 O.2       1 COO802      0.0000 
     44 N2        248.4230  177.6140  192.5690 N.am      1 COO802      0.0000 
     45 C5        249.0010  176.3180  192.2800 C.3       1 COO802      0.0000 
     46 C6        250.4440  176.2210  192.7560 C.3       1 COO802      0.0000 
     47 S1        251.0880  174.6340  192.3470 S.3       1 COO802      0.0000 
     48 C7        252.5860  174.7310  193.0620 C.2       1 COO802      0.0000 
     49 O4        253.0640  175.8190  193.3260 O.2       1 COO802      0.0000 
     50 C8        253.3270  173.4980  193.3790 C.2       1 COO802      0.0000 
     51 C9        254.6460  173.5400  193.5350 C.2       1 COO802      0.0000 
     52 C10       255.3980  172.2730  193.8600 C.3       1 COO802      0.0000 
     53 C15       245.4690  183.7500  193.5710 C.3       1 COO802      0.0000 
@<TRIPOS>BOND
     1    1    2 1    
     2    1   36 1    
     3    1   37 1    
     4    2    3 1    
     5    2    4 1    
     6    2   53 1    
     7    4    5 1    
     8    5    6 1    
     9    6    7 ar   
    10    6    8 ar   
    11    6    9 1    
    12    9   10 1    
    13   10   11 ar   
    14   10   12 ar   
    15   10   13 1    
    16   13   14 1    
    17   14   15 1    
    18   15   16 1    
    19   15   17 1    
    20   16   25 1    
    21   17   18 1    
    22   17   23 1    
    23   18   19 1    
    24   19   20 ar   
    25   19   21 ar   
    26   19   22 ar   
    27   23   24 1    
    28   23   25 1    
    29   25   26 1    
    30   26   27 1    
    31   26   30 1    
    32   27   28 2    
    33   28   29 1    
    34   29   30 ar   
    35   29   34 ar   
    36   30   31 ar   
    37   31   32 ar   
    38   32   33 ar   
    39   33   34 ar   
    40   34   35 1    
    41   37   38 2    
    42   37   39 am   
    43   39   40 1    
    44   40   41 1    
    45   41   42 1    
    46   42   43 2    
    47   42   44 am   
    48   44   45 1    
    49   45   46 1    
    50   46   47 1    
    51   47   48 1    
    52   48   49 2    
    53   48   50 1    
    54   50   51 2    
    55   51   52 1    
@<TRIPOS>SUBSTRUCTURE
     1 COO802      1 GROUP   
@<TRIPOS>SET

