#    Name: 6jqo_10_NAP
#    Modification time : Fri May 22 19:31:39 2020

@<TRIPOS>MOLECULE
6jqo_10_NAP
   48    52     1     0     1
SMALL
NO_CHARGES


@<TRIPOS>ATOM
      1 PA        273.6010  168.3760  234.7740 P.3       1 NAP801      0.0000 
      2 O1A       274.8190  168.4700  233.8950 O.co2     1 NAP801      0.0000 
      3 O2A       273.9570  167.7690  236.1050 O.co2     1 NAP801      0.0000 
      4 O5B       272.5160  167.4490  234.0380 O.3       1 NAP801      0.0000 
      5 C5B       271.1360  167.7960  234.0460 C.3       1 NAP801      0.0000 
      6 C4B       270.2910  166.5340  234.1330 C.3       1 NAP801      0.0000 
      7 O4B       270.7000  165.5730  233.1600 O.3       1 NAP801      0.0000 
      8 C3B       270.4400  165.8730  235.4870 C.3       1 NAP801      0.0000 
      9 O3B       269.1460  165.5880  236.0150 O.3       1 NAP801      0.0000 
     10 C2B       271.1660  164.5790  235.2110 C.3       1 NAP801      0.0000 
     11 O2B       270.7080  163.5580  236.0860 O.3       1 NAP801      0.0000 
     12 C1B       270.7860  164.2890  233.7760 C.3       1 NAP801      0.0000 
     13 N9A       271.8040  163.4510  233.1020 N.pl3     1 NAP801      0.0000 
     14 C8A       273.1380  163.5490  233.2310 C.2       1 NAP801      0.0000 
     15 N7A       273.7700  162.6240  232.4690 N.2       1 NAP801      0.0000 
     16 C5A       272.8230  161.9150  231.8330 C.ar      1 NAP801      0.0000 
     17 C6A       272.7940  160.7900  230.8750 C.ar      1 NAP801      0.0000 
     18 N6A       273.9410  160.2210  230.4340 N.pl3     1 NAP801      0.0000 
     19 N1A       271.5870  160.3490  230.4570 N.ar      1 NAP801      0.0000 
     20 C2A       270.4410  160.9060  230.8870 C.ar      1 NAP801      0.0000 
     21 N3A       270.3940  161.9270  231.7560 N.ar      1 NAP801      0.0000 
     22 C4A       271.5310  162.4640  232.2530 C.ar      1 NAP801      0.0000 
     23 O3        273.0200  169.8560  234.9950 O.3       1 NAP801      0.0000 
     24 PN        272.8780  170.4560  236.4790 P.3       1 NAP801      0.0000 
     25 O1N       271.9450  169.5700  237.2610 O.co2     1 NAP801      0.0000 
     26 O2N       274.2350  170.4990  237.1320 O.co2     1 NAP801      0.0000 
     27 O5D       272.2800  171.9490  236.4360 O.3       1 NAP801      0.0000 
     28 C5D       273.1410  173.0840  236.4970 C.3       1 NAP801      0.0000 
     29 C4D       273.3110  173.6970  235.1160 C.3       1 NAP801      0.0000 
     30 O4D       272.0330  173.8250  234.4930 O.3       1 NAP801      0.0000 
     31 C3D       273.8870  175.0960  235.1990 C.3       1 NAP801      0.0000 
     32 O3D       274.9150  175.2300  234.2180 O.3       1 NAP801      0.0000 
     33 C2D       272.7310  176.0080  234.8560 C.3       1 NAP801      0.0000 
     34 O2D       273.1870  177.1550  234.1400 O.3       1 NAP801      0.0000 
     35 C1D       271.8610  175.1420  233.9740 C.3       1 NAP801      0.0000 
     36 N1N       270.4560  175.5280  234.0530 N.pl3     1 NAP801      0.0000 
     37 C2N       269.8580  176.0760  232.9910 C.ar      1 NAP801      0.0000 
     38 C3N       268.5220  176.4480  233.0300 C.ar      1 NAP801      0.0000 
     39 C7N       267.8710  177.0650  231.8330 C.2       1 NAP801      0.0000 
     40 O7N       268.5590  177.4480  230.9050 O.2       1 NAP801      0.0000 
     41 N7N       266.5460  177.1740  231.8170 N.am      1 NAP801      0.0000 
     42 C4N       267.7780  176.2530  234.1790 C.ar      1 NAP801      0.0000 
     43 C5N       268.3570  175.6830  235.2990 C.ar      1 NAP801      0.0000 
     44 C6N       269.7520  175.2730  235.3080 C.ar      1 NAP801      0.0000 
     45 P2B       271.5870  163.1770  237.3750 P.3       1 NAP801      0.0000 
     46 O1X       271.5890  164.3480  238.3220 O.co2     1 NAP801      0.0000 
     47 O2X       270.9780  161.9710  238.0400 O.co2     1 NAP801      0.0000 
     48 O3X       272.9940  162.8620  236.9380 O.co2     1 NAP801      0.0000 
@<TRIPOS>BOND
     1    1    2 ar   
     2    1    3 ar   
     3    1    4 1    
     4    1   23 1    
     5    4    5 1    
     6    5    6 1    
     7    6    7 1    
     8    6    8 1    
     9    7   12 1    
    10    8    9 1    
    11    8   10 1    
    12   10   11 1    
    13   10   12 1    
    14   11   45 1    
    15   12   13 1    
    16   13   14 1    
    17   13   22 1    
    18   14   15 2    
    19   15   16 1    
    20   16   17 ar   
    21   16   22 ar   
    22   17   18 1    
    23   17   19 ar   
    24   19   20 ar   
    25   20   21 ar   
    26   21   22 ar   
    27   23   24 1    
    28   24   25 ar   
    29   24   26 ar   
    30   24   27 1    
    31   27   28 1    
    32   28   29 1    
    33   29   30 1    
    34   29   31 1    
    35   30   35 1    
    36   31   32 1    
    37   31   33 1    
    38   33   34 1    
    39   33   35 1    
    40   35   36 1    
    41   36   37 ar   
    42   36   44 ar   
    43   37   38 ar   
    44   38   39 1    
    45   38   42 ar   
    46   39   40 2    
    47   39   41 am   
    48   42   43 ar   
    49   43   44 ar   
    50   45   46 ar   
    51   45   47 ar   
    52   45   48 ar   
@<TRIPOS>SUBSTRUCTURE
     1 NAP801      1 GROUP   
@<TRIPOS>SET
ATOM$ORANGE STATIC     ATOMS   COLORGROUP SYSTEM 
42 5 5 6 6 8 8 10 10 12 12 14 14 16 16 17 17 20 \
20 22 22 28 28 29 29 31 31 33 33 35 35 37 37 38 38 39 \
39 42 42 43 43 44 44 

