#    Name: 6jqo_4_COO
#    Modification time : Fri May 22 19:30:40 2020

@<TRIPOS>MOLECULE
6jqo_4_COO
   53    55     1     0     0
SMALL
NO_CHARGES


@<TRIPOS>ATOM
      1 C13       251.3040  190.0940  237.9240 C.3       1 COO802      0.0000 
      2 C11       250.1580  189.0890  238.0840 C.3       1 COO802      0.0000 
      3 C14       250.6090  187.6670  237.7770 C.3       1 COO802      0.0000 
      4 C12       249.0380  189.4770  237.1260 C.3       1 COO802      0.0000 
      5 O6A       247.7470  189.2570  237.6930 O.3       1 COO802      0.0000 
      6 P2A       246.8810  187.9490  237.3330 P.3       1 COO802      0.0000 
      7 O4A       245.4450  188.2030  237.7240 O.co2     1 COO802      0.0000 
      8 O5A       246.9930  187.6880  235.8500 O.co2     1 COO802      0.0000 
      9 O3A       247.4570  186.6800  238.1410 O.3       1 COO802      0.0000 
     10 P1A       246.7480  185.2350  238.0960 P.3       1 COO802      0.0000 
     11 O2A       245.9890  185.0860  236.8010 O.co2     1 COO802      0.0000 
     12 O1A       247.8130  184.1720  238.2100 O.co2     1 COO802      0.0000 
     13 O5X       245.7250  185.0840  239.3300 O.3       1 COO802      0.0000 
     14 C5X       244.3560  185.4660  239.2200 C.3       1 COO802      0.0000 
     15 C4X       243.5220  184.2290  238.9310 C.3       1 COO802      0.0000 
     16 O4X       244.1140  183.1240  239.6130 O.3       1 COO802      0.0000 
     17 C3X       242.1000  184.3900  239.4430 C.3       1 COO802      0.0000 
     18 O3X       241.1640  183.9760  238.4530 O.3       1 COO802      0.0000 
     19 P3X       240.7460  184.9190  237.2140 P.3       1 COO802      0.0000 
     20 O9A       241.4160  186.2650  237.3460 O.co2     1 COO802      0.0000 
     21 O7A       239.2460  185.0880  237.2180 O.co2     1 COO802      0.0000 
     22 O8A       241.1730  184.2440  235.9350 O.co2     1 COO802      0.0000 
     23 C2X       241.9920  183.4560  240.6320 C.3       1 COO802      0.0000 
     24 O2X       240.8360  182.6250  240.4950 O.3       1 COO802      0.0000 
     25 C1X       243.2480  182.5990  240.6200 C.3       1 COO802      0.0000 
     26 N9A       243.8870  182.6290  241.9650 N.pl3     1 COO802      0.0000 
     27 C8A       243.2190  182.4580  243.1220 C.2       1 COO802      0.0000 
     28 N7A       244.0500  182.5320  244.1910 N.2       1 COO802      0.0000 
     29 C5A       245.2880  182.7600  243.7210 C.ar      1 COO802      0.0000 
     30 C4A       245.1810  182.8250  242.2550 C.ar      1 COO802      0.0000 
     31 N3A       246.3150  183.0460  241.5450 N.ar      1 COO802      0.0000 
     32 C2A       247.5030  183.2030  242.1520 C.ar      1 COO802      0.0000 
     33 N1A       247.6700  183.1560  243.4840 N.ar      1 COO802      0.0000 
     34 C6A       246.6300  182.9430  244.3190 C.ar      1 COO802      0.0000 
     35 N6A       246.8090  182.8970  245.6600 N.pl3     1 COO802      0.0000 
     36 O1        251.3460  190.5470  236.5670 O.3       1 COO802      0.0000 
     37 C1        252.6630  189.5460  238.2760 C.2       1 COO802      0.0000 
     38 O2        253.4620  189.2820  237.3930 O.2       1 COO802      0.0000 
     39 N1        252.9560  189.3920  239.5640 N.am      1 COO802      0.0000 
     40 C2        254.2470  188.8970  239.9910 C.3       1 COO802      0.0000 
     41 C3        254.1130  187.6400  240.8380 C.3       1 COO802      0.0000 
     42 C4        255.4760  187.2340  241.3380 C.2       1 COO802      0.0000 
     43 O3        255.7110  187.2070  242.5340 O.2       1 COO802      0.0000 
     44 N2        256.3780  186.9200  240.4170 N.am      1 COO802      0.0000 
     45 C5        257.6450  186.3310  240.7950 C.3       1 COO802      0.0000 
     46 C6        257.8710  184.9900  240.1120 C.3       1 COO802      0.0000 
     47 S1        259.3210  184.2500  240.7780 S.3       1 COO802      0.0000 
     48 C7        259.5680  183.0380  239.6660 C.2       1 COO802      0.0000 
     49 O4        258.6220  182.5730  239.0560 O.2       1 COO802      0.0000 
     50 C8        260.9330  182.5420  239.4250 C.2       1 COO802      0.0000 
     51 C9        261.1360  181.2610  239.1390 C.2       1 COO802      0.0000 
     52 C10       262.5420  180.7730  238.8960 C.3       1 COO802      0.0000 
     53 C15       249.6190  189.1420  239.5130 C.3       1 COO802      0.0000 
@<TRIPOS>BOND
     1    1    2 1    
     2    1   36 1    
     3    1   37 1    
     4    2    3 1    
     5    2    4 1    
     6    2   53 1    
     7    4    5 1    
     8    5    6 1    
     9    6    7 ar   
    10    6    8 ar   
    11    6    9 1    
    12    9   10 1    
    13   10   11 ar   
    14   10   12 ar   
    15   10   13 1    
    16   13   14 1    
    17   14   15 1    
    18   15   16 1    
    19   15   17 1    
    20   16   25 1    
    21   17   18 1    
    22   17   23 1    
    23   18   19 1    
    24   19   20 ar   
    25   19   21 ar   
    26   19   22 ar   
    27   23   24 1    
    28   23   25 1    
    29   25   26 1    
    30   26   27 1    
    31   26   30 1    
    32   27   28 2    
    33   28   29 1    
    34   29   30 ar   
    35   29   34 ar   
    36   30   31 ar   
    37   31   32 ar   
    38   32   33 ar   
    39   33   34 ar   
    40   34   35 1    
    41   37   38 2    
    42   37   39 am   
    43   39   40 1    
    44   40   41 1    
    45   41   42 1    
    46   42   43 2    
    47   42   44 am   
    48   44   45 1    
    49   45   46 1    
    50   46   47 1    
    51   47   48 1    
    52   48   49 2    
    53   48   50 1    
    54   50   51 2    
    55   51   52 1    
@<TRIPOS>SUBSTRUCTURE
     1 COO802      1 GROUP   
@<TRIPOS>SET

