#    Name: 6jqo_8_NAP
#    Modification time : Fri May 22 19:31:21 2020

@<TRIPOS>MOLECULE
6jqo_8_NAP
   48    52     1     0     1
SMALL
NO_CHARGES


@<TRIPOS>ATOM
      1 PA        224.2360  288.6120  234.6040 P.3       1 NAP801      0.0000 
      2 O1A       223.5400  289.4280  233.5470 O.co2     1 NAP801      0.0000 
      3 O2A       224.4580  289.4320  235.8470 O.co2     1 NAP801      0.0000 
      4 O5B       225.6520  288.1260  234.0330 O.3       1 NAP801      0.0000 
      5 C5B       225.9690  286.7410  233.9960 C.3       1 NAP801      0.0000 
      6 C4B       227.4760  286.5660  234.0940 C.3       1 NAP801      0.0000 
      7 O4B       228.1360  287.4180  233.1580 O.3       1 NAP801      0.0000 
      8 C3B       227.9770  286.9520  235.4690 C.3       1 NAP801      0.0000 
      9 O3B       228.8590  285.9390  235.9490 O.3       1 NAP801      0.0000 
     10 C2B       228.7440  288.2360  235.2550 C.3       1 NAP801      0.0000 
     11 O2B       229.8560  288.3080  236.1350 O.3       1 NAP801      0.0000 
     12 C1B       229.1770  288.1440  233.8080 C.3       1 NAP801      0.0000 
     13 N9A       229.3010  289.4880  233.2040 N.pl3     1 NAP801      0.0000 
     14 C8A       228.4820  290.5290  233.4210 C.2       1 NAP801      0.0000 
     15 N7A       228.8740  291.6150  232.7120 N.2       1 NAP801      0.0000 
     16 C5A       229.9710  291.2670  232.0180 C.ar      1 NAP801      0.0000 
     17 C6A       230.8930  291.9300  231.0710 C.ar      1 NAP801      0.0000 
     18 N6A       230.7140  293.2230  230.7130 N.pl3     1 NAP801      0.0000 
     19 N1A       231.9180  291.2020  230.5790 N.ar      1 NAP801      0.0000 
     20 C2A       232.1080  289.9180  230.9240 C.ar      1 NAP801      0.0000 
     21 N3A       231.3130  289.2540  231.7790 N.ar      1 NAP801      0.0000 
     22 C4A       230.2470  289.8640  232.3470 C.ar      1 NAP801      0.0000 
     23 O3        223.3270  287.3330  234.9450 O.3       1 NAP801      0.0000 
     24 PN        222.7800  287.0910  236.4360 P.3       1 NAP801      0.0000 
     25 O1N       223.9640  286.9180  237.3480 O.co2     1 NAP801      0.0000 
     26 O2N       221.9560  288.2760  236.8670 O.co2     1 NAP801      0.0000 
     27 O5D       221.8720  285.7640  236.4940 O.3       1 NAP801      0.0000 
     28 C5D       220.4480  285.8460  236.5250 C.3       1 NAP801      0.0000 
     29 C4D       219.8570  285.7010  235.1300 C.3       1 NAP801      0.0000 
     30 O4D       220.3800  284.5280  234.5070 O.3       1 NAP801      0.0000 
     31 C3D       218.3520  285.5220  235.1880 C.3       1 NAP801      0.0000 
     32 O3D       217.7500  286.3260  234.1750 O.3       1 NAP801      0.0000 
     33 C2D       218.1360  284.0600  234.8740 C.3       1 NAP801      0.0000 
     34 O2D       216.9110  283.8660  234.1670 O.3       1 NAP801      0.0000 
     35 C1D       219.3190  283.7240  233.9940 C.3       1 NAP801      0.0000 
     36 N1N       219.6650  282.3110  234.0940 N.pl3     1 NAP801      0.0000 
     37 C2N       219.4640  281.5010  233.0490 C.ar      1 NAP801      0.0000 
     38 C3N       219.7890  280.1540  233.1130 C.ar      1 NAP801      0.0000 
     39 C7N       219.5580  279.2590  231.9370 C.2       1 NAP801      0.0000 
     40 O7N       218.8790  279.6490  231.0060 O.2       1 NAP801      0.0000 
     41 N7N       220.1200  278.0550  231.9380 N.am      1 NAP801      0.0000 
     42 C4N       220.3260  279.6210  234.2720 C.ar      1 NAP801      0.0000 
     43 C5N       220.5550  280.4270  235.3730 C.ar      1 NAP801      0.0000 
     44 C6N       220.2380  281.8450  235.3550 C.ar      1 NAP801      0.0000 
     45 P2B       229.8410  289.3700  237.3400 P.3       1 NAP801      0.0000 
     46 O1X       228.6410  289.1000  238.2110 O.co2     1 NAP801      0.0000 
     47 O2X       231.1060  289.2130  238.1380 O.co2     1 NAP801      0.0000 
     48 O3X       229.7650  290.7650  236.7780 O.co2     1 NAP801      0.0000 
@<TRIPOS>BOND
     1    1    2 ar   
     2    1    3 ar   
     3    1    4 1    
     4    1   23 1    
     5    4    5 1    
     6    5    6 1    
     7    6    7 1    
     8    6    8 1    
     9    7   12 1    
    10    8    9 1    
    11    8   10 1    
    12   10   11 1    
    13   10   12 1    
    14   11   45 1    
    15   12   13 1    
    16   13   14 1    
    17   13   22 1    
    18   14   15 2    
    19   15   16 1    
    20   16   17 ar   
    21   16   22 ar   
    22   17   18 1    
    23   17   19 ar   
    24   19   20 ar   
    25   20   21 ar   
    26   21   22 ar   
    27   23   24 1    
    28   24   25 ar   
    29   24   26 ar   
    30   24   27 1    
    31   27   28 1    
    32   28   29 1    
    33   29   30 1    
    34   29   31 1    
    35   30   35 1    
    36   31   32 1    
    37   31   33 1    
    38   33   34 1    
    39   33   35 1    
    40   35   36 1    
    41   36   37 ar   
    42   36   44 ar   
    43   37   38 ar   
    44   38   39 1    
    45   38   42 ar   
    46   39   40 2    
    47   39   41 am   
    48   42   43 ar   
    49   43   44 ar   
    50   45   46 ar   
    51   45   47 ar   
    52   45   48 ar   
@<TRIPOS>SUBSTRUCTURE
     1 NAP801      1 GROUP   
@<TRIPOS>SET
ATOM$ORANGE STATIC     ATOMS   COLORGROUP SYSTEM 
42 5 5 6 6 8 8 10 10 12 12 14 14 16 16 17 17 20 \
20 22 22 28 28 29 29 31 31 33 33 35 35 37 37 38 38 39 \
39 42 42 43 43 44 44 

