#    Name: 6jqo_9_NAP
#    Modification time : Fri May 22 19:31:30 2020

@<TRIPOS>MOLECULE
6jqo_9_NAP
   48    52     1     0     1
SMALL
NO_CHARGES


@<TRIPOS>ATOM
      1 PA        269.3800  163.1290  198.4380 P.3       1 NAP801      0.0000 
      2 O1A       269.4310  162.7040  199.8820 O.co2     1 NAP801      0.0000 
      3 O2A       270.0540  162.1050  197.5610 O.co2     1 NAP801      0.0000 
      4 O5B       270.1400  164.5310  198.2770 O.3       1 NAP801      0.0000 
      5 C5B       269.5350  165.7410  198.7150 C.3       1 NAP801      0.0000 
      6 C4B       270.5600  166.8670  198.7240 C.3       1 NAP801      0.0000 
      7 O4B       271.5880  166.5900  199.6740 O.3       1 NAP801      0.0000 
      8 C3B       271.2510  167.0420  197.3850 C.3       1 NAP801      0.0000 
      9 O3B       271.2930  168.4330  197.0720 O.3       1 NAP801      0.0000 
     10 C2B       272.6560  166.5380  197.6090 C.3       1 NAP801      0.0000 
     11 O2B       273.5940  167.2250  196.7920 O.3       1 NAP801      0.0000 
     12 C1B       272.8630  166.8180  199.0820 C.3       1 NAP801      0.0000 
     13 N9A       273.8380  165.8830  199.6760 N.pl3     1 NAP801      0.0000 
     14 C8A       273.8790  164.5540  199.4890 C.2       1 NAP801      0.0000 
     15 N7A       274.8970  163.9990  200.1900 N.2       1 NAP801      0.0000 
     16 C5A       275.5200  164.9930  200.8460 C.ar      1 NAP801      0.0000 
     17 C6A       276.6710  165.1070  201.7660 C.ar      1 NAP801      0.0000 
     18 N6A       277.3770  164.0130  202.1310 N.pl3     1 NAP801      0.0000 
     19 N1A       276.9910  166.3360  202.2240 N.ar      1 NAP801      0.0000 
     20 C2A       276.2980  167.4310  201.8660 C.ar      1 NAP801      0.0000 
     21 N3A       275.2440  167.4000  201.0360 N.ar      1 NAP801      0.0000 
     22 C4A       274.8150  166.2320  200.5060 C.ar      1 NAP801      0.0000 
     23 O3        267.8470  163.2780  197.9810 O.3       1 NAP801      0.0000 
     24 PN        267.4370  163.5580  196.4520 P.3       1 NAP801      0.0000 
     25 O1N       268.4290  164.5000  195.8220 O.co2     1 NAP801      0.0000 
     26 O2N       267.4140  162.2490  195.7050 O.co2     1 NAP801      0.0000 
     27 O5D       265.9710  164.2140  196.3880 O.3       1 NAP801      0.0000 
     28 C5D       264.8090  163.3920  196.3120 C.3       1 NAP801      0.0000 
     29 C4D       264.2940  163.0450  197.6970 C.3       1 NAP801      0.0000 
     30 O4D       263.9210  164.2450  198.3750 O.3       1 NAP801      0.0000 
     31 C3D       263.0470  162.1880  197.6070 C.3       1 NAP801      0.0000 
     32 O3D       263.1130  161.1590  198.5930 O.3       1 NAP801      0.0000 
     33 C2D       261.9240  163.1370  197.9430 C.3       1 NAP801      0.0000 
     34 O2D       260.8700  162.4560  198.6200 O.3       1 NAP801      0.0000 
     35 C1D       262.5820  164.1460  198.8570 C.3       1 NAP801      0.0000 
     36 N1N       261.9100  165.4380  198.7620 N.pl3     1 NAP801      0.0000 
     37 C2N       261.2900  165.9400  199.8330 C.ar      1 NAP801      0.0000 
     38 C3N       260.6450  167.1650  199.7750 C.ar      1 NAP801      0.0000 
     39 C7N       259.9630  167.7150  200.9850 C.2       1 NAP801      0.0000 
     40 O7N       259.8850  167.0380  201.9910 O.2       1 NAP801      0.0000 
     41 N7N       259.4700  168.9470  200.9260 N.am      1 NAP801      0.0000 
     42 C4N       260.6210  167.8930  198.6000 C.ar      1 NAP801      0.0000 
     43 C5N       261.2470  167.4100  197.4660 C.ar      1 NAP801      0.0000 
     44 C6N       261.9440  166.1350  197.4780 C.ar      1 NAP801      0.0000 
     45 P2B       274.3920  166.4180  195.6520 P.3       1 NAP801      0.0000 
     46 O1X       273.5080  166.2770  194.4410 O.co2     1 NAP801      0.0000 
     47 O2X       275.6420  167.1860  195.3130 O.co2     1 NAP801      0.0000 
     48 O3X       274.7540  165.0580  196.1870 O.co2     1 NAP801      0.0000 
@<TRIPOS>BOND
     1    1    2 ar   
     2    1    3 ar   
     3    1    4 1    
     4    1   23 1    
     5    4    5 1    
     6    5    6 1    
     7    6    7 1    
     8    6    8 1    
     9    7   12 1    
    10    8    9 1    
    11    8   10 1    
    12   10   11 1    
    13   10   12 1    
    14   11   45 1    
    15   12   13 1    
    16   13   14 1    
    17   13   22 1    
    18   14   15 2    
    19   15   16 1    
    20   16   17 ar   
    21   16   22 ar   
    22   17   18 1    
    23   17   19 ar   
    24   19   20 ar   
    25   20   21 ar   
    26   21   22 ar   
    27   23   24 1    
    28   24   25 ar   
    29   24   26 ar   
    30   24   27 1    
    31   27   28 1    
    32   28   29 1    
    33   29   30 1    
    34   29   31 1    
    35   30   35 1    
    36   31   32 1    
    37   31   33 1    
    38   33   34 1    
    39   33   35 1    
    40   35   36 1    
    41   36   37 ar   
    42   36   44 ar   
    43   37   38 ar   
    44   38   39 1    
    45   38   42 ar   
    46   39   40 2    
    47   39   41 am   
    48   42   43 ar   
    49   43   44 ar   
    50   45   46 ar   
    51   45   47 ar   
    52   45   48 ar   
@<TRIPOS>SUBSTRUCTURE
     1 NAP801      1 GROUP   
@<TRIPOS>SET
ATOM$ORANGE STATIC     ATOMS   COLORGROUP SYSTEM 
42 5 5 6 6 8 8 10 10 12 12 14 14 16 16 17 17 20 \
20 22 22 28 28 29 29 31 31 33 33 35 35 37 37 38 38 39 \
39 42 42 43 43 44 44 

