#    Name: 6jqo_1_COO
#    Modification time : Fri May 22 19:29:31 2020

@<TRIPOS>MOLECULE
6jqo_1_COO
   53    55     1     0     0
SMALL
NO_CHARGES


@<TRIPOS>ATOM
      1 C13       227.0350  256.6080  195.3830 C.3       1 COO802      0.0000 
      2 C11       225.5250  256.6240  195.1210 C.3       1 COO802      0.0000 
      3 C14       224.9470  258.0300  195.2050 C.3       1 COO802      0.0000 
      4 C12       224.8410  255.7500  196.1700 C.3       1 COO802      0.0000 
      5 O6A       223.9800  254.7710  195.5910 O.3       1 COO802      0.0000 
      6 P2A       222.3800  254.9380  195.6410 P.3       1 COO802      0.0000 
      7 O4A       221.7760  253.9220  194.7020 O.co2     1 COO802      0.0000 
      8 O5A       221.8920  254.7250  197.0540 O.co2     1 COO802      0.0000 
      9 O3A       222.0040  256.4260  195.1560 O.3       1 COO802      0.0000 
     10 P1A       220.4740  256.8950  194.9920 P.3       1 COO802      0.0000 
     11 O2A       219.7650  256.7370  196.3130 O.co2     1 COO802      0.0000 
     12 O1A       220.4440  258.3330  194.5380 O.co2     1 COO802      0.0000 
     13 O5X       219.7540  255.9800  193.8810 O.3       1 COO802      0.0000 
     14 C5X       218.7210  255.0670  194.2400 C.3       1 COO802      0.0000 
     15 C4X       217.3750  255.7480  194.0580 C.3       1 COO802      0.0000 
     16 O4X       217.5620  256.9630  193.3310 O.3       1 COO802      0.0000 
     17 C3X       216.4280  254.8690  193.2560 C.3       1 COO802      0.0000 
     18 O3X       215.2580  254.5570  194.0090 O.3       1 COO802      0.0000 
     19 P3X       215.3190  253.7090  195.3790 P.3       1 COO802      0.0000 
     20 O9A       216.5180  252.7920  195.3600 O.co2     1 COO802      0.0000 
     21 O7A       214.0630  252.8810  195.4820 O.co2     1 COO802      0.0000 
     22 O8A       215.3940  254.6610  196.5490 O.co2     1 COO802      0.0000 
     23 C2X       216.0550  255.6850  192.0340 C.3       1 COO802      0.0000 
     24 O2X       214.6360  255.7090  191.8640 O.3       1 COO802      0.0000 
     25 C1X       216.5720  257.0880  192.3100 C.3       1 COO802      0.0000 
     26 N9A       217.1090  257.6970  191.0620 N.pl3     1 COO802      0.0000 
     27 C8A       216.4690  257.6750  189.8790 C.2       1 COO802      0.0000 
     28 N7A       217.1830  258.3070  188.9160 N.2       1 COO802      0.0000 
     29 C5A       218.3150  258.7510  189.4850 C.ar      1 COO802      0.0000 
     30 C4A       218.2670  258.3490  190.9000 C.ar      1 COO802      0.0000 
     31 N3A       219.3130  258.6880  191.6950 N.ar      1 COO802      0.0000 
     32 C2A       220.3660  259.3720  191.2120 C.ar      1 COO802      0.0000 
     33 N1A       220.4730  259.7690  189.9310 N.ar      1 COO802      0.0000 
     34 C6A       219.5070  259.5000  189.0250 C.ar      1 COO802      0.0000 
     35 N6A       219.6170  259.9000  187.7350 N.pl3     1 COO802      0.0000 
     36 O1        227.2690  256.4540  196.7880 O.3       1 COO802      0.0000 
     37 C1        227.7590  257.8450  194.9180 C.2       1 COO802      0.0000 
     38 O2        228.1400  258.6700  195.7310 O.2       1 COO802      0.0000 
     39 N1        227.9830  257.9890  193.6150 N.am      1 COO802      0.0000 
     40 C2        228.6580  259.1610  193.0950 C.3       1 COO802      0.0000 
     41 C3        227.7640  259.9580  192.1540 C.3       1 COO802      0.0000 
     42 C4        228.5230  261.1650  191.6610 C.2       1 COO802      0.0000 
     43 O3        228.7660  261.3000  190.4740 O.2       1 COO802      0.0000 
     44 N2        228.8990  262.0400  192.5860 N.am      1 COO802      0.0000 
     45 C5        229.6810  263.2130  192.2540 C.3       1 COO802      0.0000 
     46 C6        229.0470  264.4880  192.7940 C.3       1 COO802      0.0000 
     47 S1        230.0240  265.8700  192.3100 S.3       1 COO802      0.0000 
     48 C7        229.2370  267.0920  193.1180 C.2       1 COO802      0.0000 
     49 O4        228.1040  266.9180  193.5300 O.2       1 COO802      0.0000 
     50 C8        229.9150  268.3800  193.3370 C.2       1 COO802      0.0000 
     51 C9        229.1980  269.4800  193.5330 C.2       1 COO802      0.0000 
     52 C10       229.9010  270.7970  193.7570 C.3       1 COO802      0.0000 
     53 C15       225.2540  256.0670  193.7250 C.3       1 COO802      0.0000 
@<TRIPOS>BOND
     1    1    2 1    
     2    1   36 1    
     3    1   37 1    
     4    2    3 1    
     5    2    4 1    
     6    2   53 1    
     7    4    5 1    
     8    5    6 1    
     9    6    7 ar   
    10    6    8 ar   
    11    6    9 1    
    12    9   10 1    
    13   10   11 ar   
    14   10   12 ar   
    15   10   13 1    
    16   13   14 1    
    17   14   15 1    
    18   15   16 1    
    19   15   17 1    
    20   16   25 1    
    21   17   18 1    
    22   17   23 1    
    23   18   19 1    
    24   19   20 ar   
    25   19   21 ar   
    26   19   22 ar   
    27   23   24 1    
    28   23   25 1    
    29   25   26 1    
    30   26   27 1    
    31   26   30 1    
    32   27   28 2    
    33   28   29 1    
    34   29   30 ar   
    35   29   34 ar   
    36   30   31 ar   
    37   31   32 ar   
    38   32   33 ar   
    39   33   34 ar   
    40   34   35 1    
    41   37   38 2    
    42   37   39 am   
    43   39   40 1    
    44   40   41 1    
    45   41   42 1    
    46   42   43 2    
    47   42   44 am   
    48   44   45 1    
    49   45   46 1    
    50   46   47 1    
    51   47   48 1    
    52   48   49 2    
    53   48   50 1    
    54   50   51 2    
    55   51   52 1    
@<TRIPOS>SUBSTRUCTURE
     1 COO802      1 GROUP   
@<TRIPOS>SET

