#    Name: 6jqo_2_COO
#    Modification time : Fri May 22 19:29:55 2020

@<TRIPOS>MOLECULE
6jqo_2_COO
   53    55     1     0     0
SMALL
NO_CHARGES


@<TRIPOS>ATOM
      1 C13       216.7220  258.0730  237.9100 C.3       1 COO802      0.0000 
      2 C11       218.1860  257.6410  238.0510 C.3       1 COO802      0.0000 
      3 C14       219.1470  258.7510  237.6440 C.3       1 COO802      0.0000 
      4 C12       218.4220  256.4240  237.1620 C.3       1 COO802      0.0000 
      5 O6A       219.3540  255.5120  237.7430 O.3       1 COO802      0.0000 
      6 P2A       220.9030  255.4980  237.3050 P.3       1 COO802      0.0000 
      7 O4A       221.4800  254.1360  237.6040 O.co2     1 COO802      0.0000 
      8 O5A       220.9940  255.8030  235.8290 O.co2     1 COO802      0.0000 
      9 O3A       221.7060  256.6280  238.1250 O.3       1 COO802      0.0000 
     10 P1A       223.3110  256.7430  238.0620 P.3       1 COO802      0.0000 
     11 O2A       223.8070  256.1230  236.7790 O.co2     1 COO802      0.0000 
     12 O1A       223.6880  258.2020  238.1300 O.co2     1 COO802      0.0000 
     13 O5X       223.9740  255.9710  239.3110 O.3       1 COO802      0.0000 
     14 C5X       224.3270  254.5910  239.2410 C.3       1 COO802      0.0000 
     15 C4X       225.8120  254.4720  238.9370 C.3       1 COO802      0.0000 
     16 O4X       226.4970  255.5270  239.6130 O.3       1 COO802      0.0000 
     17 C3X       226.3810  253.1520  239.4330 C.3       1 COO802      0.0000 
     18 O3X       227.2110  252.5630  238.4370 O.3       1 COO802      0.0000 
     19 P3X       226.6150  251.7770  237.1630 P.3       1 COO802      0.0000 
     20 O9A       225.1110  251.6900  237.2670 O.co2     1 COO802      0.0000 
     21 O7A       227.2050  250.3880  237.1330 O.co2     1 COO802      0.0000 
     22 O8A       227.0130  252.5260  235.9150 O.co2     1 COO802      0.0000 
     23 C2X       227.2460  253.5100  240.6240 C.3       1 COO802      0.0000 
     24 O2X       228.5270  252.8860  240.5020 O.3       1 COO802      0.0000 
     25 C1X       227.4020  255.0220  240.5970 C.3       1 COO802      0.0000 
     26 N9A       227.1210  255.5790  241.9500 N.pl3     1 COO802      0.0000 
     27 C8A       227.7090  255.1430  243.0810 C.2       1 COO802      0.0000 
     28 N7A       227.2680  255.8260  244.1660 N.2       1 COO802      0.0000 
     29 C5A       226.3680  256.7260  243.7350 C.ar      1 COO802      0.0000 
     30 C4A       226.2690  256.5630  242.2750 C.ar      1 COO802      0.0000 
     31 N3A       225.4130  257.3720  241.6030 N.ar      1 COO802      0.0000 
     32 C2A       224.6730  258.2960  242.2390 C.ar      1 COO802      0.0000 
     33 N1A       224.7140  258.4960  243.5670 N.ar      1 COO802      0.0000 
     34 C6A       225.5210  257.7650  244.3660 C.ar      1 COO802      0.0000 
     35 N6A       225.5570  257.9730  245.7030 N.pl3     1 COO802      0.0000 
     36 O1        216.2620  257.7680  236.5880 O.3       1 COO802      0.0000 
     37 C1        216.4800  259.5380  238.1690 C.2       1 COO802      0.0000 
     38 O2        216.2580  260.2970  237.2400 O.2       1 COO802      0.0000 
     39 N1        216.4920  259.9500  239.4340 N.am      1 COO802      0.0000 
     40 C2        216.3330  261.3460  239.7850 C.3       1 COO802      0.0000 
     41 C3        217.4730  261.8310  240.6700 C.3       1 COO802      0.0000 
     42 C4        217.1570  263.2130  241.1860 C.2       1 COO802      0.0000 
     43 O3        216.9880  263.4030  242.3780 O.2       1 COO802      0.0000 
     44 N2        217.0710  264.1820  240.2800 N.am      1 COO802      0.0000 
     45 C5        216.7800  265.5470  240.6660 C.3       1 COO802      0.0000 
     46 C6        217.8060  266.5240  240.1070 C.3       1 COO802      0.0000 
     47 S1        217.3930  268.1630  240.6010 S.3       1 COO802      0.0000 
     48 C7        218.5260  269.0150  239.7300 C.2       1 COO802      0.0000 
     49 O4        219.5110  268.4430  239.2970 O.2       1 COO802      0.0000 
     50 C8        218.3320  270.4540  239.4800 C.2       1 COO802      0.0000 
     51 C9        219.3800  271.2260  239.2130 C.2       1 COO802      0.0000 
     52 C10       219.1770  272.7000  238.9600 C.3       1 COO802      0.0000 
     53 C15       218.4700  257.2440  239.4980 C.3       1 COO802      0.0000 
@<TRIPOS>BOND
     1    1    2 1    
     2    1   36 1    
     3    1   37 1    
     4    2    3 1    
     5    2    4 1    
     6    2   53 1    
     7    4    5 1    
     8    5    6 1    
     9    6    7 ar   
    10    6    8 ar   
    11    6    9 1    
    12    9   10 1    
    13   10   11 ar   
    14   10   12 ar   
    15   10   13 1    
    16   13   14 1    
    17   14   15 1    
    18   15   16 1    
    19   15   17 1    
    20   16   25 1    
    21   17   18 1    
    22   17   23 1    
    23   18   19 1    
    24   19   20 ar   
    25   19   21 ar   
    26   19   22 ar   
    27   23   24 1    
    28   23   25 1    
    29   25   26 1    
    30   26   27 1    
    31   26   30 1    
    32   27   28 2    
    33   28   29 1    
    34   29   30 ar   
    35   29   34 ar   
    36   30   31 ar   
    37   31   32 ar   
    38   32   33 ar   
    39   33   34 ar   
    40   34   35 1    
    41   37   38 2    
    42   37   39 am   
    43   39   40 1    
    44   40   41 1    
    45   41   42 1    
    46   42   43 2    
    47   42   44 am   
    48   44   45 1    
    49   45   46 1    
    50   46   47 1    
    51   47   48 1    
    52   48   49 2    
    53   48   50 1    
    54   50   51 2    
    55   51   52 1    
@<TRIPOS>SUBSTRUCTURE
     1 COO802      1 GROUP   
@<TRIPOS>SET

