#    Name: 6jqo_7_NAP
#    Modification time : Fri May 22 19:31:12 2020

@<TRIPOS>MOLECULE
6jqo_7_NAP
   48    52     1     0     1
SMALL
NO_CHARGES


@<TRIPOS>ATOM
      1 PA        230.9430  287.5320  198.4280 P.3       1 NAP801      0.0000 
      2 O1A       231.4390  287.8690  199.8100 O.co2     1 NAP801      0.0000 
      3 O2A       231.4410  288.5460  197.4290 O.co2     1 NAP801      0.0000 
      4 O5B       229.3400  287.5580  198.4250 O.3       1 NAP801      0.0000 
      5 C5B       228.5750  286.4110  198.7780 C.3       1 NAP801      0.0000 
      6 C4B       227.0850  286.7260  198.7290 C.3       1 NAP801      0.0000 
      7 O4B       226.7610  287.7460  199.6730 O.3       1 NAP801      0.0000 
      8 C3B       226.6530  287.2370  197.3700 C.3       1 NAP801      0.0000 
      9 O3B       225.4320  286.5960  197.0090 O.3       1 NAP801      0.0000 
     10 C2B       226.4050  288.7120  197.5820 C.3       1 NAP801      0.0000 
     11 O2B       225.3920  289.2040  196.7150 O.3       1 NAP801      0.0000 
     12 C1B       226.0030  288.7740  199.0410 C.3       1 NAP801      0.0000 
     13 N9A       226.3650  290.0720  199.6490 N.pl3     1 NAP801      0.0000 
     14 C8A       227.5060  290.7560  199.4600 C.2       1 NAP801      0.0000 
     15 N7A       227.5090  291.9050  200.1800 N.2       1 NAP801      0.0000 
     16 C5A       226.3460  291.9570  200.8510 C.ar      1 NAP801      0.0000 
     17 C6A       225.6980  292.8910  201.7940 C.ar      1 NAP801      0.0000 
     18 N6A       226.3140  294.0330  202.1740 N.pl3     1 NAP801      0.0000 
     19 N1A       224.4730  292.5640  202.2600 N.ar      1 NAP801      0.0000 
     20 C2A       223.8480  291.4320  201.8910 C.ar      1 NAP801      0.0000 
     21 N3A       224.3780  290.5410  201.0390 N.ar      1 NAP801      0.0000 
     22 C4A       225.5990  290.7460  200.5000 C.ar      1 NAP801      0.0000 
     23 O3        231.4760  286.0790  197.9970 O.3       1 NAP801      0.0000 
     24 PN        231.4380  285.5760  196.4700 P.3       1 NAP801      0.0000 
     25 O1N       230.0910  285.8720  195.8650 O.co2     1 NAP801      0.0000 
     26 O2N       232.5220  286.2780  195.6940 O.co2     1 NAP801      0.0000 
     27 O5D       231.7130  283.9910  196.4200 O.3       1 NAP801      0.0000 
     28 C5D       233.0390  283.4710  196.3340 C.3       1 NAP801      0.0000 
     29 C4D       233.6550  283.2620  197.7090 C.3       1 NAP801      0.0000 
     30 O4D       232.8350  282.3700  198.4660 O.3       1 NAP801      0.0000 
     31 C3D       235.0170  282.6070  197.5990 C.3       1 NAP801      0.0000 
     32 O3D       235.8930  283.1830  198.5670 O.3       1 NAP801      0.0000 
     33 C2D       234.7610  281.1630  197.9550 C.3       1 NAP801      0.0000 
     34 O2D       235.8980  280.5930  198.5990 O.3       1 NAP801      0.0000 
     35 C1D       233.5930  281.2450  198.9120 C.3       1 NAP801      0.0000 
     36 N1N       232.7740  280.0390  198.8410 N.pl3     1 NAP801      0.0000 
     37 C2N       232.7180  279.1980  199.8780 C.ar      1 NAP801      0.0000 
     38 C3N       231.9380  278.0510  199.8230 C.ar      1 NAP801      0.0000 
     39 C7N       231.8700  277.1110  200.9840 C.2       1 NAP801      0.0000 
     40 O7N       232.6120  277.2670  201.9340 O.2       1 NAP801      0.0000 
     41 N7N       230.9750  276.1300  200.9450 N.am      1 NAP801      0.0000 
     42 C4N       231.2060  277.7520  198.6890 C.ar      1 NAP801      0.0000 
     43 C5N       231.2330  278.5980  197.5960 C.ar      1 NAP801      0.0000 
     44 C6N       232.0260  279.8150  197.6080 C.ar      1 NAP801      0.0000 
     45 P2B       225.7850  290.2910  195.5980 P.3       1 NAP801      0.0000 
     46 O1X       226.5470  289.6070  194.4920 O.co2     1 NAP801      0.0000 
     47 O2X       224.5210  290.9140  195.0680 O.co2     1 NAP801      0.0000 
     48 O3X       226.6460  291.3500  196.2360 O.co2     1 NAP801      0.0000 
@<TRIPOS>BOND
     1    1    2 ar   
     2    1    3 ar   
     3    1    4 1    
     4    1   23 1    
     5    4    5 1    
     6    5    6 1    
     7    6    7 1    
     8    6    8 1    
     9    7   12 1    
    10    8    9 1    
    11    8   10 1    
    12   10   11 1    
    13   10   12 1    
    14   11   45 1    
    15   12   13 1    
    16   13   14 1    
    17   13   22 1    
    18   14   15 2    
    19   15   16 1    
    20   16   17 ar   
    21   16   22 ar   
    22   17   18 1    
    23   17   19 ar   
    24   19   20 ar   
    25   20   21 ar   
    26   21   22 ar   
    27   23   24 1    
    28   24   25 ar   
    29   24   26 ar   
    30   24   27 1    
    31   27   28 1    
    32   28   29 1    
    33   29   30 1    
    34   29   31 1    
    35   30   35 1    
    36   31   32 1    
    37   31   33 1    
    38   33   34 1    
    39   33   35 1    
    40   35   36 1    
    41   36   37 ar   
    42   36   44 ar   
    43   37   38 ar   
    44   38   39 1    
    45   38   42 ar   
    46   39   40 2    
    47   39   41 am   
    48   42   43 ar   
    49   43   44 ar   
    50   45   46 ar   
    51   45   47 ar   
    52   45   48 ar   
@<TRIPOS>SUBSTRUCTURE
     1 NAP801      1 GROUP   
@<TRIPOS>SET
ATOM$ORANGE STATIC     ATOMS   COLORGROUP SYSTEM 
42 5 5 6 6 8 8 10 10 12 12 14 14 16 16 17 17 20 \
20 22 22 28 28 29 29 31 31 33 33 35 35 37 37 38 38 39 \
39 42 42 43 43 44 44 

