#    Name: 6jqo_11_NAP
#    Modification time : Fri May 22 19:31:48 2020

@<TRIPOS>MOLECULE
6jqo_11_NAP
   48    52     1     0     1
SMALL
NO_CHARGES


@<TRIPOS>ATOM
      1 PA        142.4870  192.0330  198.4660 P.3       1 NAP801      0.0000 
      2 O1A       142.0660  192.2450  199.8960 O.co2     1 NAP801      0.0000 
      3 O2A       141.2810  191.9840  197.5630 O.co2     1 NAP801      0.0000 
      4 O5B       143.2800  190.6420  198.3480 O.3       1 NAP801      0.0000 
      5 C5B       144.6550  190.5350  198.7030 C.3       1 NAP801      0.0000 
      6 C4B       145.1260  189.0860  198.6540 C.3       1 NAP801      0.0000 
      7 O4B       144.4160  188.3060  199.6150 O.3       1 NAP801      0.0000 
      8 C3B       144.8900  188.4320  197.3060 C.3       1 NAP801      0.0000 
      9 O3B       146.0440  187.6690  196.9570 O.3       1 NAP801      0.0000 
     10 C2B       143.7200  187.5040  197.5380 C.3       1 NAP801      0.0000 
     11 O2B       143.7460  186.3690  196.6800 O.3       1 NAP801      0.0000 
     12 C1B       143.8690  187.1410  199.0000 C.3       1 NAP801      0.0000 
     13 N9A       142.5510  186.8590  199.6030 N.pl3     1 NAP801      0.0000 
     14 C8A       141.4190  187.5480  199.3880 C.2       1 NAP801      0.0000 
     15 N7A       140.3900  187.0300  200.1000 N.2       1 NAP801      0.0000 
     16 C5A       140.8730  185.9860  200.7930 C.ar      1 NAP801      0.0000 
     17 C6A       140.3290  184.9950  201.7430 C.ar      1 NAP801      0.0000 
     18 N6A       139.0240  185.0210  202.1000 N.pl3     1 NAP801      0.0000 
     19 N1A       141.1750  184.0660  202.2370 N.ar      1 NAP801      0.0000 
     20 C2A       142.4730  184.0300  201.8880 C.ar      1 NAP801      0.0000 
     21 N3A       143.0330  184.8980  201.0310 N.ar      1 NAP801      0.0000 
     22 C4A       142.2980  185.8800  200.4650 C.ar      1 NAP801      0.0000 
     23 O3        143.4280  193.2520  198.0070 O.3       1 NAP801      0.0000 
     24 PN        143.8230  193.5040  196.4700 P.3       1 NAP801      0.0000 
     25 O1N       144.3640  192.2390  195.8570 O.co2     1 NAP801      0.0000 
     26 O2N       142.6030  193.9700  195.7180 O.co2     1 NAP801      0.0000 
     27 O5D       144.9550  194.6440  196.3990 O.3       1 NAP801      0.0000 
     28 C5D       144.6110  196.0270  196.3590 C.3       1 NAP801      0.0000 
     29 C4D       144.6090  196.6470  197.7460 C.3       1 NAP801      0.0000 
     30 O4D       145.8250  196.3220  198.4210 O.3       1 NAP801      0.0000 
     31 C3D       144.5580  198.1590  197.6530 C.3       1 NAP801      0.0000 
     32 O3D       143.6380  198.6580  198.6230 O.3       1 NAP801      0.0000 
     33 C2D       145.9550  198.6070  198.0100 C.3       1 NAP801      0.0000 
     34 O2D       145.9230  199.8550  198.7010 O.3       1 NAP801      0.0000 
     35 C1D       146.4530  197.5040  198.9170 C.3       1 NAP801      0.0000 
     36 N1N       147.9040  197.3690  198.8280 N.pl3     1 NAP801      0.0000 
     37 C2N       148.6830  197.7640  199.8400 C.ar      1 NAP801      0.0000 
     38 C3N       150.0630  197.6390  199.7730 C.ar      1 NAP801      0.0000 
     39 C7N       150.9350  198.0800  200.9060 C.2       1 NAP801      0.0000 
     40 O7N       150.4580  198.7110  201.8300 O.2       1 NAP801      0.0000 
     41 N7N       152.2240  197.7540  200.8750 N.am      1 NAP801      0.0000 
     42 C4N       150.6620  197.1020  198.6480 C.ar      1 NAP801      0.0000 
     43 C5N       149.8930  196.6740  197.5820 C.ar      1 NAP801      0.0000 
     44 C6N       148.4430  196.7750  197.6090 C.ar      1 NAP801      0.0000 
     45 P2B       142.5270  186.1460  195.6550 P.3       1 NAP801      0.0000 
     46 O1X       142.5960  187.1930  194.5740 O.co2     1 NAP801      0.0000 
     47 O2X       142.6420  184.7670  195.0630 O.co2     1 NAP801      0.0000 
     48 O3X       141.2300  186.2640  196.4110 O.co2     1 NAP801      0.0000 
@<TRIPOS>BOND
     1    1    2 ar   
     2    1    3 ar   
     3    1    4 1    
     4    1   23 1    
     5    4    5 1    
     6    5    6 1    
     7    6    7 1    
     8    6    8 1    
     9    7   12 1    
    10    8    9 1    
    11    8   10 1    
    12   10   11 1    
    13   10   12 1    
    14   11   45 1    
    15   12   13 1    
    16   13   14 1    
    17   13   22 1    
    18   14   15 2    
    19   15   16 1    
    20   16   17 ar   
    21   16   22 ar   
    22   17   18 1    
    23   17   19 ar   
    24   19   20 ar   
    25   20   21 ar   
    26   21   22 ar   
    27   23   24 1    
    28   24   25 ar   
    29   24   26 ar   
    30   24   27 1    
    31   27   28 1    
    32   28   29 1    
    33   29   30 1    
    34   29   31 1    
    35   30   35 1    
    36   31   32 1    
    37   31   33 1    
    38   33   34 1    
    39   33   35 1    
    40   35   36 1    
    41   36   37 ar   
    42   36   44 ar   
    43   37   38 ar   
    44   38   39 1    
    45   38   42 ar   
    46   39   40 2    
    47   39   41 am   
    48   42   43 ar   
    49   43   44 ar   
    50   45   46 ar   
    51   45   47 ar   
    52   45   48 ar   
@<TRIPOS>SUBSTRUCTURE
     1 NAP801      1 GROUP   
@<TRIPOS>SET
ATOM$ORANGE STATIC     ATOMS   COLORGROUP SYSTEM 
42 5 5 6 6 8 8 10 10 12 12 14 14 16 16 17 17 20 \
20 22 22 28 28 29 29 31 31 33 33 35 35 37 37 38 38 39 \
39 42 42 43 43 44 44 

