#    Name: 6jqo_5_COO
#    Modification time : Fri May 22 19:31:03 2020

@<TRIPOS>MOLECULE
6jqo_5_COO
   53    55     1     0     0
SMALL
NO_CHARGES


@<TRIPOS>ATOM
      1 C13       171.2610  203.9150  195.3130 C.3       1 COO802      0.0000 
      2 C11       171.9340  202.5460  195.1610 C.3       1 COO802      0.0000 
      3 C14       170.9340  201.4060  195.3220 C.3       1 COO802      0.0000 
      4 C12       173.0230  202.4190  196.2220 C.3       1 COO802      0.0000 
      5 O6A       174.1530  201.6730  195.7670 O.3       1 COO802      0.0000 
      6 P2A       174.2760  200.0830  196.0030 P.3       1 COO802      0.0000 
      7 O4A       175.7330  199.7020  196.0950 O.co2     1 COO802      0.0000 
      8 O5A       173.5520  199.7140  197.2750 O.co2     1 COO802      0.0000 
      9 O3A       173.5680  199.3300  194.7700 O.3       1 COO802      0.0000 
     10 P1A       173.8190  197.7700  194.4690 P.3       1 COO802      0.0000 
     11 O2A       174.2280  197.0860  195.7500 O.co2     1 COO802      0.0000 
     12 O1A       172.5470  197.1710  193.9230 O.co2     1 COO802      0.0000 
     13 O5X       174.9890  197.6110  193.3740 O.3       1 COO802      0.0000 
     14 C5X       176.3560  197.4630  193.7520 C.3       1 COO802      0.0000 
     15 C4X       176.6990  195.9820  193.7640 C.3       1 COO802      0.0000 
     16 O4X       175.6860  195.2860  193.0370 O.3       1 COO802      0.0000 
     17 C3X       178.0310  195.7170  193.0820 C.3       1 COO802      0.0000 
     18 O3X       178.8780  194.9270  193.9130 O.3       1 COO802      0.0000 
     19 P3X       179.5210  195.4930  195.2780 P.3       1 COO802      0.0000 
     20 O9A       179.5030  197.0020  195.2640 O.co2     1 COO802      0.0000 
     21 O7A       180.9460  195.0070  195.3690 O.co2     1 COO802      0.0000 
     22 O8A       178.7270  194.9660  196.4490 O.co2     1 COO802      0.0000 
     23 C2X       177.6940  194.9370  191.8280 C.3       1 COO802      0.0000 
     24 O2X       178.5470  193.7960  191.7100 O.3       1 COO802      0.0000 
     25 C1X       176.2520  194.4890  191.9960 C.3       1 COO802      0.0000 
     26 N9A       175.5230  194.6360  190.7060 N.pl3     1 COO802      0.0000 
     27 C8A       175.9400  194.0990  189.5450 C.2       1 COO802      0.0000 
     28 N7A       175.0890  194.3860  188.5300 N.2       1 COO802      0.0000 
     29 C5A       174.0950  195.1300  189.0400 C.ar      1 COO802      0.0000 
     30 C4A       174.3800  195.2970  190.4750 C.ar      1 COO802      0.0000 
     31 N3A       173.5040  196.0200  191.2160 N.ar      1 COO802      0.0000 
     32 C2A       172.4070  196.5720  190.6660 C.ar      1 COO802      0.0000 
     33 N1A       172.0900  196.4580  189.3630 N.ar      1 COO802      0.0000 
     34 C6A       172.8700  195.7660  188.5040 C.ar      1 COO802      0.0000 
     35 N6A       172.5460  195.6550  187.1940 N.pl3     1 COO802      0.0000 
     36 O1        171.2980  204.3110  196.6900 O.3       1 COO802      0.0000 
     37 C1        169.8270  203.9620  194.8470 C.2       1 COO802      0.0000 
     38 O2        168.9210  204.0060  195.6620 O.2       1 COO802      0.0000 
     39 N1        169.5940  203.9780  193.5370 N.am      1 COO802      0.0000 
     40 C2        168.2420  204.0180  193.0180 C.3       1 COO802      0.0000 
     41 C3        167.9050  202.7670  192.2180 C.3       1 COO802      0.0000 
     42 C4        166.4850  202.8620  191.7160 C.2       1 COO802      0.0000 
     43 O3        166.2550  202.9290  190.5210 O.2       1 COO802      0.0000 
     44 N2        165.5300  202.8700  192.6390 N.am      1 COO802      0.0000 
     45 C5        164.1320  202.9970  192.2830 C.3       1 COO802      0.0000 
     46 C6        163.2930  201.8580  192.8460 C.3       1 COO802      0.0000 
     47 S1        161.6240  202.0530  192.3190 S.3       1 COO802      0.0000 
     48 C7        160.9160  200.7600  193.0900 C.2       1 COO802      0.0000 
     49 O4        161.5980  199.8190  193.4530 O.2       1 COO802      0.0000 
     50 C8        159.4650  200.7600  193.3350 C.2       1 COO802      0.0000 
     51 C9        158.8280  199.6110  193.5280 C.2       1 COO802      0.0000 
     52 C10       157.3400  199.6160  193.7790 C.3       1 COO802      0.0000 
     53 C15       172.5800  202.4500  193.7810 C.3       1 COO802      0.0000 
@<TRIPOS>BOND
     1    1    2 1    
     2    1   36 1    
     3    1   37 1    
     4    2    3 1    
     5    2    4 1    
     6    2   53 1    
     7    4    5 1    
     8    5    6 1    
     9    6    7 ar   
    10    6    8 ar   
    11    6    9 1    
    12    9   10 1    
    13   10   11 ar   
    14   10   12 ar   
    15   10   13 1    
    16   13   14 1    
    17   14   15 1    
    18   15   16 1    
    19   15   17 1    
    20   16   25 1    
    21   17   18 1    
    22   17   23 1    
    23   18   19 1    
    24   19   20 ar   
    25   19   21 ar   
    26   19   22 ar   
    27   23   24 1    
    28   23   25 1    
    29   25   26 1    
    30   26   27 1    
    31   26   30 1    
    32   27   28 2    
    33   28   29 1    
    34   29   30 ar   
    35   29   34 ar   
    36   30   31 ar   
    37   31   32 ar   
    38   32   33 ar   
    39   33   34 ar   
    40   34   35 1    
    41   37   38 2    
    42   37   39 am   
    43   39   40 1    
    44   40   41 1    
    45   41   42 1    
    46   42   43 2    
    47   42   44 am   
    48   44   45 1    
    49   45   46 1    
    50   46   47 1    
    51   47   48 1    
    52   48   49 2    
    53   48   50 1    
    54   50   51 2    
    55   51   52 1    
@<TRIPOS>SUBSTRUCTURE
     1 COO802      1 GROUP   
@<TRIPOS>SET

