#    Name: 6jqo_12_NAP
#    Modification time : Fri May 22 19:31:57 2020

@<TRIPOS>MOLECULE
6jqo_12_NAP
   48    52     1     0     1
SMALL
NO_CHARGES


@<TRIPOS>ATOM
      1 PA        144.7810  185.5070  234.6680 P.3       1 NAP801      0.0000 
      2 O1A       144.3350  184.5480  233.5970 O.co2     1 NAP801      0.0000 
      3 O2A       144.0360  185.2540  235.9530 O.co2     1 NAP801      0.0000 
      4 O5B       144.4900  187.0060  234.1720 O.3       1 NAP801      0.0000 
      5 C5B       145.5390  187.9610  234.0650 C.3       1 NAP801      0.0000 
      6 C4B       144.9540  189.3680  234.0780 C.3       1 NAP801      0.0000 
      7 O4B       143.8840  189.4830  233.1370 O.3       1 NAP801      0.0000 
      8 C3B       144.3690  189.7110  235.4330 C.3       1 NAP801      0.0000 
      9 O3B       144.8060  191.0130  235.8170 O.3       1 NAP801      0.0000 
     10 C2B       142.8740  189.7230  235.2130 C.3       1 NAP801      0.0000 
     11 O2B       142.2470  190.6670  236.0710 O.3       1 NAP801      0.0000 
     12 C1B       142.7570  190.1070  233.7530 C.3       1 NAP801      0.0000 
     13 N9A       141.5020  189.5970  233.1490 N.pl3     1 NAP801      0.0000 
     14 C8A       140.9810  188.3710  233.3210 C.2       1 NAP801      0.0000 
     15 N7A       139.8270  188.2280  232.6240 N.2       1 NAP801      0.0000 
     16 C5A       139.5980  189.3870  231.9830 C.ar      1 NAP801      0.0000 
     17 C6A       138.5590  189.9200  231.0740 C.ar      1 NAP801      0.0000 
     18 N6A       137.5030  189.1600  230.7020 N.pl3     1 NAP801      0.0000 
     19 N1A       138.7010  191.1880  230.6310 N.ar      1 NAP801      0.0000 
     20 C2A       139.7440  191.9540  230.9920 C.ar      1 NAP801      0.0000 
     21 N3A       140.7200  191.5350  231.8130 N.ar      1 NAP801      0.0000 
     22 C4A       140.7050  190.2850  232.3320 C.ar      1 NAP801      0.0000 
     23 O3        146.3530  185.3000  234.9190 O.3       1 NAP801      0.0000 
     24 PN        146.9330  185.1720  236.4120 P.3       1 NAP801      0.0000 
     25 O1N       146.4870  186.3690  237.2080 O.co2     1 NAP801      0.0000 
     26 O2N       146.4200  183.9030  237.0410 O.co2     1 NAP801      0.0000 
     27 O5D       148.5410  185.1310  236.3890 O.3       1 NAP801      0.0000 
     28 C5D       149.2510  183.8970  236.4820 C.3       1 NAP801      0.0000 
     29 C4D       149.6600  183.3990  235.1030 C.3       1 NAP801      0.0000 
     30 O4D       150.3930  184.4230  234.4310 O.3       1 NAP801      0.0000 
     31 C3D       150.5790  182.1970  235.1930 C.3       1 NAP801      0.0000 
     32 O3D       150.1650  181.2310  234.2270 O.3       1 NAP801      0.0000 
     33 C2D       151.9440  182.7330  234.8300 C.3       1 NAP801      0.0000 
     34 O2D       152.6970  181.7500  234.1210 O.3       1 NAP801      0.0000 
     35 C1D       151.6250  183.9070  233.9300 C.3       1 NAP801      0.0000 
     36 N1N       152.6580  184.9350  233.9950 N.pl3     1 NAP801      0.0000 
     37 C2N       153.4760  185.1180  232.9560 C.ar      1 NAP801      0.0000 
     38 C3N       154.4640  186.0890  232.9880 C.ar      1 NAP801      0.0000 
     39 C7N       155.3740  186.2820  231.8190 C.2       1 NAP801      0.0000 
     40 O7N       155.3820  185.4620  230.9200 O.2       1 NAP801      0.0000 
     41 N7N       156.1470  187.3620  231.7950 N.am      1 NAP801      0.0000 
     42 C4N       154.6260  186.8900  234.1040 C.ar      1 NAP801      0.0000 
     43 C5N       153.7940  186.7370  235.1980 C.ar      1 NAP801      0.0000 
     44 C6N       152.7380  185.7380  235.2100 C.ar      1 NAP801      0.0000 
     45 P2B       141.3990  190.1500  237.3350 P.3       1 NAP801      0.0000 
     46 O1X       142.3070  189.3450  238.2300 O.co2     1 NAP801      0.0000 
     47 O2X       140.8560  191.3410  238.0810 O.co2     1 NAP801      0.0000 
     48 O3X       140.2600  189.2870  236.8570 O.co2     1 NAP801      0.0000 
@<TRIPOS>BOND
     1    1    2 ar   
     2    1    3 ar   
     3    1    4 1    
     4    1   23 1    
     5    4    5 1    
     6    5    6 1    
     7    6    7 1    
     8    6    8 1    
     9    7   12 1    
    10    8    9 1    
    11    8   10 1    
    12   10   11 1    
    13   10   12 1    
    14   11   45 1    
    15   12   13 1    
    16   13   14 1    
    17   13   22 1    
    18   14   15 2    
    19   15   16 1    
    20   16   17 ar   
    21   16   22 ar   
    22   17   18 1    
    23   17   19 ar   
    24   19   20 ar   
    25   20   21 ar   
    26   21   22 ar   
    27   23   24 1    
    28   24   25 ar   
    29   24   26 ar   
    30   24   27 1    
    31   27   28 1    
    32   28   29 1    
    33   29   30 1    
    34   29   31 1    
    35   30   35 1    
    36   31   32 1    
    37   31   33 1    
    38   33   34 1    
    39   33   35 1    
    40   35   36 1    
    41   36   37 ar   
    42   36   44 ar   
    43   37   38 ar   
    44   38   39 1    
    45   38   42 ar   
    46   39   40 2    
    47   39   41 am   
    48   42   43 ar   
    49   43   44 ar   
    50   45   46 ar   
    51   45   47 ar   
    52   45   48 ar   
@<TRIPOS>SUBSTRUCTURE
     1 NAP801      1 GROUP   
@<TRIPOS>SET
ATOM$ORANGE STATIC     ATOMS   COLORGROUP SYSTEM 
42 5 5 6 6 8 8 10 10 12 12 14 14 16 16 17 17 20 \
20 22 22 28 28 29 29 31 31 33 33 35 35 37 37 38 38 39 \
39 42 42 43 43 44 44 

