#    Name: 6dcu_2_NZA
#    Modification time : Fri May 22 19:24:15 2020

@<TRIPOS>MOLECULE
6dcu_2_NZA
   28    31     1     0     0
SMALL
NO_CHARGES


@<TRIPOS>ATOM
      1 CAM        -3.0030  -28.9190   40.5490 C.ar      1 NZA501      0.0000 
      2 CAJ        -1.6720  -28.9110   40.1620 C.ar      1 NZA501      0.0000 
      3 CAT        -1.2890  -28.2390   39.0120 C.ar      1 NZA501      0.0000 
      4 CLAC        0.4210  -28.2250   38.5090 Cl        1 NZA501      0.0000 
      5 CAK        -2.2320  -27.5780   38.2460 C.ar      1 NZA501      0.0000 
      6 CAN        -3.5600  -27.5840   38.6340 C.ar      1 NZA501      0.0000 
      7 CAV        -3.9490  -28.2600   39.7800 C.ar      1 NZA501      0.0000 
      8 CAQ        -5.4170  -28.2600   40.2020 C.3       1 NZA501      0.0000 
      9 NBB        -6.1330  -29.3950   39.6450 N.pl3     1 NZA501      0.0000 
     10 CAY        -6.2790  -29.5220   38.3000 C.2       1 NZA501      0.0000 
     11 CAS        -5.8810  -28.7920   37.0190 C.2       1 NZA501      0.0000 
     12 OAB        -6.5540  -27.8170   36.5980 O.co2     1 NZA501      0.0000 
     13 OAA        -4.8640  -29.1700   36.3800 O.co2     1 NZA501      0.0000 
     14 CBA        -6.7660  -30.4630   40.2380 C.ar      1 NZA501      0.0000 
     15 CAO        -6.9350  -30.8350   41.5830 C.ar      1 NZA501      0.0000 
     16 CAL        -7.6340  -31.9910   41.8980 C.ar      1 NZA501      0.0000 
     17 CAU        -8.1630  -32.7820   40.8970 C.ar      1 NZA501      0.0000 
     18 CLAD       -9.0350  -34.2410   41.4430 Cl        1 NZA501      0.0000 
     19 CAP        -8.0010  -32.4190   39.5720 C.ar      1 NZA501      0.0000 
     20 CAZ        -7.2920  -31.2480   39.2500 C.ar      1 NZA501      0.0000 
     21 CAX        -6.9910  -30.6720   38.0540 C.2       1 NZA501      0.0000 
     22 SAR        -7.5390  -31.4390   36.5050 S.3       1 NZA501      0.0000 
     23 CAW        -9.3400  -31.2270   36.3860 C.ar      1 NZA501      0.0000 
     24 CAH       -10.0670  -30.8630   37.5090 C.ar      1 NZA501      0.0000 
     25 CAF       -11.4380  -30.7000   37.4260 C.ar      1 NZA501      0.0000 
     26 CAE       -12.0880  -30.8980   36.2190 C.ar      1 NZA501      0.0000 
     27 CAG       -11.3630  -31.2600   35.0950 C.ar      1 NZA501      0.0000 
     28 CAI        -9.9890  -31.4240   35.1780 C.ar      1 NZA501      0.0000 
@<TRIPOS>BOND
     1   10   21 2    
     2   11   12 ar   
     3   11   13 ar   
     4   14   15 ar   
     5   14   20 ar   
     6   15   16 ar   
     7   16   17 ar   
     8   17   18 1    
     9   17   19 ar   
    10   19   20 ar   
    11   20   21 1    
    12   21   22 1    
    13   22   23 1    
    14   23   24 ar   
    15   23   28 ar   
    16   24   25 ar   
    17   25   26 ar   
    18   26   27 ar   
    19   27   28 ar   
    20    1    2 ar   
    21    1    7 ar   
    22    2    3 ar   
    23    3    4 1    
    24    3    5 ar   
    25    5    6 ar   
    26    6    7 ar   
    27    7    8 1    
    28    8    9 1    
    29    9   10 1    
    30    9   14 1    
    31   10   11 1    
@<TRIPOS>SUBSTRUCTURE
     1 NZA501      1 GROUP   
@<TRIPOS>SET

