#    Name: 6dcu_1_NZA
#    Modification time : Fri May 22 19:24:11 2020

@<TRIPOS>MOLECULE
6dcu_1_NZA
   28    31     1     0     0
SMALL
NO_CHARGES


@<TRIPOS>ATOM
      1 CAM        -3.3090  -25.4680   12.2530 C.ar      1 NZA501      0.0000 
      2 CAJ        -1.9610  -25.3050   11.9770 C.ar      1 NZA501      0.0000 
      3 CAT        -1.0920  -26.3770   12.1040 C.ar      1 NZA501      0.0000 
      4 CLAC        0.6440  -26.1670   11.7480 Cl        1 NZA501      0.0000 
      5 CAK        -1.5710  -27.6130   12.5070 C.ar      1 NZA501      0.0000 
      6 CAN        -2.9200  -27.7760   12.7830 C.ar      1 NZA501      0.0000 
      7 CAV        -3.7900  -26.7030   12.6610 C.ar      1 NZA501      0.0000 
      8 CAQ        -5.2730  -26.9140   12.9680 C.3       1 NZA501      0.0000 
      9 NBB        -5.9420  -25.6710   13.3020 N.pl3     1 NZA501      0.0000 
     10 CAY        -6.2350  -25.3730   14.5940 C.2       1 NZA501      0.0000 
     11 CAS        -6.0390  -26.0350   15.9610 C.2       1 NZA501      0.0000 
     12 OAB        -6.7170  -25.6820   16.9610 O.co2     1 NZA501      0.0000 
     13 OAA        -5.2010  -26.9660   16.0830 O.co2     1 NZA501      0.0000 
     14 CBA        -6.4020  -24.6530   12.5130 C.ar      1 NZA501      0.0000 
     15 CAO        -6.3460  -24.4780   11.1210 C.ar      1 NZA501      0.0000 
     16 CAL        -6.8780  -23.3400   10.5490 C.ar      1 NZA501      0.0000 
     17 CAU        -7.4610  -22.3760   11.3520 C.ar      1 NZA501      0.0000 
     18 CLAD       -8.1020  -20.9680   10.4630 Cl        1 NZA501      0.0000 
     19 CAP        -7.5160  -22.5450   12.7310 C.ar      1 NZA501      0.0000 
     20 CAZ        -6.9730  -23.7060   13.3170 C.ar      1 NZA501      0.0000 
     21 CAX        -6.8820  -24.1500   14.6110 C.2       1 NZA501      0.0000 
     22 SAR        -7.5320  -23.1490   15.9850 S.3       1 NZA501      0.0000 
     23 CAW        -9.3450  -23.1760   16.1170 C.ar      1 NZA501      0.0000 
     24 CAH       -10.1380  -23.1690   14.9800 C.ar      1 NZA501      0.0000 
     25 CAF       -11.5180  -23.1860   15.1000 C.ar      1 NZA501      0.0000 
     26 CAE       -12.1080  -23.2090   16.3540 C.ar      1 NZA501      0.0000 
     27 CAG       -11.3170  -23.2130   17.4900 C.ar      1 NZA501      0.0000 
     28 CAI        -9.9360  -23.1970   17.3710 C.ar      1 NZA501      0.0000 
@<TRIPOS>BOND
     1    1    2 ar   
     2    1    7 ar   
     3    2    3 ar   
     4    3    4 1    
     5    3    5 ar   
     6    5    6 ar   
     7    6    7 ar   
     8    7    8 1    
     9    8    9 1    
    10    9   10 1    
    11    9   14 1    
    12   10   11 1    
    13   10   21 2    
    14   11   12 ar   
    15   11   13 ar   
    16   14   15 ar   
    17   14   20 ar   
    18   15   16 ar   
    19   16   17 ar   
    20   17   18 1    
    21   17   19 ar   
    22   19   20 ar   
    23   20   21 1    
    24   21   22 1    
    25   22   23 1    
    26   23   24 ar   
    27   23   28 ar   
    28   24   25 ar   
    29   25   26 ar   
    30   26   27 ar   
    31   27   28 ar   
@<TRIPOS>SUBSTRUCTURE
     1 NZA501      1 GROUP   
@<TRIPOS>SET

