#    Name: 6j1f_3_COA_CAVITY_N1_4
#    Modification time : Fri May 22 19:33:11 2020

@<TRIPOS>MOLECULE
6j1f_3_COA_CAVITY_N1_4
  171     0     6     0     0
SMALL
NO_CHARGES


@<TRIPOS>ATOM
      1 OG         16.9300   -3.0000   59.4300 O.3       1 SER1        0.0000 
      2 OG         17.8500   -4.1400   59.1100 O.3       1 SER1        0.0000 
      3 OG         17.1800   -4.9700   60.1600 O.3       1 SER1        0.0000 
      4 OG         17.2400   -3.3300   61.5000 O.3       1 SER1        0.0000 
      5 OG         18.1600   -4.4700   61.1800 O.3       1 SER1        0.0000 
      6 OG         19.7400   -4.7900   59.8100 O.3       1 SER1        0.0000 
      7 OG         19.0700   -5.6200   60.8600 O.3       1 SER1        0.0000 
      8 OG         18.2300   -2.8300   62.5200 O.3       1 SER1        0.0000 
      9 OG         19.1400   -3.9700   62.2000 O.3       1 SER1        0.0000 
     10 OG         20.0600   -5.1200   61.8800 O.3       1 SER1        0.0000 
     11 N          12.8100   -9.9200   51.3300 N.am      2 ALA2        0.0000 
     12 N          13.7900   -9.4200   52.3500 N.am      2 ALA2        0.0000 
     13 N          14.7000  -10.5600   52.0300 N.am      2 ALA2        0.0000 
     14 N          14.0300  -11.4000   53.0800 N.am      2 ALA2        0.0000 
     15 N          13.3600  -12.2300   54.1400 N.am      2 ALA2        0.0000 
     16 N          14.2800  -13.3700   53.8200 N.am      2 ALA2        0.0000 
     17 O          12.9400  -15.0400   55.9200 O.2       2 ALA2        0.0000 
     18 O          12.2700  -15.8700   56.9800 O.2       2 ALA2        0.0000 
     19 O          13.0000  -13.3900   57.2600 O.2       2 ALA2        0.0000 
     20 O          12.3300  -14.2200   58.3200 O.2       2 ALA2        0.0000 
     21 N          15.2600  -12.8700   54.8400 N.am      2 ALA2        0.0000 
     22 N          14.5900  -13.7100   55.8900 N.am      2 ALA2        0.0000 
     23 O          13.2500  -15.3700   57.9900 O.2       2 ALA2        0.0000 
     24 O          12.7600   -3.0100   54.6200 O.2       2 ALA2        0.0000 
     25 N          12.0900   -3.8500   55.6800 N.am      2 ALA2        0.0000 
     26 N          13.6800   -4.1600   54.3000 N.am      2 ALA2        0.0000 
     27 N          15.7500   -8.4200   54.3900 N.am      2 ALA2        0.0000 
     28 N          16.6700   -9.5700   54.0700 N.am      2 ALA2        0.0000 
     29 O          16.0000  -10.4000   55.1200 O.2       2 ALA2        0.0000 
     30 O          15.3300  -11.2300   56.1800 O.2       2 ALA2        0.0000 
     31 O          13.3100  -13.7300   59.3300 O.2       2 ALA2        0.0000 
     32 N          15.5700  -13.2100   56.9100 N.am      2 ALA2        0.0000 
     33 O          14.2300  -14.8700   59.0100 O.2       2 ALA2        0.0000 
     34 O          15.8100  -15.1800   57.6400 O.2       2 ALA2        0.0000 
     35 N          12.1600   -2.2000   57.0200 N.am      2 ALA2        0.0000 
     36 O          13.7400   -2.5200   55.6400 O.2       2 ALA2        0.0000 
     37 N          12.4000   -4.1800   57.7500 N.am      2 ALA2        0.0000 
     38 N          11.7300   -5.0100   58.8000 N.am      2 ALA2        0.0000 
     39 O          14.6600   -3.6600   55.3200 O.2       2 ALA2        0.0000 
     40 O          14.9000   -5.6400   56.0500 O.2       2 ALA2        0.0000 
     41 O          15.8200   -6.7800   55.7300 O.2       2 ALA2        0.0000 
     42 O          16.9800   -9.9000   56.1400 O.2       2 ALA2        0.0000 
     43 O          16.3100  -10.7300   57.1900 O.2       2 ALA2        0.0000 
     44 O          17.2200  -11.8800   56.8700 O.2       2 ALA2        0.0000 
     45 N          16.5500  -12.7100   57.9300 N.am      2 ALA2        0.0000 
     46 O          15.8800  -13.5400   58.9800 O.2       2 ALA2        0.0000 
     47 O          15.2100  -14.3700   60.0300 O.2       2 ALA2        0.0000 
     48 O          15.6400   -3.1600   56.3400 O.2       2 ALA2        0.0000 
     49 O          15.8900   -5.1400   57.0700 O.2       2 ALA2        0.0000 
     50 O          16.8000   -6.2800   56.7500 O.2       2 ALA2        0.0000 
     51 O          15.9500  -11.9000   60.3200 O.2       2 ALA2        0.0000 
     52 O          16.8600  -13.0400   60.0000 O.2       2 ALA2        0.0000 
     53 O          14.1200   -1.2100   59.0500 O.2       2 ALA2        0.0000 
     54 O          15.7100   -1.5200   57.6800 O.2       2 ALA2        0.0000 
     55 O          15.0400   -2.3500   58.7300 O.2       2 ALA2        0.0000 
     56 O          16.8700   -4.6400   58.0900 O.2       2 ALA2        0.0000 
     57 O          17.7800   -5.7800   57.7700 O.2       2 ALA2        0.0000 
     58 O          14.4300   -1.5400   61.1300 O.2       2 ALA2        0.0000 
     59 O          15.3500   -2.6800   60.8000 O.2       2 ALA2        0.0000 
     60 N          19.4300   -4.4500   57.7300 N.am      2 ALA2        0.0000 
     61 N          18.7600   -5.2800   58.7900 N.am      2 ALA2        0.0000 
     62 N          19.6800   -6.4300   58.4700 N.am      2 ALA2        0.0000 
     63 OD1        11.9800   -6.9900   59.5300 O.co2     3 ASP3        0.0000 
     64 OD1        13.1400  -10.1100   59.9400 O.co2     3 ASP3        0.0000 
     65 OD1        14.0500  -11.2500   59.6200 O.co2     3 ASP3        0.0000 
     66 OD1        14.9700  -12.4000   59.3000 O.co2     3 ASP3        0.0000 
     67 OD1        14.3000  -13.2300   60.3500 O.co2     3 ASP3        0.0000 
     68 OD1        13.8100   -0.8700   56.9800 O.co2     3 ASP3        0.0000 
     69 OD1        13.1400   -1.7000   58.0400 O.co2     3 ASP3        0.0000 
     70 OD1        12.9600   -6.4900   60.5500 O.co2     3 ASP3        0.0000 
     71 OD1        12.2900   -7.3200   61.6000 O.co2     3 ASP3        0.0000 
     72 OD1        13.8700   -7.6300   60.2300 O.co2     3 ASP3        0.0000 
     73 OD1        14.7900   -8.7800   59.9100 O.co2     3 ASP3        0.0000 
     74 OD1        15.0300  -10.7500   60.6400 O.co2     3 ASP3        0.0000 
     75 OD1        17.2900  -10.2300   58.2100 O.co2     3 ASP3        0.0000 
     76 OD1        16.6200  -11.0700   59.2700 O.co2     3 ASP3        0.0000 
     77 OD1        16.6200   -2.6600   57.3600 O.co2     3 ASP3        0.0000 
     78 OD1        13.2700   -6.8200   62.6200 O.co2     3 ASP3        0.0000 
     79 OD1        14.8600   -7.1300   61.2500 O.co2     3 ASP3        0.0000 
     80 OD1        14.1800   -7.9700   62.3000 O.co2     3 ASP3        0.0000 
     81 OD1        15.7700   -8.2800   60.9300 O.co2     3 ASP3        0.0000 
     82 OD1        18.0300   -7.7600   58.5000 O.co2     3 ASP3        0.0000 
     83 OD1        17.3600   -8.5900   59.5500 O.co2     3 ASP3        0.0000 
     84 OD1        16.6900   -9.4200   60.6100 O.co2     3 ASP3        0.0000 
     85 OD1        16.0100  -10.2500   61.6600 O.co2     3 ASP3        0.0000 
     86 OD1        17.6000  -10.5700   60.2800 O.co2     3 ASP3        0.0000 
     87 OD1        15.1700   -7.4700   63.3200 O.co2     3 ASP3        0.0000 
     88 OD1        18.0900   -6.1200   59.8400 O.co2     3 ASP3        0.0000 
     89 OD1        20.6600   -5.9300   59.4800 O.co2     3 ASP3        0.0000 
     90 OD1        19.9900   -6.7600   60.5400 O.co2     3 ASP3        0.0000 
     91 CZ         12.8700   -8.2800   52.6700 C.ar      4 PHE5        0.0000 
     92 CZ         13.1200  -10.2500   53.4100 C.ar      4 PHE5        0.0000 
     93 CZ         12.4500  -11.0800   54.4600 C.ar      4 PHE5        0.0000 
     94 CZ         13.8600   -7.7800   53.6900 C.ar      4 PHE5        0.0000 
     95 CZ         14.7700   -8.9200   53.3700 C.ar      4 PHE5        0.0000 
     96 CZ         14.1000   -9.7500   54.4200 C.ar      4 PHE5        0.0000 
     97 CZ         12.0900  -12.2500   57.5800 C.ar      4 PHE5        0.0000 
     98 CZ         13.6700  -12.5600   56.2100 C.ar      4 PHE5        0.0000 
     99 CZ         13.0100   -4.9900   55.3500 C.ar      4 PHE5        0.0000 
    100 CZ         12.3400   -5.8200   56.4100 C.ar      4 PHE5        0.0000 
    101 CZ         13.9200   -6.1300   55.0300 C.ar      4 PHE5        0.0000 
    102 CZ         14.8400   -7.2800   54.7100 C.ar      4 PHE5        0.0000 
    103 CZ         15.0800   -9.2600   55.4400 C.ar      4 PHE5        0.0000 
    104 CZ         14.4100  -10.0900   56.5000 C.ar      4 PHE5        0.0000 
    105 CZ         13.7400  -10.9200   57.5500 C.ar      4 PHE5        0.0000 
    106 CZ         13.0700  -11.7500   58.6000 C.ar      4 PHE5        0.0000 
    107 CZ         13.3200   -5.3200   57.4300 C.ar      4 PHE5        0.0000 
    108 CZ         12.6500   -6.1500   58.4800 C.ar      4 PHE5        0.0000 
    109 CZ         14.2300   -6.4700   57.1100 C.ar      4 PHE5        0.0000 
    110 CZ         13.5600   -7.3000   58.1600 C.ar      4 PHE5        0.0000 
    111 CZ         15.1500   -7.6100   56.7800 C.ar      4 PHE5        0.0000 
    112 CZ         14.4800   -8.4400   57.8400 C.ar      4 PHE5        0.0000 
    113 CZ         13.8100   -9.2800   58.8900 C.ar      4 PHE5        0.0000 
    114 CZ         16.0600   -8.7600   56.4600 C.ar      4 PHE5        0.0000 
    115 CZ         15.3900   -9.5900   57.5200 C.ar      4 PHE5        0.0000 
    116 CZ         14.7200  -10.4200   58.5700 C.ar      4 PHE5        0.0000 
    117 CZ         17.9600   -9.4000   57.1600 C.ar      4 PHE5        0.0000 
    118 CA         12.1400  -10.7500   52.3900 C.3       5 GLY6        0.0000 
    119 CA         14.4600   -8.5900   51.3000 C.3       5 GLY6        0.0000 
    120 CA         15.3700   -9.7300   50.9800 C.3       5 GLY6        0.0000 
    121 CA         13.6100  -14.2000   54.8700 C.3       5 GLY6        0.0000 
    122 CA         14.5300   -6.9500   52.6400 C.3       5 GLY6        0.0000 
    123 CA         15.4400   -8.0900   52.3200 C.3       5 GLY6        0.0000 
    124 CA         16.3600   -9.2300   52.0000 C.3       5 GLY6        0.0000 
    125 CA         15.6900  -10.0700   53.0500 C.3       5 GLY6        0.0000 
    126 CA         15.0100  -10.9000   54.1000 C.3       5 GLY6        0.0000 
    127 CA         14.3400  -11.7300   55.1600 C.3       5 GLY6        0.0000 
    128 CA         14.8300  -15.6800   56.6200 C.3       5 GLY6        0.0000 
    129 CA         16.4200   -7.5900   53.3400 C.3       5 GLY6        0.0000 
    130 CA         16.7300   -7.9200   55.4100 C.3       5 GLY6        0.0000 
    131 CA         14.7300   -2.0200   56.6600 C.3       5 GLY6        0.0000 
    132 CA         13.3800   -3.6800   58.7700 C.3       5 GLY6        0.0000 
    133 CA         12.7100   -4.5100   59.8200 C.3       5 GLY6        0.0000 
    134 CA         17.7100   -7.4300   56.4300 C.3       5 GLY6        0.0000 
    135 CA         13.4500   -2.0400   60.1100 C.3       5 GLY6        0.0000 
    136 CA         14.3700   -3.1800   59.7900 C.3       5 GLY6        0.0000 
    137 CA         13.7000   -4.0100   60.8400 C.3       5 GLY6        0.0000 
    138 CA         17.6000   -2.1600   58.3800 C.3       5 GLY6        0.0000 
    139 CA         14.2500   -6.3200   63.6400 C.3       5 GLY6        0.0000 
    140 CA         18.5200   -3.3100   58.0600 C.3       5 GLY6        0.0000 
    141 CA         16.3300   -2.1800   61.8200 C.3       5 GLY6        0.0000 
    142 CA         16.1500   -6.9700   64.3400 C.3       5 GLY6        0.0000 
    143 DU         12.6900  -13.0600   55.1900 H         6 CUB7        0.0000 
    144 DU         13.9200  -14.5400   56.9400 H         6 CUB7        0.0000 
    145 DU         14.6600  -12.0600   57.2300 H         6 CUB7        0.0000 
    146 DU         13.9800  -12.8900   58.2800 H         6 CUB7        0.0000 
    147 DU         14.9000  -14.0400   57.9600 H         6 CUB7        0.0000 
    148 DU         13.0700   -3.3500   56.6900 H         6 CUB7        0.0000 
    149 DU         13.9900   -4.4900   56.3700 H         6 CUB7        0.0000 
    150 DU         15.6400  -11.5600   58.2500 H         6 CUB7        0.0000 
    151 DU         14.0600   -2.8500   57.7100 H         6 CUB7        0.0000 
    152 DU         14.9700   -3.9900   57.3900 H         6 CUB7        0.0000 
    153 DU         13.6300   -5.6600   59.5000 H         6 CUB7        0.0000 
    154 DU         15.2100   -5.9700   58.1200 H         6 CUB7        0.0000 
    155 DU         14.5400   -6.8000   59.1800 H         6 CUB7        0.0000 
    156 DU         16.1300   -7.1100   57.8000 H         6 CUB7        0.0000 
    157 DU         15.4600   -7.9500   58.8600 H         6 CUB7        0.0000 
    158 DU         17.0400   -8.2600   57.4800 H         6 CUB7        0.0000 
    159 DU         16.3700   -9.0900   58.5300 H         6 CUB7        0.0000 
    160 DU         15.7000   -9.9200   59.5900 H         6 CUB7        0.0000 
    161 DU         15.9500   -3.4900   58.4100 H         6 CUB7        0.0000 
    162 DU         13.9400   -5.9900   61.5700 H         6 CUB7        0.0000 
    163 DU         16.2000   -5.4700   59.1400 H         6 CUB7        0.0000 
    164 DU         17.1100   -6.6100   58.8200 H         6 CUB7        0.0000 
    165 DU         16.4400   -7.4500   59.8700 H         6 CUB7        0.0000 
    166 DU         14.6800   -3.5100   61.8600 H         6 CUB7        0.0000 
    167 DU         16.2600   -3.8300   60.4800 H         6 CUB7        0.0000 
    168 DU         15.8400   -6.6400   62.2700 H         6 CUB7        0.0000 
    169 DU         16.5700   -4.1600   62.5500 H         6 CUB7        0.0000 
    170 DU         17.4900   -5.3000   62.2300 H         6 CUB7        0.0000 
    171 DU         16.8200   -6.1400   63.2900 H         6 CUB7        0.0000 
@<TRIPOS>BOND
@<TRIPOS>SUBSTRUCTURE
     1 SER1        1 GROUP   
     2 ALA2       11 GROUP   
     3 ASP3       63 GROUP   
     4 PHE5       91 GROUP   
     5 GLY6      118 GROUP   
     6 CUB7      143 GROUP   
@<TRIPOS>SET

