#    Name: 6j1f_1_THG
#    Modification time : Fri May 22 19:32:53 2020

@<TRIPOS>MOLECULE
6j1f_1_THG
   32    34     1     0     0
SMALL
NO_CHARGES


@<TRIPOS>ATOM
      1 N3         -5.3240    7.8400   17.1430 N.am      1 THG602      0.0000 
      2 C2         -6.2300    7.8730   16.0200 C.2       1 THG602      0.0000 
      3 N1         -6.7210    6.7090   15.3820 N.2       1 THG602      0.0000 
      4 C8A        -6.3160    5.4390   15.8470 C.2       1 THG602      0.0000 
      5 C4A        -5.4190    5.3520   16.9530 C.2       1 THG602      0.0000 
      6 C4         -4.9440    6.5830   17.5780 C.2       1 THG602      0.0000 
      7 N8         -6.7930    4.1990   15.2280 N.pl3     1 THG602      0.0000 
      8 C7         -6.8460    3.1440   16.1900 C.3       1 THG602      0.0000 
      9 C6         -5.4300    2.9140   16.6450 C.3       1 THG602      0.0000 
     10 N5         -4.9730    4.0280   17.4800 N.3       1 THG602      0.0000 
     11 C9         -5.3330    1.5900   17.4240 C.3       1 THG602      0.0000 
     12 N10        -3.9300    1.0780   17.3980 N.pl3     1 THG602      0.0000 
     13 C4'        -3.1250    1.0650   16.1360 C.ar      1 THG602      0.0000 
     14 C3'        -1.8340    1.3500   16.1870 C.ar      1 THG602      0.0000 
     15 C2'        -0.9870    1.3420   14.8990 C.ar      1 THG602      0.0000 
     16 C1'        -1.5600    1.0480   13.7400 C.ar      1 THG602      0.0000 
     17 C6'        -3.0470    0.7190   13.6730 C.ar      1 THG602      0.0000 
     18 C5'        -3.7740    0.7210   14.7830 C.ar      1 THG602      0.0000 
     19 C11        -0.7450    1.0300   12.4580 C.2       1 THG602      0.0000 
     20 N          -1.4280    0.9830   11.1700 N.am      1 THG602      0.0000 
     21 CA         -0.6260    0.9660    9.9540 C.3       1 THG602      0.0000 
     22 C          -0.9390    2.1860    9.1220 C.2       1 THG602      0.0000 
     23 OX2        -0.0920    2.6300    8.3110 O.co2     1 THG602      0.0000 
     24 OX1        -2.0500    2.7630    9.2470 O.co2     1 THG602      0.0000 
     25 CB         -0.8930   -0.3230    9.1690 C.3       1 THG602      0.0000 
     26 CG         -0.5360   -1.5510   10.0670 C.3       1 THG602      0.0000 
     27 CD         -1.4140   -2.7600    9.6590 C.2       1 THG602      0.0000 
     28 OE1        -1.1450   -3.4110    8.6060 O.co2     1 THG602      0.0000 
     29 OE2        -2.3940   -3.0900   10.3800 O.co2     1 THG602      0.0000 
     30 O11         0.4370    1.0470   12.5000 O.2       1 THG602      0.0000 
     31 O4         -4.0670    6.4690   18.6610 O.2       1 THG602      0.0000 
     32 N2         -6.6640    9.1750   15.5120 N.pl3     1 THG602      0.0000 
@<TRIPOS>BOND
     1    1    2 1    
     2    1    6 am   
     3    2    3 2    
     4    2   32 1    
     5    3    4 1    
     6    4    5 2    
     7    4    7 1    
     8    5    6 1    
     9    5   10 1    
    10    6   31 2    
    11    7    8 1    
    12    8    9 1    
    13    9   10 1    
    14    9   11 1    
    15   11   12 1    
    16   12   13 1    
    17   13   14 ar   
    18   13   18 ar   
    19   14   15 ar   
    20   15   16 ar   
    21   16   17 ar   
    22   16   19 1    
    23   17   18 ar   
    24   19   20 am   
    25   19   30 2    
    26   20   21 1    
    27   21   22 1    
    28   21   25 1    
    29   22   23 ar   
    30   22   24 ar   
    31   25   26 1    
    32   26   27 1    
    33   27   28 ar   
    34   27   29 ar   
@<TRIPOS>SUBSTRUCTURE
     1 THG602      1 GROUP   
@<TRIPOS>SET

