#    Name: 6j1f_2_COA
#    Modification time : Fri May 22 19:33:01 2020

@<TRIPOS>MOLECULE
6j1f_2_COA
   48    50     1     0     1
SMALL
NO_CHARGES


@<TRIPOS>ATOM
      1 N1A       -16.9260  -22.8590   12.0520 N.ar      1 COA601      0.0000 
      2 C2A       -15.6540  -22.5400   11.6260 C.ar      1 COA601      0.0000 
      3 N3A       -14.9800  -21.4920   12.2210 N.ar      1 COA601      0.0000 
      4 C4A       -15.5850  -20.7920   13.2480 C.ar      1 COA601      0.0000 
      5 C5A       -16.8210  -21.1070   13.6640 C.ar      1 COA601      0.0000 
      6 C6A       -17.5020  -22.1790   13.0560 C.ar      1 COA601      0.0000 
      7 N6A       -18.8040  -22.6920   13.3620 N.pl3     1 COA601      0.0000 
      8 N7A       -17.1620  -20.2620   14.6640 N.2       1 COA601      0.0000 
      9 C8A       -16.1470  -19.4250   14.8670 C.2       1 COA601      0.0000 
     10 N9A       -15.1850  -19.7440   13.9890 N.pl3     1 COA601      0.0000 
     11 C1B       -13.8920  -19.1450   13.7940 C.3       1 COA601      0.0000 
     12 C2B       -13.9290  -17.9350   13.2400 C.3       1 COA601      0.0000 
     13 O2B       -13.8080  -18.0410   11.8050 O.3       1 COA601      0.0000 
     14 C3B       -12.6180  -17.2920   13.7780 C.3       1 COA601      0.0000 
     15 O3B       -11.6230  -17.7830   13.0080 O.3       1 COA601      0.0000 
     16 P3B       -10.0150  -17.2680   13.1030 P.3       1 COA601      0.0000 
     17 O7A        -9.7410  -16.6100   14.4600 O.co2     1 COA601      0.0000 
     18 O8A        -9.1340  -18.5120   12.8740 O.co2     1 COA601      0.0000 
     19 O9A        -9.6840  -16.2190   12.1070 O.co2     1 COA601      0.0000 
     20 C4B       -12.5050  -17.8500   15.2300 C.3       1 COA601      0.0000 
     21 O4B       -13.2250  -18.9500   15.2600 O.3       1 COA601      0.0000 
     22 C5B       -13.0570  -16.8320   16.2170 C.3       1 COA601      0.0000 
     23 O5B       -14.3930  -16.6040   15.8730 O.3       1 COA601      0.0000 
     24 P1A       -14.9590  -15.0580   15.6990 P.3       1 COA601      0.0000 
     25 O1A       -16.0020  -14.9530   14.6380 O.co2     1 COA601      0.0000 
     26 O2A       -13.8710  -14.0310   15.5040 O.co2     1 COA601      0.0000 
     27 O3A       -15.6390  -14.8580   17.1750 O.3       1 COA601      0.0000 
     28 P2A       -16.6720  -13.5720   17.5060 P.3       1 COA601      0.0000 
     29 O4A       -16.7280  -13.4910   19.0380 O.co2     1 COA601      0.0000 
     30 O5A       -16.2210  -12.3090   16.8050 O.co2     1 COA601      0.0000 
     31 O6A       -18.1730  -14.0050   16.9550 O.3       1 COA601      0.0000 
     32 CBP       -19.7630  -15.7810   16.6200 C.3       1 COA601      0.0000 
     33 CCP       -18.7000  -15.1870   17.5560 C.3       1 COA601      0.0000 
     34 CDP       -20.3620  -17.0100   17.2410 C.3       1 COA601      0.0000 
     35 CEP       -20.8590  -14.7620   16.3620 C.3       1 COA601      0.0000 
     36 CAP       -19.0440  -16.1000   15.2840 C.3       1 COA601      0.0000 
     37 OAP       -17.8570  -16.7770   15.5300 O.3       1 COA601      0.0000 
     38 C9P       -19.9570  -16.9980   14.4030 C.2       1 COA601      0.0000 
     39 O9P       -20.9610  -16.5750   13.8570 O.2       1 COA601      0.0000 
     40 N8P       -19.5330  -18.4410   14.2410 N.am      1 COA601      0.0000 
     41 C7P       -20.3490  -19.4000   13.3940 C.3       1 COA601      0.0000 
     42 C6P       -21.3740  -20.1400   14.2630 C.3       1 COA601      0.0000 
     43 C5P       -22.1160  -20.9520   13.1780 C.2       1 COA601      0.0000 
     44 O5P       -22.6920  -20.3550   12.3160 O.2       1 COA601      0.0000 
     45 N4P       -22.0360  -22.3730   13.1600 N.am      1 COA601      0.0000 
     46 C3P       -22.6890  -23.1030   12.0660 C.3       1 COA601      0.0000 
     47 C2P       -24.2250  -23.3210   12.2870 C.3       1 COA601      0.0000 
     48 S1P       -24.4490  -24.5780   13.6280 S.3       1 COA601      0.0000 
@<TRIPOS>BOND
     1    1    2 ar   
     2    1    6 ar   
     3    2    3 ar   
     4    3    4 ar   
     5    4    5 ar   
     6    4   10 1    
     7    5    6 ar   
     8    5    8 1    
     9    6    7 1    
    10    8    9 2    
    11    9   10 1    
    12   10   11 1    
    13   11   12 1    
    14   11   21 1    
    15   12   13 1    
    16   12   14 1    
    17   14   15 1    
    18   14   20 1    
    19   15   16 1    
    20   16   17 ar   
    21   16   18 ar   
    22   16   19 ar   
    23   20   21 1    
    24   20   22 1    
    25   22   23 1    
    26   23   24 1    
    27   24   25 ar   
    28   24   26 ar   
    29   24   27 1    
    30   27   28 1    
    31   28   29 ar   
    32   28   30 ar   
    33   28   31 1    
    34   31   33 1    
    35   32   33 1    
    36   32   34 1    
    37   32   35 1    
    38   32   36 1    
    39   36   37 1    
    40   36   38 1    
    41   38   39 2    
    42   38   40 am   
    43   40   41 1    
    44   41   42 1    
    45   42   43 1    
    46   43   44 2    
    47   43   45 am   
    48   45   46 1    
    49   46   47 1    
    50   47   48 1    
@<TRIPOS>SUBSTRUCTURE
     1 COA601      1 GROUP   
@<TRIPOS>SET
ATOM$ORANGE STATIC     ATOMS   COLORGROUP SYSTEM 
42 2 2 4 4 5 5 6 6 9 9 11 11 12 12 14 14 20 \
20 22 22 32 32 33 33 34 34 35 35 36 36 38 38 41 41 42 \
42 43 43 46 46 47 47 

