#    Name: 6j1f_3_COA
#    Modification time : Fri May 22 19:33:09 2020

@<TRIPOS>MOLECULE
6j1f_3_COA
   48    50     1     0     1
SMALL
NO_CHARGES


@<TRIPOS>ATOM
      1 N1A        13.5880   -8.3680   51.3390 N.ar      1 COA601      0.0000 
      2 C2A        13.8010   -7.0770   51.7460 C.ar      1 COA601      0.0000 
      3 N3A        14.4450   -6.8480   52.9440 N.ar      1 COA601      0.0000 
      4 C4A        14.8610   -7.9040   53.7130 C.ar      1 COA601      0.0000 
      5 C5A        14.6490   -9.1620   53.3040 C.ar      1 COA601      0.0000 
      6 C6A        14.0010   -9.3930   52.0770 C.ar      1 COA601      0.0000 
      7 N6A        13.6830  -10.6320   51.4500 N.pl3     1 COA601      0.0000 
      8 N7A        15.1530  -10.0030   54.2390 N.2       1 COA601      0.0000 
      9 C8A        15.6810   -9.2540   55.2190 C.2       1 COA601      0.0000 
     10 N9A        15.5030   -7.9620   54.9070 N.pl3     1 COA601      0.0000 
     11 C1B        15.8830   -6.7820   55.6420 C.3       1 COA601      0.0000 
     12 C2B        15.1880   -6.6860   56.7740 C.3       1 COA601      0.0000 
     13 O2B        13.9850   -5.9180   56.5940 O.3       1 COA601      0.0000 
     14 C3B        16.1200   -5.9020   57.7320 C.3       1 COA601      0.0000 
     15 O3B        15.8710   -4.6090   57.4650 O.3       1 COA601      0.0000 
     16 P3B        16.7710   -3.2670   57.9720 P.3       1 COA601      0.0000 
     17 O7A        17.7440   -3.6490   59.0690 O.co2     1 COA601      0.0000 
     18 O8A        17.5300   -2.6810   56.7610 O.co2     1 COA601      0.0000 
     19 O9A        15.8290   -2.2020   58.4560 O.co2     1 COA601      0.0000 
     20 C4B        17.5550   -6.3970   57.3180 C.3       1 COA601      0.0000 
     21 O4B        17.4520   -6.9050   56.1030 O.3       1 COA601      0.0000 
     22 C5B        18.0000   -7.4890   58.2860 C.3       1 COA601      0.0000 
     23 O5B        17.0700   -8.5570   58.2680 O.3       1 COA601      0.0000 
     24 P1A        16.3400   -9.0190   59.6990 P.3       1 COA601      0.0000 
     25 O1A        14.9110   -9.4540   59.5190 O.co2     1 COA601      0.0000 
     26 O2A        16.4130   -7.8680   60.6530 O.co2     1 COA601      0.0000 
     27 O3A        17.2590  -10.2610   60.2300 O.3       1 COA601      0.0000 
     28 P2A        16.6960  -11.5060   61.1990 P.3       1 COA601      0.0000 
     29 O4A        17.9030  -12.3850   61.4810 O.co2     1 COA601      0.0000 
     30 O5A        16.0950  -10.8820   62.4470 O.co2     1 COA601      0.0000 
     31 O6A        15.6020  -12.4300   60.3960 O.3       1 COA601      0.0000 
     32 CBP        14.8300  -13.5230   58.4370 C.3       1 COA601      0.0000 
     33 CCP        16.0620  -13.0590   59.2060 C.3       1 COA601      0.0000 
     34 CDP        15.2380  -14.2880   57.2100 C.3       1 COA601      0.0000 
     35 CEP        14.0340  -14.3980   59.3820 C.3       1 COA601      0.0000 
     36 CAP        13.9990  -12.2700   58.0700 C.3       1 COA601      0.0000 
     37 OAP        14.8530  -11.2610   57.6890 O.3       1 COA601      0.0000 
     38 C9P        12.9720  -12.5390   56.9180 C.2       1 COA601      0.0000 
     39 O9P        11.9380  -13.1920   57.0750 O.2       1 COA601      0.0000 
     40 N8P        13.2970  -11.9150   55.5720 N.am      1 COA601      0.0000 
     41 C7P        12.3480  -12.1070   54.4080 C.3       1 COA601      0.0000 
     42 C6P        12.5350  -13.4690   53.7400 C.3       1 COA601      0.0000 
     43 C5P        11.4410  -13.4490   52.6610 C.2       1 COA601      0.0000 
     44 O5P        10.3030  -13.6030   52.9890 O.2       1 COA601      0.0000 
     45 N4P        11.7980  -13.2010   51.3100 N.am      1 COA601      0.0000 
     46 C3P        10.7710  -13.1410   50.2700 C.3       1 COA601      0.0000 
     47 C2P        10.2240  -14.5580   49.8980 C.3       1 COA601      0.0000 
     48 S1P        11.4120  -15.3990   48.7530 S.3       1 COA601      0.0000 
@<TRIPOS>BOND
     1    1    2 ar   
     2    1    6 ar   
     3    2    3 ar   
     4    3    4 ar   
     5    4    5 ar   
     6    4   10 1    
     7    5    6 ar   
     8    5    8 1    
     9    6    7 1    
    10    8    9 2    
    11    9   10 1    
    12   10   11 1    
    13   11   12 1    
    14   11   21 1    
    15   12   13 1    
    16   12   14 1    
    17   14   15 1    
    18   14   20 1    
    19   15   16 1    
    20   16   17 ar   
    21   16   18 ar   
    22   16   19 ar   
    23   20   21 1    
    24   20   22 1    
    25   22   23 1    
    26   23   24 1    
    27   24   25 ar   
    28   24   26 ar   
    29   24   27 1    
    30   27   28 1    
    31   28   29 ar   
    32   28   30 ar   
    33   28   31 1    
    34   31   33 1    
    35   32   33 1    
    36   32   34 1    
    37   32   35 1    
    38   32   36 1    
    39   36   37 1    
    40   36   38 1    
    41   38   39 2    
    42   38   40 am   
    43   40   41 1    
    44   41   42 1    
    45   42   43 1    
    46   43   44 2    
    47   43   45 am   
    48   45   46 1    
    49   46   47 1    
    50   47   48 1    
@<TRIPOS>SUBSTRUCTURE
     1 COA601      1 GROUP   
@<TRIPOS>SET
ATOM$ORANGE STATIC     ATOMS   COLORGROUP SYSTEM 
42 2 2 4 4 5 5 6 6 9 9 11 11 12 12 14 14 20 \
20 22 22 32 32 33 33 34 34 35 35 36 36 38 38 41 41 42 \
42 43 43 46 46 47 47 

