#    Name: 6d6y_1_SAH
#    Modification time : Fri May 22 19:24:34 2020

@<TRIPOS>MOLECULE
6d6y_1_SAH
   26    28     1     0     0
SMALL
NO_CHARGES


@<TRIPOS>ATOM
      1 N          35.5690    1.9400   13.0290 N.4       1 SAH1102     0.0000 
      2 CA         36.9360    1.5900   12.6470 C.3       1 SAH1102     0.0000 
      3 CB         37.9200    2.3380   13.5410 C.3       1 SAH1102     0.0000 
      4 CG         39.2680    2.6600   12.9030 C.3       1 SAH1102     0.0000 
      5 SD         40.0640    4.1100   13.6560 S.3       1 SAH1102     0.0000 
      6 C          37.1690    0.0760   12.6910 C.2       1 SAH1102     0.0000 
      7 O          38.1870   -0.4330   12.2150 O.co2     1 SAH1102     0.0000 
      8 OXT        36.3420   -0.6840   13.2010 O.co2     1 SAH1102     0.0000 
      9 C5'        40.6890    4.7290   12.0700 C.3       1 SAH1102     0.0000 
     10 C4'        39.9690    4.2480   10.8160 C.3       1 SAH1102     0.0000 
     11 O4'        39.3160    5.3720   10.2640 O.3       1 SAH1102     0.0000 
     12 C3'        40.9570    3.7350    9.7760 C.3       1 SAH1102     0.0000 
     13 O3'        40.4830    2.5620    9.1440 O.3       1 SAH1102     0.0000 
     14 C2'        41.0710    4.8540    8.7590 C.3       1 SAH1102     0.0000 
     15 O2'        41.1510    4.3210    7.4540 O.3       1 SAH1102     0.0000 
     16 C1'        39.8160    5.6960    8.9790 C.3       1 SAH1102     0.0000 
     17 N9         40.0950    7.1440    8.9370 N.pl3     1 SAH1102     0.0000 
     18 C8         41.1670    7.7860    9.5160 C.2       1 SAH1102     0.0000 
     19 N7         41.0690    9.1110    9.2550 N.2       1 SAH1102     0.0000 
     20 C5         39.9440    9.3300    8.5200 C.ar      1 SAH1102     0.0000 
     21 C6         39.3710   10.4900    7.9900 C.ar      1 SAH1102     0.0000 
     22 N6         39.9570   11.6730    8.1790 N.pl3     1 SAH1102     0.0000 
     23 N1         38.1850   10.4070    7.2730 N.ar      1 SAH1102     0.0000 
     24 C2         37.5930    9.1750    7.0750 C.ar      1 SAH1102     0.0000 
     25 N3         38.1670    8.0260    7.5980 N.ar      1 SAH1102     0.0000 
     26 C4         39.3190    8.1010    8.3170 C.ar      1 SAH1102     0.0000 
@<TRIPOS>BOND
     1    1    2 1    
     2    2    3 1    
     3    2    6 1    
     4    3    4 1    
     5    4    5 1    
     6    5    9 1    
     7    6    7 ar   
     8    6    8 ar   
     9    9   10 1    
    10   10   11 1    
    11   10   12 1    
    12   11   16 1    
    13   12   13 1    
    14   12   14 1    
    15   14   15 1    
    16   14   16 1    
    17   16   17 1    
    18   17   18 1    
    19   17   26 1    
    20   18   19 2    
    21   19   20 1    
    22   20   21 ar   
    23   20   26 ar   
    24   21   22 1    
    25   21   23 ar   
    26   23   24 ar   
    27   24   25 ar   
    28   25   26 ar   
@<TRIPOS>SUBSTRUCTURE
     1 SAH1102     1 GROUP   
@<TRIPOS>SET

