#    Name: 6brk_1_DGT
#    Modification time : Fri May 22 19:32:50 2020

@<TRIPOS>MOLECULE
6brk_1_DGT
   31    33     1     0     0
SMALL
NO_CHARGES


@<TRIPOS>ATOM
      1 PG        -60.9990  -95.0550  163.1540 P.3       1 DGT701      0.0000 
      2 O1G       -62.4760  -95.2130  163.4740 O.co2     1 DGT701      0.0000 
      3 O2G       -60.2670  -96.3900  163.2250 O.co2     1 DGT701      0.0000 
      4 O3G       -60.6960  -94.2920  161.8730 O.co2     1 DGT701      0.0000 
      5 O3B       -60.4830  -94.1400  164.3740 O.3       1 DGT701      0.0000 
      6 PB        -59.9340  -92.6400  164.2310 P.3       1 DGT701      0.0000 
      7 O1B       -59.8710  -92.0390  165.5930 O.co2     1 DGT701      0.0000 
      8 O2B       -60.8260  -91.8900  163.2860 O.co2     1 DGT701      0.0000 
      9 O3A       -58.4500  -92.7260  163.6010 O.3       1 DGT701      0.0000 
     10 PA        -57.0960  -93.1970  164.3910 P.3       1 DGT701      0.0000 
     11 O1A       -57.0380  -92.5630  165.7510 O.co2     1 DGT701      0.0000 
     12 O2A       -55.8810  -92.8840  163.5370 O.co2     1 DGT701      0.0000 
     13 O5'       -57.1800  -94.8320  164.5070 O.3       1 DGT701      0.0000 
     14 C5'       -56.9640  -95.6770  163.3570 C.3       1 DGT701      0.0000 
     15 C4'       -56.4710  -97.0490  163.7630 C.3       1 DGT701      0.0000 
     16 O4'       -57.3530  -97.6150  164.6690 O.3       1 DGT701      0.0000 
     17 C3'       -56.3870  -97.9720  162.5700 C.3       1 DGT701      0.0000 
     18 O3'       -55.0420  -98.2580  162.2230 O.3       1 DGT701      0.0000 
     19 C2'       -56.9720  -99.2520  162.9870 C.3       1 DGT701      0.0000 
     20 C1'       -57.2710  -99.0280  164.4360 C.3       1 DGT701      0.0000 
     21 N9        -58.5060  -99.6790  164.7150 N.pl3     1 DGT701      0.0000 
     22 C8        -59.7750  -99.2140  164.6500 C.2       1 DGT701      0.0000 
     23 N7        -60.6090 -100.2180  165.0420 N.2       1 DGT701      0.0000 
     24 C5        -59.8730 -101.3280  165.3430 C.2       1 DGT701      0.0000 
     25 C6        -60.1460 -102.7280  165.8340 C.2       1 DGT701      0.0000 
     26 O6        -61.3450 -103.0440  166.0230 O.2       1 DGT701      0.0000 
     27 N1        -59.0850 -103.6220  166.0340 N.am      1 DGT701      0.0000 
     28 C2        -57.7600 -103.2730  165.8210 C.2       1 DGT701      0.0000 
     29 N2        -56.7190 -104.1750  166.0400 N.pl3     1 DGT701      0.0000 
     30 N3        -57.4780 -101.9640  165.3780 N.2       1 DGT701      0.0000 
     31 C4        -58.4680 -100.9750  165.1360 C.2       1 DGT701      0.0000 
@<TRIPOS>BOND
     1    1    2 ar   
     2    1    3 ar   
     3    1    4 ar   
     4    1    5 1    
     5    5    6 1    
     6    6    7 ar   
     7    6    8 ar   
     8    6    9 1    
     9    9   10 1    
    10   10   11 ar   
    11   10   12 ar   
    12   10   13 1    
    13   13   14 1    
    14   14   15 1    
    15   15   16 1    
    16   15   17 1    
    17   16   20 1    
    18   17   18 1    
    19   17   19 1    
    20   19   20 1    
    21   20   21 1    
    22   21   22 1    
    23   21   31 1    
    24   22   23 2    
    25   23   24 1    
    26   24   25 1    
    27   24   31 2    
    28   25   26 2    
    29   25   27 am   
    30   27   28 1    
    31   28   29 1    
    32   28   30 2    
    33   30   31 1    
@<TRIPOS>SUBSTRUCTURE
     1 DGT701      1 GROUP   
@<TRIPOS>SET

