#    Name: 6q5e_1_EB4
#    Modification time : Fri May 22 19:34:10 2020

@<TRIPOS>MOLECULE
6q5e_1_EB4
   48    51     1     0     0
SMALL
NO_CHARGES


@<TRIPOS>ATOM
      1 O6        -85.4550   30.4690  124.9570 O.3       1 EB4802      0.0000 
      2 O4        -85.5350   30.4920  127.6950 O.3       1 EB4802      0.0000 
      3 O5        -85.5410   33.2340  126.3760 O.3       1 EB4802      0.0000 
      4 N1        -90.5070   30.1640  128.5370 N.am      1 EB4802      0.0000 
      5 C5        -86.2540   34.3960  126.3390 C.ar      1 EB4802      0.0000 
      6 C4        -86.2650   29.9250  128.7020 C.ar      1 EB4802      0.0000 
      7 C1        -87.6420   30.1470  128.7030 C.ar      1 EB4802      0.0000 
      8 C2        -87.6420   34.3170  126.2350 C.ar      1 EB4802      0.0000 
      9 C6        -86.1010   29.9370  123.8760 C.ar      1 EB4802      0.0000 
     10 C8        -85.6300   35.6270  126.3940 C.ar      1 EB4802      0.0000 
     11 N2        -90.4800   34.2550  125.9870 N.am      1 EB4802      0.0000 
     12 C9        -85.4240   29.4960  122.7540 C.ar      1 EB4802      0.0000 
     13 C10       -86.4990   28.5240  130.6380 C.ar      1 EB4802      0.0000 
     14 O3        -88.0780   30.3400  125.0420 O.3       1 EB4802      0.0000 
     15 N3        -90.3790   29.8340  123.8130 N.am      1 EB4802      0.0000 
     16 C16       -88.4580   29.5500  129.6730 C.ar      1 EB4802      0.0000 
     17 C7        -85.6940   29.1220  129.6700 C.ar      1 EB4802      0.0000 
     18 C3        -87.4920   29.8490  123.9280 C.ar      1 EB4802      0.0000 
     19 C11       -86.3920   36.7930  126.3660 C.ar      1 EB4802      0.0000 
     20 O1        -88.1130   30.9610  127.7300 O.3       1 EB4802      0.0000 
     21 O2        -88.1710   33.0760  126.1440 O.3       1 EB4802      0.0000 
     22 C12       -86.1350   28.9740  121.6760 C.ar      1 EB4802      0.0000 
     23 C15       -87.4940   28.8850  121.7280 C.ar      1 EB4802      0.0000 
     24 C14       -87.7530   36.7190  126.2930 C.ar      1 EB4802      0.0000 
     25 C13       -87.8460   28.7420  130.6390 C.ar      1 EB4802      0.0000 
     26 O7        -90.6030   29.3060  130.6220 O.2       1 EB4802      0.0000 
     27 C19       -89.9410   29.7050  129.6630 C.2       1 EB4802      0.0000 
     28 C22       -91.9360   30.4450  128.4420 C.3       1 EB4802      0.0000 
     29 C25       -92.5260   30.0940  127.0760 C.2       1 EB4802      0.0000 
     30 O10       -93.6480   30.3900  126.7450 O.2       1 EB4802      0.0000 
     31 O15       -91.6930   29.3870  126.3140 O.3       1 EB4802      0.0000 
     32 C30       -92.2460   28.8670  125.0780 C.3       1 EB4802      0.0000 
     33 C24       -91.8270   29.7190  123.8810 C.3       1 EB4802      0.0000 
     34 C21       -89.6960   29.1980  122.8580 C.2       1 EB4802      0.0000 
     35 C18       -88.2110   29.3130  122.8520 C.ar      1 EB4802      0.0000 
     36 O9        -90.2700   28.5410  121.9940 O.2       1 EB4802      0.0000 
     37 C27       -92.4910   31.0930  123.8940 C.2       1 EB4802      0.0000 
     38 O12       -93.4930   31.3580  123.2840 O.2       1 EB4802      0.0000 
     39 C28       -92.2280   31.9130  128.7630 C.3       1 EB4802      0.0000 
     40 O13       -91.6980   32.7980  127.7400 O.3       1 EB4802      0.0000 
     41 C26       -92.5820   33.4230  126.9660 C.2       1 EB4802      0.0000 
     42 O11       -93.7720   33.4200  127.1600 O.2       1 EB4802      0.0000 
     43 C23       -91.9160   34.1200  125.7840 C.3       1 EB4802      0.0000 
     44 C29       -92.2270   33.3680  124.4890 C.3       1 EB4802      0.0000 
     45 O14       -91.7910   31.9850  124.5870 O.3       1 EB4802      0.0000 
     46 C20       -89.9020   35.4460  126.1700 C.2       1 EB4802      0.0000 
     47 O8        -90.5530   36.4780  126.3250 O.2       1 EB4802      0.0000 
     48 C17       -88.4150   35.4860  126.2270 C.ar      1 EB4802      0.0000 
@<TRIPOS>BOND
     1    1    9 1    
     2    2    6 1    
     3    3    5 1    
     4    4   27 am   
     5    4   28 1    
     6    5    8 ar   
     7    5   10 ar   
     8    6    7 ar   
     9    6   17 ar   
    10    7   16 ar   
    11    7   20 1    
    12    8   21 1    
    13    8   48 ar   
    14    9   12 ar   
    15    9   18 ar   
    16   10   19 ar   
    17   11   43 1    
    18   11   46 am   
    19   12   22 ar   
    20   13   17 ar   
    21   13   25 ar   
    22   14   18 1    
    23   15   33 1    
    24   15   34 am   
    25   16   25 ar   
    26   16   27 1    
    27   18   35 ar   
    28   19   24 ar   
    29   22   23 ar   
    30   23   35 ar   
    31   24   48 ar   
    32   26   27 2    
    33   28   29 1    
    34   28   39 1    
    35   29   30 2    
    36   29   31 1    
    37   31   32 1    
    38   32   33 1    
    39   33   37 1    
    40   34   35 1    
    41   34   36 2    
    42   37   38 2    
    43   37   45 1    
    44   39   40 1    
    45   40   41 1    
    46   41   42 2    
    47   41   43 1    
    48   43   44 1    
    49   44   45 1    
    50   46   47 2    
    51   46   48 1    
@<TRIPOS>SUBSTRUCTURE
     1 EB4802      1 GROUP   
@<TRIPOS>SET

