#    Name: 6i7i_1_ATP
#    Modification time : Fri May 22 19:30:29 2020

@<TRIPOS>MOLECULE
6i7i_1_ATP
   31    33     1     0     1
SMALL
NO_CHARGES


@<TRIPOS>ATOM
      1 PG        -12.9350  -30.6950   16.3080 P.3       1 ATP502      0.0000 
      2 O1G       -12.3580  -30.6200   14.9130 O.co2     1 ATP502      0.0000 
      3 O2G       -11.9190  -30.7980   17.4200 O.co2     1 ATP502      0.0000 
      4 O3G       -14.0180  -29.6830   16.5870 O.co2     1 ATP502      0.0000 
      5 PB        -14.9380  -32.4190   15.3580 P.3       1 ATP502      0.0000 
      6 O1B       -15.1830  -31.2110   14.4860 O.co2     1 ATP502      0.0000 
      7 O2B       -14.7240  -33.7720   14.7240 O.co2     1 ATP502      0.0000 
      8 O3B       -13.6870  -32.1200   16.3270 O.3       1 ATP502      0.0000 
      9 PA        -16.7110  -33.9350   16.9300 P.3       1 ATP502      0.0000 
     10 O1A       -17.9980  -34.2490   16.2130 O.co2     1 ATP502      0.0000 
     11 O2A       -15.5800  -34.9320   16.8970 O.co2     1 ATP502      0.0000 
     12 O3A       -16.1700  -32.5200   16.3900 O.3       1 ATP502      0.0000 
     13 O5'       -17.0580  -33.5960   18.4650 O.3       1 ATP502      0.0000 
     14 C5'       -16.1150  -32.9320   19.3110 C.3       1 ATP502      0.0000 
     15 C4'       -16.5880  -31.5080   19.5650 C.3       1 ATP502      0.0000 
     16 O4'       -17.6350  -31.4890   20.5410 O.3       1 ATP502      0.0000 
     17 C3'       -15.4980  -30.5960   20.1070 C.3       1 ATP502      0.0000 
     18 O3'       -14.7330  -29.9740   19.0710 O.3       1 ATP502      0.0000 
     19 C2'       -16.2750  -29.5800   20.9130 C.3       1 ATP502      0.0000 
     20 O2'       -16.6660  -28.4730   20.0970 O.3       1 ATP502      0.0000 
     21 C1'       -17.5070  -30.3390   21.3860 C.3       1 ATP502      0.0000 
     22 N9        -17.3790  -30.7130   22.8220 N.pl3     1 ATP502      0.0000 
     23 C8        -16.2570  -31.1520   23.4300 C.2       1 ATP502      0.0000 
     24 N7        -16.4780  -31.3900   24.7470 N.2       1 ATP502      0.0000 
     25 C5        -17.7640  -31.1040   24.9980 C.ar      1 ATP502      0.0000 
     26 C6        -18.6410  -31.1410   26.1890 C.ar      1 ATP502      0.0000 
     27 N6        -18.1410  -31.5490   27.3810 N.pl3     1 ATP502      0.0000 
     28 N1        -19.9320  -30.7600   26.0340 N.ar      1 ATP502      0.0000 
     29 C2        -20.4200  -30.3580   24.8390 C.ar      1 ATP502      0.0000 
     30 N3        -19.6710  -30.3030   23.7160 N.ar      1 ATP502      0.0000 
     31 C4        -18.3580  -30.6560   23.7290 C.ar      1 ATP502      0.0000 
@<TRIPOS>BOND
     1    1    2 ar   
     2    1    3 ar   
     3    1    4 ar   
     4    1    8 1    
     5    5    6 ar   
     6    5    7 ar   
     7    5    8 1    
     8    5   12 1    
     9    9   10 ar   
    10    9   11 ar   
    11    9   12 1    
    12    9   13 1    
    13   13   14 1    
    14   14   15 1    
    15   15   16 1    
    16   15   17 1    
    17   16   21 1    
    18   17   18 1    
    19   17   19 1    
    20   19   20 1    
    21   19   21 1    
    22   21   22 1    
    23   22   23 1    
    24   22   31 1    
    25   23   24 2    
    26   24   25 1    
    27   25   26 ar   
    28   25   31 ar   
    29   26   27 1    
    30   26   28 ar   
    31   28   29 ar   
    32   29   30 ar   
    33   30   31 ar   
@<TRIPOS>SUBSTRUCTURE
     1 ATP502      1 GROUP   
@<TRIPOS>SET
ATOM$ORANGE STATIC     ATOMS   COLORGROUP SYSTEM 
20 14 14 15 15 17 17 19 19 21 21 23 23 25 25 26 26 29 \
29 31 31 

