#    Name: 5orj_2_ADP
#    Modification time : Fri May 22 19:12:54 2020

@<TRIPOS>MOLECULE
5orj_2_ADP
   27    29     1     0     1
SMALL
NO_CHARGES


@<TRIPOS>ATOM
      1 PB          6.0140  154.2890  393.3330 P.3       1 ADP403      0.0000 
      2 O1B         5.0670  153.1990  392.7310 O.co2     1 ADP403      0.0000 
      3 O2B         5.3450  154.9120  394.6040 O.co2     1 ADP403      0.0000 
      4 O3B         7.3940  153.7490  393.6130 O.co2     1 ADP403      0.0000 
      5 PA          5.2710  156.7460  391.9010 P.3       1 ADP403      0.0000 
      6 O1A         4.5400  156.6080  390.6090 O.co2     1 ADP403      0.0000 
      7 O2A         4.2610  156.9740  393.0590 O.co2     1 ADP403      0.0000 
      8 O3A         6.1130  155.4350  392.2300 O.3       1 ADP403      0.0000 
      9 O5'         6.3490  157.9450  391.9780 O.3       1 ADP403      0.0000 
     10 C5'         7.1500  158.2140  393.1500 C.3       1 ADP403      0.0000 
     11 C4'         7.2470  159.7030  393.3710 C.3       1 ADP403      0.0000 
     12 O4'         7.7860  160.3400  392.1900 O.3       1 ADP403      0.0000 
     13 C3'         5.9310  160.4260  393.6400 C.3       1 ADP403      0.0000 
     14 O3'         5.5100  160.3210  394.9960 O.3       1 ADP403      0.0000 
     15 C2'         6.2470  161.8550  393.1890 C.3       1 ADP403      0.0000 
     16 O2'         6.8780  162.6450  394.1910 O.3       1 ADP403      0.0000 
     17 C1'         7.1800  161.6080  391.9950 C.3       1 ADP403      0.0000 
     18 N9          6.4980  161.6090  390.7020 N.pl3     1 ADP403      0.0000 
     19 C8          5.9090  160.5420  390.0700 C.2       1 ADP403      0.0000 
     20 N7          5.2680  160.8570  388.9710 N.2       1 ADP403      0.0000 
     21 C5          5.4550  162.2270  388.8620 C.ar      1 ADP403      0.0000 
     22 C6          5.0120  163.1730  387.9160 C.ar      1 ADP403      0.0000 
     23 N6          4.2960  162.8580  386.8370 N.pl3     1 ADP403      0.0000 
     24 N1          5.3730  164.4660  388.1010 N.ar      1 ADP403      0.0000 
     25 C2          6.1410  164.7780  389.1550 C.ar      1 ADP403      0.0000 
     26 N3          6.6210  163.9730  390.1100 N.ar      1 ADP403      0.0000 
     27 C4          6.2290  162.7020  389.9120 C.ar      1 ADP403      0.0000 
@<TRIPOS>BOND
     1    1    2 ar   
     2    1    3 ar   
     3    1    4 ar   
     4    1    8 1    
     5    5    6 ar   
     6    5    7 ar   
     7    5    8 1    
     8    5    9 1    
     9    9   10 1    
    10   10   11 1    
    11   11   12 1    
    12   11   13 1    
    13   12   17 1    
    14   13   14 1    
    15   13   15 1    
    16   15   16 1    
    17   15   17 1    
    18   17   18 1    
    19   18   19 1    
    20   18   27 1    
    21   19   20 2    
    22   20   21 1    
    23   21   22 ar   
    24   21   27 ar   
    25   22   23 1    
    26   22   24 ar   
    27   24   25 ar   
    28   25   26 ar   
    29   26   27 ar   
@<TRIPOS>SUBSTRUCTURE
     1 ADP403      1 GROUP   
@<TRIPOS>SET
ATOM$ORANGE STATIC     ATOMS   COLORGROUP SYSTEM 
20 10 10 11 11 13 13 15 15 17 17 19 19 21 21 22 22 25 \
25 27 27 

