#    Name: 5orj_1_ADP
#    Modification time : Fri May 22 19:12:49 2020

@<TRIPOS>MOLECULE
5orj_1_ADP
   27    29     1     0     1
SMALL
NO_CHARGES


@<TRIPOS>ATOM
      1 PB         16.6390  131.7490  357.6900 P.3       1 ADP404      0.0000 
      2 O1B        16.0290  132.3730  356.4030 O.co2     1 ADP404      0.0000 
      3 O2B        17.2220  130.3970  357.4810 O.co2     1 ADP404      0.0000 
      4 O3B        17.7590  132.7290  358.1330 O.co2     1 ADP404      0.0000 
      5 PA         14.1470  132.6410  359.0360 P.3       1 ADP404      0.0000 
      6 O1A        13.9480  133.6660  357.9080 O.co2     1 ADP404      0.0000 
      7 O2A        14.2640  133.3490  360.3440 O.co2     1 ADP404      0.0000 
      8 O3A        15.4370  131.7340  358.7500 O.3       1 ADP404      0.0000 
      9 O5'        12.8720  131.6700  358.9910 O.3       1 ADP404      0.0000 
     10 C5'        12.5580  130.7730  357.9020 C.3       1 ADP404      0.0000 
     11 C4'        11.0710  130.7570  357.6430 C.3       1 ADP404      0.0000 
     12 O4'        10.3490  130.2460  358.7930 O.3       1 ADP404      0.0000 
     13 C3'        10.4410  132.1140  357.3630 C.3       1 ADP404      0.0000 
     14 O3'        10.6840  132.5160  356.0200 O.3       1 ADP404      0.0000 
     15 C2'         8.9730  131.8630  357.7300 C.3       1 ADP404      0.0000 
     16 O2'         8.3010  131.1230  356.7160 O.3       1 ADP404      0.0000 
     17 C1'         9.1260  130.9580  358.9600 C.3       1 ADP404      0.0000 
     18 N9          9.1610  131.6780  360.2380 N.pl3     1 ADP404      0.0000 
     19 C8         10.2750  132.2010  360.8460 C.2       1 ADP404      0.0000 
     20 N7         10.0250  132.8550  361.9540 N.2       1 ADP404      0.0000 
     21 C5          8.6490  132.7520  362.0940 C.ar      1 ADP404      0.0000 
     22 C6          7.7550  133.2590  363.0570 C.ar      1 ADP404      0.0000 
     23 N6          8.1440  133.9560  364.1280 N.pl3     1 ADP404      0.0000 
     24 N1          6.4330  133.0030  362.8880 N.ar      1 ADP404      0.0000 
     25 C2          6.0490  132.2730  361.8310 C.ar      1 ADP404      0.0000 
     26 N3          6.8050  131.7190  360.8770 N.ar      1 ADP404      0.0000 
     27 C4          8.1030  132.0150  361.0520 C.ar      1 ADP404      0.0000 
@<TRIPOS>BOND
     1    1    2 ar   
     2    1    3 ar   
     3    1    4 ar   
     4    1    8 1    
     5    5    6 ar   
     6    5    7 ar   
     7    5    8 1    
     8    5    9 1    
     9    9   10 1    
    10   10   11 1    
    11   11   12 1    
    12   11   13 1    
    13   12   17 1    
    14   13   14 1    
    15   13   15 1    
    16   15   16 1    
    17   15   17 1    
    18   17   18 1    
    19   18   19 1    
    20   18   27 1    
    21   19   20 2    
    22   20   21 1    
    23   21   22 ar   
    24   21   27 ar   
    25   22   23 1    
    26   22   24 ar   
    27   24   25 ar   
    28   25   26 ar   
    29   26   27 ar   
@<TRIPOS>SUBSTRUCTURE
     1 ADP404      1 GROUP   
@<TRIPOS>SET
ATOM$ORANGE STATIC     ATOMS   COLORGROUP SYSTEM 
20 10 10 11 11 13 13 15 15 17 17 19 19 21 21 22 22 25 \
25 27 27 

