#    Name: 5xgk_1_TYF_CAVITY_N1_4
#    Modification time : Fri May 22 19:14:03 2020

@<TRIPOS>MOLECULE
5xgk_1_TYF_CAVITY_N1_4
   88     0     6     0     0
SMALL
NO_CHARGES


@<TRIPOS>ATOM
      1 OG        -21.0000  -28.2500    3.4300 O.3       1 SER1        0.0000 
      2 OG        -13.8600  -26.8000    2.5100 O.3       1 SER1        0.0000 
      3 OG        -14.7500  -25.6000    2.3600 O.3       1 SER1        0.0000 
      4 OG        -15.6400  -24.4100    2.2000 O.3       1 SER1        0.0000 
      5 OG        -14.6300  -23.7600    1.3000 O.3       1 SER1        0.0000 
      6 N         -19.4500  -28.8100    4.7800 N.am      2 ALA2        0.0000 
      7 N         -18.4400  -28.1700    3.8700 N.am      2 ALA2        0.0000 
      8 N         -16.3000  -25.0500    1.0200 N.am      2 ALA2        0.0000 
      9 O         -18.2000  -24.4900    1.7600 O.2       2 ALA2        0.0000 
     10 N         -19.1000  -23.3000    1.6100 N.am      2 ALA2        0.0000 
     11 N         -17.7900  -27.5200    5.0600 N.am      2 ALA2        0.0000 
     12 N         -16.7800  -26.8800    4.1600 N.am      2 ALA2        0.0000 
     13 O         -21.7200  -28.2500    7.6100 O.2       2 ALA2        0.0000 
     14 O         -20.7100  -27.6100    6.7100 O.2       2 ALA2        0.0000 
     15 N         -19.7000  -26.9700    5.8100 N.am      2 ALA2        0.0000 
     16 N         -18.6800  -26.3300    4.9100 N.am      2 ALA2        0.0000 
     17 N         -19.0400  -26.3300    7.0000 N.am      2 ALA2        0.0000 
     18 N         -18.0300  -25.6900    6.1000 N.am      2 ALA2        0.0000 
     19 N         -17.0200  -25.0500    5.2000 N.am      2 ALA2        0.0000 
     20 O         -21.9600  -26.4200    8.6500 O.2       2 ALA2        0.0000 
     21 O         -20.9500  -25.7800    7.7500 O.2       2 ALA2        0.0000 
     22 N         -18.3900  -25.6900    8.1900 N.am      2 ALA2        0.0000 
     23 N         -17.3800  -25.0500    7.2900 N.am      2 ALA2        0.0000 
     24 N         -16.3700  -24.4000    6.3800 N.am      2 ALA2        0.0000 
     25 OD1       -16.0100  -24.4100    4.2900 O.co2     3 ASP3        0.0000 
     26 OD1       -14.9900  -23.7600    3.3900 O.co2     3 ASP3        0.0000 
     27 CZ        -17.5500  -23.8500    2.9500 C.ar      4 PHE5        0.0000 
     28 CZ        -16.5400  -23.2100    2.0500 C.ar      4 PHE5        0.0000 
     29 CZ        -18.4400  -22.6600    2.8000 C.ar      4 PHE5        0.0000 
     30 CZ        -20.3500  -22.1000    3.5400 C.ar      4 PHE5        0.0000 
     31 CZ        -19.9400  -25.1300    6.8400 C.ar      4 PHE5        0.0000 
     32 CZ        -18.9300  -24.4900    5.9400 C.ar      4 PHE5        0.0000 
     33 CZ        -17.9100  -23.8500    5.0400 C.ar      4 PHE5        0.0000 
     34 CZ        -16.9000  -23.2100    4.1400 C.ar      4 PHE5        0.0000 
     35 CZ        -15.8900  -22.5700    3.2400 C.ar      4 PHE5        0.0000 
     36 CZ        -21.8500  -24.5800    7.5900 C.ar      4 PHE5        0.0000 
     37 CZ        -20.8300  -23.9400    6.6900 C.ar      4 PHE5        0.0000 
     38 CZ        -19.8200  -23.3000    5.7900 C.ar      4 PHE5        0.0000 
     39 CZ        -18.8100  -22.6600    4.8900 C.ar      4 PHE5        0.0000 
     40 CZ        -17.7900  -22.0200    3.9900 C.ar      4 PHE5        0.0000 
     41 CZ        -21.7300  -22.7400    6.5300 C.ar      4 PHE5        0.0000 
     42 CZ        -20.7100  -22.1000    5.6300 C.ar      4 PHE5        0.0000 
     43 CZ        -19.7000  -21.4600    4.7300 C.ar      4 PHE5        0.0000 
     44 CZ        -19.2900  -24.4900    8.0300 C.ar      4 PHE5        0.0000 
     45 CZ        -21.1900  -23.9400    8.7800 C.ar      4 PHE5        0.0000 
     46 CA        -21.8900  -27.0600    3.2800 C.3       5 GLY6        0.0000 
     47 CA        -17.4300  -27.5200    2.9700 C.3       5 GLY6        0.0000 
     48 CA        -16.4200  -26.8800    2.0700 C.3       5 GLY6        0.0000 
     49 CA        -21.3600  -28.2500    5.5200 C.3       5 GLY6        0.0000 
     50 CA        -19.3400  -26.9700    3.7200 C.3       5 GLY6        0.0000 
     51 CA        -18.3200  -26.3300    2.8200 C.3       5 GLY6        0.0000 
     52 CA        -20.2300  -25.7800    3.5600 C.3       5 GLY6        0.0000 
     53 CA        -19.2200  -25.1300    2.6600 C.3       5 GLY6        0.0000 
     54 CA        -21.1200  -24.5800    3.4100 C.3       5 GLY6        0.0000 
     55 CA        -20.1100  -23.9400    2.5100 C.3       5 GLY6        0.0000 
     56 CA        -15.8800  -28.0800    4.3200 C.3       5 GLY6        0.0000 
     57 CA        -22.6200  -27.0600    7.4600 C.3       5 GLY6        0.0000 
     58 CA        -23.5100  -25.8600    7.3000 C.3       5 GLY6        0.0000 
     59 CA        -14.2200  -26.7900    4.6000 C.3       5 GLY6        0.0000 
     60 CA        -13.2000  -26.1500    3.7000 C.3       5 GLY6        0.0000 
     61 CA        -16.1200  -26.2400    5.3500 C.3       5 GLY6        0.0000 
     62 CA        -15.1100  -25.6000    4.4500 C.3       5 GLY6        0.0000 
     63 CA        -14.1000  -24.9600    3.5500 C.3       5 GLY6        0.0000 
     64 CA        -13.0900  -24.3200    2.6500 C.3       5 GLY6        0.0000 
     65 CA        -20.0600  -26.9700    7.9000 C.3       5 GLY6        0.0000 
     66 CA        -13.9800  -23.1200    2.4900 C.3       5 GLY6        0.0000 
     67 CA        -22.8600  -25.2200    8.4900 C.3       5 GLY6        0.0000 
     68 CA        -20.3000  -25.1300    8.9300 C.3       5 GLY6        0.0000 
     69 DU        -20.3500  -27.6100    4.6200 H         6 CUB7        0.0000 
     70 DU        -17.3100  -25.6900    1.9200 H         6 CUB7        0.0000 
     71 DU        -22.2600  -27.0600    5.3700 H         6 CUB7        0.0000 
     72 DU        -21.2400  -26.4200    4.4700 H         6 CUB7        0.0000 
     73 DU        -23.1500  -25.8600    5.2100 H         6 CUB7        0.0000 
     74 DU        -22.1400  -25.2200    4.3100 H         6 CUB7        0.0000 
     75 DU        -14.8700  -27.4400    3.4200 H         6 CUB7        0.0000 
     76 DU        -15.7600  -26.2400    3.2600 H         6 CUB7        0.0000 
     77 DU        -17.6700  -25.6900    4.0100 H         6 CUB7        0.0000 
     78 DU        -16.6600  -25.0500    3.1100 H         6 CUB7        0.0000 
     79 DU        -21.6000  -26.4200    6.5600 H         6 CUB7        0.0000 
     80 DU        -20.5900  -25.7800    5.6500 H         6 CUB7        0.0000 
     81 DU        -19.5800  -25.1300    4.7500 H         6 CUB7        0.0000 
     82 DU        -18.5600  -24.4900    3.8500 H         6 CUB7        0.0000 
     83 DU        -22.5000  -25.2200    6.4000 H         6 CUB7        0.0000 
     84 DU        -21.4800  -24.5800    5.5000 H         6 CUB7        0.0000 
     85 DU        -20.4700  -23.9400    4.6000 H         6 CUB7        0.0000 
     86 DU        -19.4600  -23.3000    3.7000 H         6 CUB7        0.0000 
     87 DU        -22.3800  -23.3900    5.3500 H         6 CUB7        0.0000 
     88 DU        -21.3600  -22.7500    4.4400 H         6 CUB7        0.0000 
@<TRIPOS>BOND
@<TRIPOS>SUBSTRUCTURE
     1 SER1        1 GROUP   
     2 ALA2        6 GROUP   
     3 ASP3       25 GROUP   
     4 PHE5       27 GROUP   
     5 GLY6       46 GROUP   
     6 CUB7       69 GROUP   
@<TRIPOS>SET

