#    Name: 5xgk_1_TYF
#    Modification time : Fri May 22 19:14:02 2020

@<TRIPOS>MOLECULE
5xgk_1_TYF
   13    13     1     0     0
SMALL
NO_CHARGES


@<TRIPOS>ATOM
      1 O2        -14.5660  -24.1500    2.5040 O.co2     1 TYF501      0.0000 
      2 C1        -14.6030  -23.2280    3.3620 C.2       1 TYF501      0.0000 
      3 O1        -14.2330  -22.0310    3.4940 O.co2     1 TYF501      0.0000 
      4 C2        -15.2950  -23.6990    4.5990 C.3       1 TYF501      0.0000 
      5 C3        -16.6740  -24.1740    4.2780 C.3       1 TYF501      0.0000 
      6 O3        -19.8160  -26.1780    8.5300 O.3       1 TYF501      0.0000 
      7 C4        -17.5060  -24.7050    5.4050 C.ar      1 TYF501      0.0000 
      8 O4        -15.3690  -22.6560    5.5010 O.3       1 TYF501      0.0000 
      9 C5        -17.0880  -24.5330    6.7180 C.ar      1 TYF501      0.0000 
     10 C6        -17.8600  -25.0250    7.7640 C.ar      1 TYF501      0.0000 
     11 C7        -19.0500  -25.6890    7.4940 C.ar      1 TYF501      0.0000 
     12 C8        -19.4680  -25.8620    6.1810 C.ar      1 TYF501      0.0000 
     13 C9        -18.6970  -25.3700    5.1360 C.ar      1 TYF501      0.0000 
@<TRIPOS>BOND
     1    1    2 ar   
     2    2    3 ar   
     3    2    4 1    
     4    4    5 1    
     5    4    8 1    
     6    5    7 1    
     7    6   11 1    
     8    7    9 ar   
     9    7   13 ar   
    10    9   10 ar   
    11   10   11 ar   
    12   11   12 ar   
    13   12   13 ar   
@<TRIPOS>SUBSTRUCTURE
     1 TYF501      1 GROUP   
@<TRIPOS>SET

