#    Name: 6a4j_2_FAD
#    Modification time : Fri May 22 19:31:07 2020

@<TRIPOS>MOLECULE
6a4j_2_FAD
   53    58     1     0     1
SMALL
NO_CHARGES


@<TRIPOS>ATOM
      1 PA         -2.6070   14.3540  -68.1650 P.3       1 FAD401      0.0000 
      2 O1A        -2.1810   15.7230  -67.7720 O.co2     1 FAD401      0.0000 
      3 O2A        -3.9130   14.2430  -68.9530 O.co2     1 FAD401      0.0000 
      4 O5B        -1.4480   13.6820  -68.9910 O.3       1 FAD401      0.0000 
      5 C5B        -1.5290   12.3100  -69.4320 C.3       1 FAD401      0.0000 
      6 C4B        -0.1790   11.9470  -70.0000 C.3       1 FAD401      0.0000 
      7 O4B        -0.2390   10.6500  -70.6430 O.3       1 FAD401      0.0000 
      8 C3B         0.3460   12.9220  -71.0530 C.3       1 FAD401      0.0000 
      9 O3B         1.7410   13.1630  -70.9030 O.3       1 FAD401      0.0000 
     10 C2B         0.0090   12.2130  -72.3640 C.3       1 FAD401      0.0000 
     11 O2B         0.8540   12.6440  -73.4240 O.3       1 FAD401      0.0000 
     12 C1B         0.2530   10.7640  -71.9620 C.3       1 FAD401      0.0000 
     13 N9A        -0.4230    9.7820  -72.8040 N.pl3     1 FAD401      0.0000 
     14 C8A        -1.6900    9.8510  -73.3190 C.2       1 FAD401      0.0000 
     15 N7A        -2.0260    8.8180  -74.0540 N.2       1 FAD401      0.0000 
     16 C5A        -0.8970    8.0130  -74.0220 C.ar      1 FAD401      0.0000 
     17 C6A        -0.6030    6.7660  -74.6040 C.ar      1 FAD401      0.0000 
     18 N6A        -1.4600    6.0830  -75.3680 N.pl3     1 FAD401      0.0000 
     19 N1A         0.6220    6.2390  -74.3740 N.ar      1 FAD401      0.0000 
     20 C2A         1.4830    6.9190  -73.6140 C.ar      1 FAD401      0.0000 
     21 N3A         1.3170    8.0990  -73.0150 N.ar      1 FAD401      0.0000 
     22 C4A         0.0990    8.5970  -73.2590 C.ar      1 FAD401      0.0000 
     23 N1         -6.6660   21.2660  -62.4070 N.2       1 FAD401      0.0000 
     24 C2         -6.4730   21.9200  -61.2220 C.2       1 FAD401      0.0000 
     25 O2         -6.6390   21.3650  -60.1290 O.2       1 FAD401      0.0000 
     26 N3         -6.0740   23.2460  -61.2290 N.am      1 FAD401      0.0000 
     27 C4         -5.8410   24.0210  -62.3470 C.2       1 FAD401      0.0000 
     28 O4         -5.4930   25.1950  -62.2320 O.2       1 FAD401      0.0000 
     29 C4X        -6.0480   23.3250  -63.5990 C.2       1 FAD401      0.0000 
     30 N5         -5.8490   23.9830  -64.6930 N.2       1 FAD401      0.0000 
     31 C5X        -6.0430   23.3280  -65.8950 C.ar      1 FAD401      0.0000 
     32 C6         -5.8300   24.0430  -67.0720 C.ar      1 FAD401      0.0000 
     33 C7         -6.0040   23.4490  -68.3150 C.ar      1 FAD401      0.0000 
     34 C7M        -5.7550   24.2570  -69.5620 C.3       1 FAD401      0.0000 
     35 C8         -6.4050   22.1060  -68.3880 C.ar      1 FAD401      0.0000 
     36 C8M        -6.6050   21.4310  -69.7210 C.3       1 FAD401      0.0000 
     37 C9         -6.6290   21.3950  -67.2120 C.ar      1 FAD401      0.0000 
     38 C9A        -6.4450   21.9840  -65.9640 C.ar      1 FAD401      0.0000 
     39 N10        -6.6350   21.2910  -64.7410 N.pl3     1 FAD401      0.0000 
     40 C10        -6.4600   21.9460  -63.5360 C.2       1 FAD401      0.0000 
     41 C1'        -7.0860   19.8780  -64.7040 C.3       1 FAD401      0.0000 
     42 C2'        -6.1720   18.8910  -65.4330 C.3       1 FAD401      0.0000 
     43 O2'        -6.9110   17.7140  -65.7520 O.3       1 FAD401      0.0000 
     44 C3'        -4.9840   18.5190  -64.5470 C.3       1 FAD401      0.0000 
     45 O3'        -4.1770   19.6790  -64.4080 O.3       1 FAD401      0.0000 
     46 C4'        -4.0980   17.3980  -65.0940 C.3       1 FAD401      0.0000 
     47 O4'        -3.8820   17.5970  -66.4890 O.3       1 FAD401      0.0000 
     48 C5'        -4.5940   15.9900  -64.8320 C.3       1 FAD401      0.0000 
     49 O5'        -4.2530   15.1530  -65.9610 O.3       1 FAD401      0.0000 
     50 P          -3.8770   13.6330  -65.7820 P.3       1 FAD401      0.0000 
     51 O1P        -3.2070   13.3980  -64.4250 O.co2     1 FAD401      0.0000 
     52 O2P        -5.0540   12.7780  -66.1090 O.co2     1 FAD401      0.0000 
     53 O3P        -2.7510   13.4370  -66.8800 O.3       1 FAD401      0.0000 
@<TRIPOS>BOND
     1    1    2 ar   
     2    1    3 ar   
     3    1    4 1    
     4    1   53 1    
     5    4    5 1    
     6    5    6 1    
     7    6    7 1    
     8    6    8 1    
     9    7   12 1    
    10    8    9 1    
    11    8   10 1    
    12   10   11 1    
    13   10   12 1    
    14   12   13 1    
    15   13   14 1    
    16   13   22 1    
    17   14   15 2    
    18   15   16 1    
    19   16   17 ar   
    20   16   22 ar   
    21   17   18 1    
    22   17   19 ar   
    23   19   20 ar   
    24   20   21 ar   
    25   21   22 ar   
    26   23   24 1    
    27   23   40 2    
    28   24   25 2    
    29   24   26 am   
    30   26   27 am   
    31   27   28 2    
    32   27   29 1    
    33   29   30 2    
    34   29   40 1    
    35   30   31 1    
    36   31   32 ar   
    37   31   38 ar   
    38   32   33 ar   
    39   33   34 1    
    40   33   35 ar   
    41   35   36 1    
    42   35   37 ar   
    43   37   38 ar   
    44   38   39 1    
    45   39   40 1    
    46   39   41 1    
    47   41   42 1    
    48   42   43 1    
    49   42   44 1    
    50   44   45 1    
    51   44   46 1    
    52   46   47 1    
    53   46   48 1    
    54   48   49 1    
    55   49   50 1    
    56   50   51 ar   
    57   50   52 ar   
    58   50   53 1    
@<TRIPOS>SUBSTRUCTURE
     1 FAD401      1 GROUP   
@<TRIPOS>SET
ATOM$ORANGE STATIC     ATOMS   COLORGROUP SYSTEM 
54 5 5 6 6 8 8 10 10 12 12 14 14 16 16 17 17 20 \
20 22 22 24 24 27 27 29 29 31 31 32 32 33 33 34 34 35 \
35 36 36 37 37 38 38 40 40 41 41 42 42 44 44 46 46 48 \
48 

