#    Name: 6a4j_1_FAD
#    Modification time : Fri May 22 19:30:55 2020

@<TRIPOS>MOLECULE
6a4j_1_FAD
   53    58     1     0     1
SMALL
NO_CHARGES


@<TRIPOS>ATOM
      1 PA         -8.8410   16.9040  -38.9170 P.3       1 FAD401      0.0000 
      2 O1A        -7.4920   17.4280  -39.2460 O.co2     1 FAD401      0.0000 
      3 O2A        -8.9170   15.9880  -37.6810 O.co2     1 FAD401      0.0000 
      4 O5B        -9.8550   18.0920  -38.7460 O.3       1 FAD401      0.0000 
      5 C5B       -10.8100   18.1150  -37.6640 C.3       1 FAD401      0.0000 
      6 C4B       -10.9610   19.5390  -37.1880 C.3       1 FAD401      0.0000 
      7 O4B       -12.3400   19.7860  -36.8230 O.3       1 FAD401      0.0000 
      8 C3B       -10.1390   19.8830  -35.9480 C.3       1 FAD401      0.0000 
      9 O3B        -9.7500   21.2520  -35.9650 O.3       1 FAD401      0.0000 
     10 C2B       -11.1270   19.5910  -34.8220 C.3       1 FAD401      0.0000 
     11 O2B       -10.8130   20.2820  -33.6180 O.3       1 FAD401      0.0000 
     12 C1B       -12.4050   20.1340  -35.4510 C.3       1 FAD401      0.0000 
     13 N9A       -13.6430   19.6100  -34.8840 N.pl3     1 FAD401      0.0000 
     14 C8A       -14.0010   18.3020  -34.6970 C.2       1 FAD401      0.0000 
     15 N7A       -15.1850   18.1450  -34.1540 N.2       1 FAD401      0.0000 
     16 C5A       -15.6360   19.4440  -33.9690 C.ar      1 FAD401      0.0000 
     17 C6A       -16.8270   19.9730  -33.4340 C.ar      1 FAD401      0.0000 
     18 N6A       -17.8280   19.2230  -32.9650 N.pl3     1 FAD401      0.0000 
     19 N1A       -16.9560   21.3190  -33.3970 N.ar      1 FAD401      0.0000 
     20 C2A       -15.9590   22.0740  -33.8630 C.ar      1 FAD401      0.0000 
     21 N3A       -14.7950   21.6890  -34.3880 N.ar      1 FAD401      0.0000 
     22 C4A       -14.6940   20.3560  -34.4130 C.ar      1 FAD401      0.0000 
     23 N1         -2.5220   12.4050  -38.5640 N.2       1 FAD401      0.0000 
     24 C2         -2.2070   12.2980  -37.2400 C.2       1 FAD401      0.0000 
     25 O2         -3.0790   12.2610  -36.3730 O.2       1 FAD401      0.0000 
     26 N3         -0.8810   12.2330  -36.8480 N.am      1 FAD401      0.0000 
     27 C4          0.2130   12.2650  -37.6820 C.2       1 FAD401      0.0000 
     28 O4          1.3510   12.1990  -37.2190 O.2       1 FAD401      0.0000 
     29 C4X        -0.1300   12.3780  -39.0860 C.2       1 FAD401      0.0000 
     30 N5          0.8360   12.4170  -39.9400 N.2       1 FAD401      0.0000 
     31 C5X         0.5160   12.5250  -41.2770 C.ar      1 FAD401      0.0000 
     32 C6          1.5500   12.5680  -42.1960 C.ar      1 FAD401      0.0000 
     33 C7          1.2960   12.6740  -43.5530 C.ar      1 FAD401      0.0000 
     34 C7M         2.4600   12.7160  -44.5000 C.3       1 FAD401      0.0000 
     35 C8         -0.0290   12.7450  -44.0130 C.ar      1 FAD401      0.0000 
     36 C8M        -0.3370   12.8630  -45.4840 C.3       1 FAD401      0.0000 
     37 C9         -1.0720   12.7010  -43.0930 C.ar      1 FAD401      0.0000 
     38 C9A        -0.8080   12.5950  -41.7320 C.ar      1 FAD401      0.0000 
     39 N10        -1.8330   12.5510  -40.7670 N.pl3     1 FAD401      0.0000 
     40 C10        -1.5280   12.4430  -39.4300 C.2       1 FAD401      0.0000 
     41 C1'        -3.2460   12.6220  -41.1630 C.3       1 FAD401      0.0000 
     42 C2'        -3.6800   14.0200  -41.5930 C.3       1 FAD401      0.0000 
     43 O2'        -3.1070   15.0080  -40.7390 O.3       1 FAD401      0.0000 
     44 C3'        -5.2050   14.1140  -41.5540 C.3       1 FAD401      0.0000 
     45 O3'        -5.7420   13.1540  -42.4550 O.3       1 FAD401      0.0000 
     46 C4'        -5.7450   15.4920  -41.9290 C.3       1 FAD401      0.0000 
     47 O4'        -5.5440   16.3990  -40.8450 O.3       1 FAD401      0.0000 
     48 C5'        -7.2010   15.4450  -42.3460 C.3       1 FAD401      0.0000 
     49 O5'        -7.8520   16.6670  -41.9400 O.3       1 FAD401      0.0000 
     50 P          -9.3950   16.7140  -41.6400 P.3       1 FAD401      0.0000 
     51 O1P        -9.8790   18.1680  -41.5940 O.co2     1 FAD401      0.0000 
     52 O2P       -10.1190   15.8010  -42.5820 O.co2     1 FAD401      0.0000 
     53 O3P        -9.4410   16.1260  -40.1620 O.3       1 FAD401      0.0000 
@<TRIPOS>BOND
     1    1    2 ar   
     2    1    3 ar   
     3    1    4 1    
     4    1   53 1    
     5    4    5 1    
     6    5    6 1    
     7    6    7 1    
     8    6    8 1    
     9    7   12 1    
    10    8    9 1    
    11    8   10 1    
    12   10   11 1    
    13   10   12 1    
    14   12   13 1    
    15   13   14 1    
    16   13   22 1    
    17   14   15 2    
    18   15   16 1    
    19   16   17 ar   
    20   16   22 ar   
    21   17   18 1    
    22   17   19 ar   
    23   19   20 ar   
    24   20   21 ar   
    25   21   22 ar   
    26   23   24 1    
    27   23   40 2    
    28   24   25 2    
    29   24   26 am   
    30   26   27 am   
    31   27   28 2    
    32   27   29 1    
    33   29   30 2    
    34   29   40 1    
    35   30   31 1    
    36   31   32 ar   
    37   31   38 ar   
    38   32   33 ar   
    39   33   34 1    
    40   33   35 ar   
    41   35   36 1    
    42   35   37 ar   
    43   37   38 ar   
    44   38   39 1    
    45   39   40 1    
    46   39   41 1    
    47   41   42 1    
    48   42   43 1    
    49   42   44 1    
    50   44   45 1    
    51   44   46 1    
    52   46   47 1    
    53   46   48 1    
    54   48   49 1    
    55   49   50 1    
    56   50   51 ar   
    57   50   52 ar   
    58   50   53 1    
@<TRIPOS>SUBSTRUCTURE
     1 FAD401      1 GROUP   
@<TRIPOS>SET
ATOM$ORANGE STATIC     ATOMS   COLORGROUP SYSTEM 
54 5 5 6 6 8 8 10 10 12 12 14 14 16 16 17 17 20 \
20 22 22 24 24 27 27 29 29 31 31 32 32 33 33 34 34 35 \
35 36 36 37 37 38 38 40 40 41 41 42 42 44 44 46 46 48 \
48 

