#    Name: 6fqj_4_ZK1
#    Modification time : Fri May 22 19:30:30 2020

@<TRIPOS>MOLECULE
6fqj_4_ZK1
   40    42     1     0     0
SMALL
NO_CHARGES


@<TRIPOS>ATOM
      1 OAA       -22.9430    8.9370   -8.0680 O.2       1 ZK1301      0.0000 
      2 OAB       -24.2930    8.4650  -10.3760 O.2       1 ZK1301      0.0000 
      3 OAC       -25.8980    5.7750  -12.6440 O.co2     1 ZK1301      0.0000 
      4 OAD       -26.9370    4.4420  -10.8730 O.co2     1 ZK1301      0.0000 
      5 OAE       -24.6330    5.2080  -10.6270 O.co2     1 ZK1301      0.0000 
      6 FAF       -27.2290    5.9030   -3.1070 F         1 ZK1301      0.0000 
      7 FAG       -27.7260    4.0210   -4.2720 F         1 ZK1301      0.0000 
      8 FAH       -29.2040    5.5860   -4.0870 F         1 ZK1301      0.0000 
      9 CAI       -27.5540    6.1030   -7.9340 C.ar      1 ZK1301      0.0000 
     10 CAJ       -26.1860    6.6330   -5.5520 C.ar      1 ZK1301      0.0000 
     11 CAK       -30.6470    3.0590   -7.6080 C.3       1 ZK1301      0.0000 
     12 CAL       -31.7370    4.9390   -6.6630 C.3       1 ZK1301      0.0000 
     13 CAM       -29.3550    3.8630   -7.7190 C.3       1 ZK1301      0.0000 
     14 CAN       -30.4090    5.7230   -6.7930 C.3       1 ZK1301      0.0000 
     15 CAO       -26.6340    7.0560  -10.4970 C.3       1 ZK1301      0.0000 
     16 NAP       -24.4660    7.8500   -6.7970 N.am      1 ZK1301      0.0000 
     17 OAQ       -31.8310    3.8550   -7.5970 O.3       1 ZK1301      0.0000 
     18 CAR       -28.0340    5.6070   -6.7090 C.ar      1 ZK1301      0.0000 
     19 CAS       -27.3560    5.8970   -5.5530 C.ar      1 ZK1301      0.0000 
     20 CAT       -23.9690    8.3280   -8.0370 C.2       1 ZK1301      0.0000 
     21 CAU       -24.7120    8.0660   -9.2560 C.2       1 ZK1301      0.0000 
     22 CAV       -25.6990    7.1010   -6.7760 C.ar      1 ZK1301      0.0000 
     23 CAW       -26.3860    6.8240   -7.9550 C.ar      1 ZK1301      0.0000 
     24 NAX       -29.3050    4.8320   -6.6440 N.3       1 ZK1301      0.0000 
     25 NAY       -25.9020    7.3160   -9.2120 N.am      1 ZK1301      0.0000 
     26 CAZ       -27.9270    5.3210   -4.1870 C.3       1 ZK1301      0.0000 
     27 PBA       -25.9880    5.5230  -11.2010 P.3       1 ZK1301      0.0000 
     28 HAI       -28.0180    5.9340   -8.7220 H         1 ZK1301      0.0000 
     29 HAJ       -25.7170    6.7790   -4.7620 H         1 ZK1301      0.0000 
     30 HAK       -30.6170    2.5420   -6.7880 H         1 ZK1301      0.0000 
     31 HAKA      -30.6930    2.4490   -8.3600 H         1 ZK1301      0.0000 
     32 HAL       -32.4720    5.5510   -6.8260 H         1 ZK1301      0.0000 
     33 HALA      -31.8060    4.5900   -5.7610 H         1 ZK1301      0.0000 
     34 HAM       -29.3310    4.3250   -8.5720 H         1 ZK1301      0.0000 
     35 HAMA      -28.5940    3.2660   -7.6480 H         1 ZK1301      0.0000 
     36 HAN       -30.3670    6.3970   -6.0970 H         1 ZK1301      0.0000 
     37 HANA      -30.3650    6.1450   -7.6650 H         1 ZK1301      0.0000 
     38 HAO       -26.4840    7.7890  -11.1140 H         1 ZK1301      0.0000 
     39 HAOA      -27.5840    6.9630  -10.3230 H         1 ZK1301      0.0000 
     40 HNAP      -24.0370    8.0040   -6.0670 H         1 ZK1301      0.0000 
@<TRIPOS>BOND
     1    1   20 2    
     2    2   21 2    
     3    3   27 ar   
     4    4   27 ar   
     5    5   27 ar   
     6    6   26 1    
     7    7   26 1    
     8    8   26 1    
     9    9   18 ar   
    10    9   23 ar   
    11   10   19 ar   
    12    9   28 1    
    13   10   22 ar   
    14   11   13 1    
    15   10   29 1    
    16   11   17 1    
    17   11   30 1    
    18   11   31 1    
    19   12   14 1    
    20   12   17 1    
    21   12   32 1    
    22   12   33 1    
    23   13   24 1    
    24   13   34 1    
    25   13   35 1    
    26   14   24 1    
    27   14   36 1    
    28   14   37 1    
    29   15   25 1    
    30   15   27 1    
    31   15   38 1    
    32   15   39 1    
    33   16   20 am   
    34   16   22 1    
    35   18   19 ar   
    36   16   40 1    
    37   18   24 1    
    38   19   26 1    
    39   20   21 1    
    40   21   25 am   
    41   22   23 ar   
    42   23   25 1    
@<TRIPOS>SUBSTRUCTURE
     1 ZK1301      1 GROUP   
@<TRIPOS>SET

