#    Name: 6fqj_6_ZK1_CAVITY_N1_8
#    Modification time : Fri May 22 19:30:41 2020

@<TRIPOS>MOLECULE
6fqj_6_ZK1_CAVITY_N1_8
   91     0     7     0     0
SMALL
NO_CHARGES


@<TRIPOS>ATOM
      1 OG         -4.7500  -12.0200    3.1600 O.3       1 SER1        0.0000 
      2 OG         -3.2400  -10.1100    2.2600 O.3       1 SER1        0.0000 
      3 OG         -2.7500  -11.3500    2.9600 O.3       1 SER1        0.0000 
      4 OG         -3.8300  -11.1900    4.0000 O.3       1 SER1        0.0000 
      5 OG         -2.8500  -13.6600    5.3900 O.3       1 SER1        0.0000 
      6 OG         -3.9200  -13.5000    6.4200 O.3       1 SER1        0.0000 
      7 OG         -2.3100   -9.2800    3.1000 O.3       1 SER1        0.0000 
      8 OG         -3.3900   -9.1200    4.1300 O.3       1 SER1        0.0000 
      9 OG         -1.8300  -10.5100    3.7900 O.3       1 SER1        0.0000 
     10 OG         -1.9200  -12.8300    6.2200 O.3       1 SER1        0.0000 
     11 OG         -3.0000  -12.6700    7.2600 O.3       1 SER1        0.0000 
     12 OG         -1.4400  -14.0600    6.9200 O.3       1 SER1        0.0000 
     13 OG         -2.9500   -7.0500    4.2700 O.3       1 SER1        0.0000 
     14 OG         -2.0200   -6.2100    5.1000 O.3       1 SER1        0.0000 
     15 OG         -3.0900   -6.0500    6.1400 O.3       1 SER1        0.0000 
     16 OG         -4.1700   -5.8900    7.1700 O.3       1 SER1        0.0000 
     17 OG         -2.6100   -7.2900    6.8300 O.3       1 SER1        0.0000 
     18 OG         -3.2400   -5.0600    8.0100 O.3       1 SER1        0.0000 
     19 O          -3.3400   -7.3700   10.4300 O.2       2 ALA2        0.0000 
     20 O          -2.9000   -5.3000   10.5700 O.2       2 ALA2        0.0000 
     21 OD1        -0.3600  -14.2200    5.8800 O.co2     3 ASP3        0.0000 
     22 OD1         0.5600  -13.3900    6.7100 O.co2     3 ASP3        0.0000 
     23 OD1        -0.5100  -13.2300    7.7500 O.co2     3 ASP3        0.0000 
     24 OD1         0.4200  -12.3900    8.5800 O.co2     3 ASP3        0.0000 
     25 OD1        -1.0900   -5.3800    5.9400 O.co2     3 ASP3        0.0000 
     26 OD1        -2.1700   -5.2200    6.9700 O.co2     3 ASP3        0.0000 
     27 OD1         0.3200   -5.7800    7.4600 O.co2     3 ASP3        0.0000 
     28 OD1        -0.7500   -5.6200    8.5000 O.co2     3 ASP3        0.0000 
     29 OD1         0.1800   -4.7900    9.3300 O.co2     3 ASP3        0.0000 
     30 NZ         -2.2700  -12.5800    3.6600 N.4       4 LYS4        0.0000 
     31 NZ         -4.4100  -12.2600    5.7300 N.4       4 LYS4        0.0000 
     32 NZ         -1.7800  -13.8200    4.3500 N.4       4 LYS4        0.0000 
     33 NZ         -5.0000  -13.3400    7.4600 N.4       4 LYS4        0.0000 
     34 NZ         -1.2900  -15.0600    5.0500 N.4       4 LYS4        0.0000 
     35 NZ         -2.9000  -10.3500    4.8300 N.4       4 LYS4        0.0000 
     36 NZ         -1.3400  -11.7500    4.4900 N.4       4 LYS4        0.0000 
     37 NZ         -3.4800  -11.4300    6.5600 N.4       4 LYS4        0.0000 
     38 NZ         -0.8500  -12.9800    5.1800 N.4       4 LYS4        0.0000 
     39 NZ         -4.0700  -12.5100    8.2900 N.4       4 LYS4        0.0000 
     40 NZ         -3.5300   -8.1200    6.0000 N.4       4 LYS4        0.0000 
     41 NZ         -3.0500   -9.3600    6.7000 N.4       4 LYS4        0.0000 
     42 NZ         -2.5600  -10.6000    7.3900 N.4       4 LYS4        0.0000 
     43 NZ         -3.6300  -10.4400    8.4300 N.4       4 LYS4        0.0000 
     44 NZ          0.0800  -12.1500    6.0200 N.4       4 LYS4        0.0000 
     45 NZ         -3.6800   -7.1300    7.8700 N.4       4 LYS4        0.0000 
     46 NZ         -2.1200   -8.5200    7.5300 N.4       4 LYS4        0.0000 
     47 NZ         -3.1900   -8.3700    8.5700 N.4       4 LYS4        0.0000 
     48 CZ         -1.3900   -8.4400    3.9300 C.ar      5 PHE5        0.0000 
     49 CZ         -2.4600   -8.2800    4.9700 C.ar      5 PHE5        0.0000 
     50 CZ         -1.9700   -9.5200    5.6600 C.ar      5 PHE5        0.0000 
     51 CZ         -0.4100  -10.9100    5.3200 C.ar      5 PHE5        0.0000 
     52 CZ         -1.4800  -10.7500    6.3600 C.ar      5 PHE5        0.0000 
     53 CZ         -1.5300   -7.4500    5.8000 C.ar      5 PHE5        0.0000 
     54 CZ         -1.0400   -8.6800    6.4900 C.ar      5 PHE5        0.0000 
     55 CZ         -0.5600   -9.9200    7.1900 C.ar      5 PHE5        0.0000 
     56 CZ          1.0000  -11.3200    6.8500 C.ar      5 PHE5        0.0000 
     57 CZ         -0.6000   -6.6100    6.6300 C.ar      5 PHE5        0.0000 
     58 CZ         -0.1200   -7.8500    7.3300 C.ar      5 PHE5        0.0000 
     59 CZ          0.3700   -9.0900    8.0200 C.ar      5 PHE5        0.0000 
     60 CZ          0.8100   -7.0200    8.1600 C.ar      5 PHE5        0.0000 
     61 CA         -3.6800  -12.1800    2.1300 C.3       6 GLY6        0.0000 
     62 CA         -3.1900  -13.4200    2.8200 C.3       6 GLY6        0.0000 
     63 CA         -4.2700  -13.2600    3.8600 C.3       6 GLY6        0.0000 
     64 CA         -5.3400  -13.1000    4.8900 C.3       6 GLY6        0.0000 
     65 CA         -2.7100  -14.6500    3.5200 C.3       6 GLY6        0.0000 
     66 CA         -3.7800  -14.4900    4.5500 C.3       6 GLY6        0.0000 
     67 CA         -4.8500  -14.3400    5.5900 C.3       6 GLY6        0.0000 
     68 CA         -2.2200  -15.8900    4.2100 C.3       6 GLY6        0.0000 
     69 CA         -3.2900  -15.7300    5.2500 C.3       6 GLY6        0.0000 
     70 CA         -0.8000  -16.2900    5.7400 C.3       6 GLY6        0.0000 
     71 CA         -2.0700  -11.8300    8.0900 C.3       6 GLY6        0.0000 
     72 CA         -3.1400  -11.6700    9.1200 C.3       6 GLY6        0.0000 
     73 CA         -1.5800  -13.0700    8.7800 C.3       6 GLY6        0.0000 
     74 CA         -1.1400  -11.0000    8.9200 C.3       6 GLY6        0.0000 
     75 CA         -0.6500  -12.2300    9.6200 C.3       6 GLY6        0.0000 
     76 CA         -4.3100   -4.9000    9.0400 C.3       6 GLY6        0.0000 
     77 CA         -3.8200   -6.1400    9.7400 C.3       6 GLY6        0.0000 
     78 CA         -4.4600   -3.9100   10.9100 C.3       6 GLY6        0.0000 
     79 CA         -1.3400   -6.7000   10.2300 C.3       6 GLY6        0.0000 
     80 DU         -3.3400  -12.4200    4.6900 H         7 CUB7        0.0000 
     81 DU         -2.4100  -11.5900    5.5200 H         7 CUB7        0.0000 
     82 DU         -1.0000  -11.9900    7.0500 H         7 CUB7        0.0000 
     83 DU         -1.6300   -9.7600    8.2300 H         7 CUB7        0.0000 
     84 DU         -0.0700  -11.1600    7.8900 H         7 CUB7        0.0000 
     85 DU         -1.6800   -6.4500    7.6700 H         7 CUB7        0.0000 
     86 DU         -2.7500   -6.2900    8.7000 H         7 CUB7        0.0000 
     87 DU         -1.1900   -7.6900    8.3600 H         7 CUB7        0.0000 
     88 DU         -2.2600   -7.5300    9.4000 H         7 CUB7        0.0000 
     89 DU         -1.8200   -5.4600    9.5400 H         7 CUB7        0.0000 
     90 DU         -0.2600   -6.8600    9.2000 H         7 CUB7        0.0000 
     91 DU          1.3000   -8.2500    8.8600 H         7 CUB7        0.0000 
@<TRIPOS>BOND
@<TRIPOS>SUBSTRUCTURE
     1 SER1        1 GROUP   
     2 ALA2       19 GROUP   
     3 ASP3       21 GROUP   
     4 LYS4       30 GROUP   
     5 PHE5       48 GROUP   
     6 GLY6       61 GROUP   
     7 CUB7       80 GROUP   
@<TRIPOS>SET

