#    Name: 6fqj_8_ZK1
#    Modification time : Fri May 22 19:30:45 2020

@<TRIPOS>MOLECULE
6fqj_8_ZK1
   40    42     1     0     0
SMALL
NO_CHARGES


@<TRIPOS>ATOM
      1 OAA        29.5170   26.1820    4.5430 O.2       1 ZK1301      0.0000 
      2 OAB        30.8870   28.4930    3.9590 O.2       1 ZK1301      0.0000 
      3 OAC        33.1690   31.6510    5.9670 O.co2     1 ZK1301      0.0000 
      4 OAD        33.7180   29.9030    7.6380 O.co2     1 ZK1301      0.0000 
      5 OAE        31.4590   30.1490    6.8990 O.co2     1 ZK1301      0.0000 
      6 FAF        33.7140   22.7060    9.2410 F         1 ZK1301      0.0000 
      7 FAG        34.6200   24.3550   10.4020 F         1 ZK1301      0.0000 
      8 FAH        35.6560   23.4590    8.6950 F         1 ZK1301      0.0000 
      9 CAI        34.2410   27.0620    7.0700 C.ar      1 ZK1301      0.0000 
     10 CAJ        32.7630   24.7700    7.5180 C.ar      1 ZK1301      0.0000 
     11 CAK        37.3340   27.4530   10.2690 C.3       1 ZK1301      0.0000 
     12 CAL        38.3690   25.9210    8.8220 C.3       1 ZK1301      0.0000 
     13 CAM        35.9920   27.3520    9.5310 C.3       1 ZK1301      0.0000 
     14 CAN        37.0920   25.8910    7.9580 C.3       1 ZK1301      0.0000 
     15 CAO        33.2620   29.1460    5.1370 C.3       1 ZK1301      0.0000 
     16 NAP        31.0780   25.5140    5.9830 N.am      1 ZK1301      0.0000 
     17 OAQ        38.5190   27.1950    9.4760 O.3       1 ZK1301      0.0000 
     18 CAR        34.6640   26.0560    7.9820 C.ar      1 ZK1301      0.0000 
     19 CAS        33.9280   24.9510    8.1910 C.ar      1 ZK1301      0.0000 
     20 CAT        30.5540   26.4510    5.0840 C.2       1 ZK1301      0.0000 
     21 CAU        31.3040   27.6510    4.7980 C.2       1 ZK1301      0.0000 
     22 CAV        32.3180   25.7500    6.6370 C.ar      1 ZK1301      0.0000 
     23 CAW        33.0510   26.9050    6.3940 C.ar      1 ZK1301      0.0000 
     24 NAX        35.9330   26.1310    8.7670 N.3       1 ZK1301      0.0000 
     25 NAY        32.5450   27.8760    5.4470 N.am      1 ZK1301      0.0000 
     26 CAZ        34.5040   23.8490    9.1970 C.3       1 ZK1301      0.0000 
     27 PBA        32.8720   30.2900    6.4860 P.3       1 ZK1301      0.0000 
     28 HAI        34.7610   27.8210    6.9360 H         1 ZK1301      0.0000 
     29 HAJ        32.2500   24.0090    7.6710 H         1 ZK1301      0.0000 
     30 HAK        37.4120   28.3390   10.6540 H         1 ZK1301      0.0000 
     31 HAKA       37.3190   26.8100   10.9950 H         1 ZK1301      0.0000 
     32 HAL        38.3050   25.2270    9.4970 H         1 ZK1301      0.0000 
     33 HALA       39.1380   25.7550    8.2550 H         1 ZK1301      0.0000 
     34 HAM        35.8960   28.1090    8.9320 H         1 ZK1301      0.0000 
     35 HAMA       35.2690   27.3560   10.1780 H         1 ZK1301      0.0000 
     36 HAN        37.1510   26.5830    7.2810 H         1 ZK1301      0.0000 
     37 HANA       37.0100   25.0230    7.5330 H         1 ZK1301      0.0000 
     38 HAO        32.9490   29.5070    4.2930 H         1 ZK1301      0.0000 
     39 HAOA       34.2190   28.9890    5.0980 H         1 ZK1301      0.0000 
     40 HNAP       30.6440   24.7890    6.1420 H         1 ZK1301      0.0000 
@<TRIPOS>BOND
     1    1   20 2    
     2    2   21 2    
     3    3   27 ar   
     4    4   27 ar   
     5    5   27 ar   
     6    6   26 1    
     7    7   26 1    
     8    8   26 1    
     9    9   18 ar   
    10    9   23 ar   
    11   10   19 ar   
    12    9   28 1    
    13   10   22 ar   
    14   11   13 1    
    15   10   29 1    
    16   11   17 1    
    17   11   30 1    
    18   11   31 1    
    19   12   14 1    
    20   12   17 1    
    21   12   32 1    
    22   12   33 1    
    23   13   24 1    
    24   13   34 1    
    25   13   35 1    
    26   14   24 1    
    27   14   36 1    
    28   14   37 1    
    29   15   25 1    
    30   15   27 1    
    31   15   38 1    
    32   15   39 1    
    33   16   20 am   
    34   16   22 1    
    35   18   19 ar   
    36   16   40 1    
    37   18   24 1    
    38   19   26 1    
    39   20   21 1    
    40   21   25 am   
    41   22   23 ar   
    42   23   25 1    
@<TRIPOS>SUBSTRUCTURE
     1 ZK1301      1 GROUP   
@<TRIPOS>SET

